@<TRIPOS>MOLECULE
tmp/3r7wB00.pdb
 193 187 0 0 0
SMALL
GASTEIGER

@<TRIPOS>ATOM
      1  N          6.6920   73.9010   80.5000 N.3     6  ARG6       -0.1231
      2  CA         5.9680   75.1510   80.7750 C.3     6  ARG6        0.1694
      3  C          6.7070   76.2170   81.6130 C.2     6  ARG6        0.2592
      4  O          7.3460   75.9100   82.6220 O.2     6  ARG6       -0.2718
      5  CB         4.5960   74.8350   81.3990 C.3     6  ARG6        0.0321
      6  CG         3.8310   76.0530   81.9230 C.3     6  ARG6        0.0489
      7  CD         2.4340   75.6850   82.4330 C.3     6  ARG6        0.2205
      8  NE         2.4640   74.7270   83.5390 N.pl3   6  ARG6       -0.0865
      9  CZ         1.3840   74.1390   84.0500 C.cat   6  ARG6        0.5346
     10  NH1        0.1810   74.4070   83.5570 N.pl3   6  ARG6        0.1354
     11  NH2        1.5060   73.2770   85.0530 N.pl3   6  ARG6        0.1354
     12  N          6.5990   77.4710   81.1760 N.am    7  ARG7       -0.1966
     13  CA         7.1910   78.6270   81.8660 C.3     7  ARG7        0.1729
     14  C          8.7250   78.7550   81.7660 C.2     7  ARG7        0.2616
     15  O          9.3120   79.6950   82.3140 O.2     7  ARG7       -0.2715
     16  CB         6.7320   78.6950   83.3320 C.3     7  ARG7        0.0348
     17  CG         5.2230   78.8180   83.5040 C.3     7  ARG7        0.0492
     18  CD         4.6270   79.8770   82.5710 C.3     7  ARG7        0.2205
     19  NE         4.7300   81.2390   83.1010 N.pl3   7  ARG7       -0.0865
     20  CZ         4.3000   82.3260   82.4630 C.cat   7  ARG7        0.5346
     21  NH1        3.7410   82.2150   81.2640 N.pl3   7  ARG7        0.1354
     22  NH2        4.4310   83.5240   83.0210 N.pl3   7  ARG7        0.1354
     23  N          9.3670   77.8260   81.0610 N.am    8  CYS8       -0.1954
     24  CA        10.8250   77.8380   80.9430 C.3     8  CYS8        0.1843
     25  C         11.3420   79.0890   80.2290 C.2     8  CYS8        0.2626
     26  O         12.0750   79.9000   80.8160 O.2     8  CYS8       -0.2714
     27  CB        11.3260   76.5720   80.2400 C.3     8  CYS8        0.0997
     28  SG        10.4840   76.2000   78.6900 S.3     8  CYS8       -0.0797
     29  N         10.9590   79.2410   78.9620 N.am    9  GLY9       -0.1940
     30  CA        11.3760   80.3840   78.1690 C.3     9  GLY9        0.2014
     31  C         11.2480   80.1850   76.6680 C.2     9  GLY9        0.2639
     32  O         11.7350   81.0020   75.8950 O.2     9  GLY9       -0.2714
     33  N         10.5870   79.1070   76.2550 N.am   10  LYS10      -0.1963
     34  CA        10.4800   78.7560   74.8360 C.3    10  LYS10       0.1728
     35  C          9.7430   79.7790   73.9360 C.2    10  LYS10       0.2617
     36  O         10.0440   79.8880   72.7420 O.2    10  LYS10      -0.2715
     37  CB         9.8840   77.3430   74.6660 C.3    10  LYS10       0.0311
     38  CG         8.4460   77.1840   75.1600 C.3    10  LYS10       0.0038
     39  CD         7.8380   75.8370   74.7720 C.3    10  LYS10       0.0206
     40  CE         8.3440   74.7200   75.6580 C.3    10  LYS10       0.1093
     41  NZ         7.8510   73.3940   75.1970 N.3    10  LYS10      -0.1314
     42  N          8.7940   80.5260   74.4990 N.am   11  SER11      -0.1936
     43  CA         7.9760   81.4510   73.7050 C.3    11  SER11       0.2055
     44  C          8.3680   82.9220   73.8690 C.2    11  SER11       0.2643
     45  O          8.1370   83.7310   72.9710 O.2    11  SER11      -0.2714
     46  CB         6.4940   81.2680   74.0280 C.3    11  SER11       0.2130
     47  OG         5.6750   81.9720   73.1130 O.3    11  SER11      -0.2179
     48  N          8.9450   83.2620   75.0210 N.am   12  SER12      -0.1949
     49  CA         9.4540   84.6110   75.2750 C.3    12  SER12       0.1924
     50  C         10.6320   84.9240   74.3600 C.2    12  SER12       0.2314
     51  O         10.7850   86.0460   73.8810 O.2    12  SER12      -0.2863
     52  CB         9.8990   84.7590   76.7330 C.3    12  SER12       0.2116
     53  OG         8.7960   84.8150   77.6180 O.3    12  SER12      -0.2180
     54  N          7.5080   90.3430   78.2280 N.3    25  THR25      -0.1203
     55  CA         7.4240   88.8780   78.2770 C.3    25  THR25       0.1994
     56  C          7.3420   88.3100   79.7040 C.2    25  THR25       0.2617
     57  O          7.0990   87.1140   79.8830 O.2    25  THR25      -0.2717
     58  CB         8.6100   88.1960   77.5410 C.3    25  THR25       0.1784
     59  OG1        9.8520   88.6960   78.0510 O.3    25  THR25      -0.2211
     60  CG2        8.5380   88.4520   76.0490 C.3    25  THR25       0.0376
     61  N          7.5550   89.1590   80.7110 N.am   26  LEU26      -0.1979
     62  CA         7.4850   88.7270   82.1130 C.3    26  LEU26       0.1596
     63  C          6.0500   88.4970   82.5980 C.2    26  LEU26       0.2287
     64  O          5.8340   88.1030   83.7450 O.2    26  LEU26      -0.2864
     65  CB         8.2280   89.7000   83.0450 C.3    26  LEU26       0.0297
     66  CG         9.6050   89.2400   83.5460 C.3    26  LEU26       0.0022
     67  CD1       10.6150   89.1700   82.4010 C.3    26  LEU26       0.0001
     68  CD2       10.1260   90.1330   84.6630 C.3    26  LEU26       0.0001
     69  N          3.6370   87.4150   79.8540 N.3    28  LEU28      -0.1231
     70  CA         3.0260   86.7430   78.7090 C.3    28  LEU28       0.1693
     71  C          2.1870   85.5510   79.1810 C.2    28  LEU28       0.2592
     72  O          2.3130   85.1050   80.3250 O.2    28  LEU28      -0.2718
     73  CB         4.0930   86.2910   77.7010 C.3    28  LEU28       0.0284
     74  CG         3.6400   86.0320   76.2600 C.3    28  LEU28       0.0019
     75  CD1        3.3430   87.3450   75.5540 C.3    28  LEU28       0.0001
     76  CD2        4.6820   85.2390   75.4870 C.3    28  LEU28       0.0001
     77  N          1.3320   85.0450   78.2940 N.am   29  GLU29      -0.1966
     78  CA         0.3620   84.0010   78.6410 C.3    29  GLU29       0.1733
     79  C          0.9130   82.5660   78.6290 C.2    29  GLU29       0.2617
     80  O          1.7560   82.2040   79.4580 O.2    29  GLU29      -0.2715
     81  CB        -0.8860   84.0990   77.7460 C.3    29  GLU29       0.0429
     82  CG        -0.7540   85.0500   76.5560 C.3    29  GLU29       0.1163
     83  CD         0.3510   84.6430   75.5890 C.2    29  GLU29       0.3649
     84  OE1        0.7710   83.4660   75.6190 O.co2  29  GLU29      -0.2457
     85  OE2        0.8040   85.5040   74.8010 O.co2  29  GLU29      -0.2457
     86  N          0.4210   81.7600   77.6870 N.am   30  SER30      -0.1936
     87  CA         0.7180   80.3280   77.6400 C.3    30  SER30       0.2055
     88  C          0.2780   79.7250   76.2940 C.2    30  SER30       0.2644
     89  O         -0.8910   79.3790   76.1170 O.2    30  SER30      -0.2714
     90  CB         0.0130   79.6200   78.8060 C.3    30  SER30       0.2130
     91  OG         0.4970   78.3040   79.0050 O.3    30  SER30      -0.2179
     92  N          1.2180   79.6040   75.3540 N.am   31  THR31      -0.1936
     93  CA         0.9210   79.1430   73.9870 C.3    31  THR31       0.2028
     94  C          0.8890   77.6090   73.8450 C.2    31  THR31       0.2642
     95  O          1.9120   76.9780   73.5390 O.2    31  THR31      -0.2714
     96  CB         1.9300   79.7260   72.9460 C.3    31  THR31       0.1808
     97  OG1        2.4410   80.9900   73.3980 O.3    31  THR31      -0.2208
     98  CG2        1.2690   79.8970   71.5780 C.3    31  THR31       0.0379
     99  N         -0.2890   77.0190   74.0480 N.am   32  SER32      -0.1949
    100  CA        -0.4480   75.5650   73.9720 C.3    32  SER32       0.1924
    101  C         -0.4220   75.0160   72.5380 C.2    32  SER32       0.2314
    102  O          0.2740   74.0430   72.2590 O.2    32  SER32      -0.2863
    103  CB        -1.7160   75.1100   74.7080 C.3    32  SER32       0.2116
    104  OG        -2.8790   75.7150   74.1680 O.3    32  SER32      -0.2180
    105  N          7.1370   75.5790   67.9770 N.3    48  GLU48      -0.1245
    106  CA         7.3680   75.6170   69.4030 C.3    48  GLU48       0.1567
    107  C          6.2700   74.8260   70.1010 C.2    48  GLU48       0.2260
    108  O          5.2270   75.3740   70.4690 O.2    48  GLU48      -0.2867
    109  CB         7.4070   77.0700   69.8800 C.3    48  GLU48       0.0388
    110  CG         7.2710   77.2580   71.3670 C.3    48  GLU48       0.1160
    111  CD         5.9940   77.9620   71.7140 C.2    48  GLU48       0.3649
    112  OE1        5.7840   78.2550   72.9040 O.co2  48  GLU48      -0.2457
    113  OE2        5.1980   78.2210   70.7910 O.co2  48  GLU48      -0.2457
    114  N          4.1510   72.8840   72.8780 N.3    50  PRO50      -0.2102
    115  CA         3.8040   73.1220   74.2860 C.3    50  PRO50       0.1504
    116  C          4.5140   72.1270   75.2010 C.2    50  PRO50       0.2576
    117  O          4.4280   70.9180   74.9670 O.2    50  PRO50      -0.2718
    118  CB         2.2930   72.8740   74.3160 C.3    50  PRO50       0.0282
    119  CG         2.0320   71.9880   73.1230 C.3    50  PRO50       0.0208
    120  CD         2.9780   72.4890   72.0810 C.3    50  PRO50       0.0893
    121  N          5.1880   72.6280   76.2330 N.am   51  GLY51      -0.1943
    122  CA         6.0980   71.8070   77.0180 C.3    51  GLY51       0.2014
    123  C          5.5240   70.8750   78.0730 C.2    51  GLY51       0.2638
    124  O          5.6000   71.1770   79.2660 O.2    51  GLY51      -0.2714
    125  N          4.9860   69.7320   77.6440 N.am   52  GLN52      -0.1977
    126  CA         4.4400   68.7330   78.5700 C.3    52  GLN52       0.1601
    127  C          4.2830   67.3530   77.9470 C.2    52  GLN52       0.2287
    128  O          5.1750   66.8730   77.2420 O.2    52  GLN52      -0.2864
    129  CB         3.0970   69.1820   79.1380 C.3    52  GLN52       0.0394
    130  CG         3.2120   70.0430   80.3730 C.3    52  GLN52       0.0908
    131  CD         1.9950   70.9150   80.5670 C.2    52  GLN52       0.2608
    132  OE1        0.8610   70.4470   80.4560 O.2    52  GLN52      -0.2717
    133  NE2        2.2210   72.1970   80.8390 N.am   52  GLN52      -0.0878
    134  N         14.7500   75.9460   81.9070 N.3    77  ASP77      -0.1239
    135  CA        14.7740   77.0010   82.9330 C.3    77  ASP77       0.1674
    136  C         15.8900   76.8340   83.9820 C.2    77  ASP77       0.2266
    137  O         16.6660   75.8770   83.9350 O.2    77  ASP77      -0.2867
    138  CB        13.4070   77.1040   83.6250 C.3    77  ASP77       0.1410
    139  CG        13.0730   78.5230   84.0660 C.2    77  ASP77       0.3668
    140  OD1       13.7670   79.0500   84.9570 O.co2  77  ASP77      -0.2456
    141  OD2       12.1060   79.1090   83.5340 O.co2  77  ASP77      -0.2456
    142  N         18.8340   78.2560   79.7990 N.3   109  HIS109     -0.1226
    143  CA        18.1360   79.5490   79.8020 C.3   109  HIS109      0.1752
    144  C         17.8600   80.2180   81.1630 C.2   109  HIS109      0.2595
    145  O         18.0280   79.6130   82.2240 O.2   109  HIS109     -0.2718
    146  CB        16.8130   79.3730   79.0550 C.3   109  HIS109      0.0759
    147  CG        16.0430   80.6400   78.8770 C.ar  109  HIS109      0.0818
    148  ND1       16.1690   81.4330   77.7590 N.ar  109  HIS109     -0.2268
    149  CD2       15.1300   81.2470   79.6710 C.ar  109  HIS109      0.1154
    150  CE1       15.3700   82.4780   77.8740 C.ar  109  HIS109      0.1986
    151  NE2       14.7310   82.3910   79.0260 N.ar  109  HIS109     -0.2212
    152  N         17.4190   81.4740   81.1110 N.am  110  LYS110     -0.1980
    153  CA        17.0220   82.2290   82.3040 C.3   110  LYS110      0.1596
    154  C         18.2060   82.4400   83.2490 C.2   110  LYS110      0.2287
    155  O         18.0530   82.4110   84.4660 O.2   110  LYS110     -0.2864
    156  CB        15.8380   81.5450   83.0200 C.3   110  LYS110      0.0298
    157  CG        14.9690   82.4550   83.9170 C.3   110  LYS110      0.0038
    158  CD        15.3790   82.4020   85.4060 C.3   110  LYS110      0.0206
    159  CE        14.5010   83.2970   86.3040 C.3   110  LYS110      0.1093
    160  NZ        15.0430   83.4470   87.6940 N.3   110  LYS110     -0.1314
    161  N         19.7580   85.0720   84.0800 N.3   112  ASP112     -0.1239
    162  CA        19.8420   86.5110   84.3570 C.3   112  ASP112      0.1674
    163  C         20.8140   86.8770   85.4820 C.2   112  ASP112      0.2266
    164  O         21.8920   86.2860   85.6090 O.2   112  ASP112     -0.2867
    165  CB        18.4620   87.0770   84.6800 C.3   112  ASP112      0.1410
    166  CG        17.5120   86.9840   83.5120 C.2   112  ASP112      0.3668
    167  OD1       17.6400   86.0270   82.7180 O.co2 112  ASP112     -0.2456
    168  OD2       16.6400   87.8710   83.3890 O.co2 112  ASP112     -0.2456
    169  N         19.6940   84.2150   77.9660 N.3   149  SER149     -0.1202
    170  CA        19.2330   85.0870   79.0480 C.3   149  SER149      0.2020
    171  C         18.1860   86.1290   78.6430 C.2   149  SER149      0.2619
    172  O         17.8800   87.0100   79.4390 O.2   149  SER149     -0.2717
    173  CB        20.4120   85.8170   79.6920 C.3   149  SER149      0.2103
    174  OG        21.5160   84.9510   79.8730 O.3   149  SER149     -0.2182
    175  N         17.6570   86.0360   77.4210 N.am  150  ILE150     -0.1965
    176  CA        16.5930   86.9280   76.8930 C.3   150  ILE150      0.1727
    177  C         16.7290   88.4400   77.1690 C.2   150  ILE150      0.2616
    178  O         16.0000   89.2570   76.5880 O.2   150  ILE150     -0.2715
    179  CB        15.1530   86.4490   77.2670 C.3   150  ILE150      0.0290
    180  CG1       14.2040   86.6050   76.0740 C.3   150  ILE150      0.0022
    181  CG2       14.6090   87.2100   78.4750 C.3   150  ILE150      0.0023
    182  CD1       12.7320   86.6520   76.4490 C.3   150  ILE150      0.0001
    183  N         17.6530   88.7960   78.0590 N.am  151  PHE151     -0.1974
    184  CA        17.9470   90.1840   78.4080 C.3   151  PHE151      0.1639
    185  C         19.4130   90.4720   78.0540 C.2   151  PHE151      0.2290
    186  O         19.7990   91.6180   77.8160 O.2   151  PHE151     -0.2864
    187  CB        17.7120   90.4290   79.9070 C.3   151  PHE151      0.0560
    188  CG        16.2560   90.5350   80.3030 C.ar  151  PHE151     -0.0200
    189  CD1       15.6050   91.7600   80.2850 C.ar  151  PHE151     -0.0042
    190  CD2       15.5510   89.4180   80.7300 C.ar  151  PHE151     -0.0042
    191  CE1       14.2760   91.8640   80.6650 C.ar  151  PHE151     -0.0003
    192  CE2       14.2180   89.5120   81.1090 C.ar  151  PHE151     -0.0003
    193  CZ        13.5810   90.7340   81.0750 C.ar  151  PHE151     -0.0000
@<TRIPOS>BOND
     1   105   106    1
     2   106   109    1
     3   106   107    1
     4   109   110    1
     5   107   108    2
     6   113   111   ar
     7   110   111    1
     8    98    96    1
     9   111   112   ar
    10   120   114    1
    11   120   119    1
    12   102   101    2
    13   101   100    1
    14    36    35    2
    15   114   115    1
    16    96    97    1
    17    96    93    1
    18    45    44    2
    19    47    46    1
    20   119   118    1
    21    95    94    2
    22    43    44    1
    23    43    46    1
    24    43    42    1
    25    94    93    1
    26    94    99   am
    27    44    48   am
    28    51    50    2
    29    35    42   am
    30    35    34    1
    31   100    99    1
    32   100   103    1
    33    93    92    1
    34   104   103    1
    35   115   118    1
    36   115   116    1
    37    50    49    1
    38    37    34    1
    39    37    38    1
    40    39    38    1
    41    39    40    1
    42    85    83   ar
    43    34    33    1
    44   117   116    2
    45    48    49    1
    46    41    40    1
    47   116   121   am
    48    49    52    1
    49    92    88   am
    50    76    74    1
    51    75    74    1
    52    83    84   ar
    53    83    82    1
    54    32    31    2
    55    60    58    1
    56   180   182    1
    57   180   179    1
    58    89    88    2
    59   121   122    1
    60    33    31   am
    61    74    73    1
    62    88    87    1
    63    82    81    1
    64   178   177    2
    65    31    30    1
    66    52    53    1
    67   176   177    1
    68   176   179    1
    69   176   175    1
    70   122   123    1
    71   177   183   am
    72   128   127    2
    73   179   181    1
    74   175   171   am
    75    58    59    1
    76    58    55    1
    77    87    86    1
    78    87    90    1
    79   125   123   am
    80   125   126    1
    81    86    79   am
    82    73    70    1
    83    81    78    1
    84   148   150   ar
    85   148   147   ar
    86   186   185    2
    87   150   151   ar
    88   127   126    1
    89   169   170    1
    90   185   184    1
    91   183   184    1
    92   123   124    2
    93    30    29    1
    94    54    55    1
    95    55    56    1
    96    77    78    1
    97    77    71   am
    98   184   187    1
    99   126   129    1
   100    79    78    1
   101    79    80    2
   102   171   170    1
   103   171   172    2
   104    28    27    1
   105    70    71    1
   106    70    69    1
   107    90    91    1
   108   147   146    1
   109   147   149   ar
   110    29    25   am
   111   151   149   ar
   112   170   173    1
   113   146   143    1
   114   129   130    1
   115    71    72    2
   116   173   174    1
   117    56    57    2
   118    56    61   am
   119   142   143    1
   120   143   144    1
   121   187   188    1
   122    25    26    2
   123    25    24    1
   124    27    24    1
   125   189   188   ar
   126   189   191   ar
   127   188   190   ar
   128   130   131    1
   129   132   131    2
   130     1     2    1
   131   131   133   am
   132   191   193   ar
   133    61    62    1
   134   190   192   ar
   135     2     5    1
   136     2     3    1
   137    24    23    1
   138    23    14   am
   139   193   192   ar
   140   152   144   am
   141   152   153    1
   142   144   145    2
   143    12     3   am
   144    12    13    1
   145    21    20    1
   146     5     6    1
   147     3     4    2
   148    14    13    1
   149    14    15    2
   150    13    16    1
   151   134   135    1
   152     6     7    1
   153    62    63    1
   154    62    65    1
   155   153   156    1
   156   153   154    1
   157    67    66    1
   158     7     8    1
   159    20    22    1
   160    20    19    2
   161    18    19    1
   162    18    17    1
   163    63    64    2
   164   167   166   ar
   165   135   138    1
   166   135   136    1
   167   156   157    1
   168    65    66    1
   169   154   155    2
   170    16    17    1
   171   168   166   ar
   172   166   165    1
   173   141   139   ar
   174     8     9    2
   175    66    68    1
   176    10     9    1
   177   138   139    1
   178   157   158    1
   179   137   136    2
   180     9    11    1
   181   139   140   ar
   182   161   162    1
   183   162   165    1
   184   162   163    1
   185   158   159    1
   186   163   164    2
   187   159   160    1
