@<TRIPOS>MOLECULE
tmp/3r7wC00.pdb
 165 160 0 0 0
SMALL
GASTEIGER

@<TRIPOS>ATOM
      1  N        -20.0450   36.0240  101.6100 N.3    11  SER11      -0.1202
      2  CA       -19.5830   34.6770  101.2920 C.3    11  SER11       0.2020
      3  C        -20.3880   34.0150  100.1690 C.2    11  SER11       0.2619
      4  O        -21.5990   34.2030  100.0680 O.2    11  SER11      -0.2717
      5  CB       -19.5390   33.7880  102.5290 C.3    11  SER11       0.2103
      6  OG       -19.0670   32.4950  102.1700 O.3    11  SER11      -0.2182
      7  N        -19.7100   33.2500   99.3210 N.am   12  GLY12      -0.1942
      8  CA       -20.3530   32.5920   98.1960 C.3    12  GLY12       0.2014
      9  C        -20.6520   33.4120   96.9350 C.2    12  GLY12       0.2640
     10  O        -20.9890   32.8330   95.8920 O.2    12  GLY12      -0.2714
     11  N        -20.5480   34.7390   96.9980 N.am   13  SER13      -0.1935
     12  CA       -20.7990   35.5580   95.8000 C.3    13  SER13       0.2055
     13  C        -19.8660   35.2430   94.6280 C.2    13  SER13       0.2644
     14  O        -20.1760   35.5280   93.4610 O.2    13  SER13      -0.2714
     15  CB       -20.7770   37.0520   96.1100 C.3    13  SER13       0.2130
     16  OG       -20.1840   37.3290   97.3620 O.3    13  SER13      -0.2179
     17  N        -18.7310   34.6310   94.9360 N.am   14  GLY14      -0.1939
     18  CA       -17.8700   34.1220   93.8870 C.3    14  GLY14       0.2014
     19  C        -16.8340   35.1340   93.4690 C.2    14  GLY14       0.2639
     20  O        -16.6350   35.3450   92.2900 O.2    14  GLY14      -0.2714
     21  N        -16.1870   35.7570   94.4530 N.am   15  LYS15      -0.1963
     22  CA       -15.1860   36.7790   94.2320 C.3    15  LYS15       0.1728
     23  C        -13.8590   36.1390   93.8650 C.2    15  LYS15       0.2617
     24  O        -13.1690   36.5900   92.9480 O.2    15  LYS15      -0.2715
     25  CB       -15.0290   37.6330   95.4790 C.3    15  LYS15       0.0311
     26  CG       -16.2930   38.3400   95.8340 C.3    15  LYS15       0.0038
     27  CD       -16.1380   39.2930   97.0170 C.3    15  LYS15       0.0206
     28  CE       -15.8220   38.5420   98.2890 C.3    15  LYS15       0.1093
     29  NZ       -16.8220   37.4630   98.5530 N.3    15  LYS15      -0.1314
     30  N        -13.4960   35.0830   94.5740 N.am   16  SER16      -0.1936
     31  CA       -12.2590   34.3840   94.2710 C.3    16  SER16       0.2055
     32  C        -12.3180   33.8460   92.8580 C.2    16  SER16       0.2643
     33  O        -11.3700   33.9790   92.0900 O.2    16  SER16      -0.2714
     34  CB       -12.0300   33.2550   95.2550 C.3    16  SER16       0.2130
     35  OG       -11.7620   33.7930   96.5260 O.3    16  SER16      -0.2179
     36  N        -13.4570   33.2660   92.5080 N.am   17  SER17      -0.1949
     37  CA       -13.6670   32.7670   91.1590 C.3    17  SER17       0.1924
     38  C        -13.1590   33.7580   90.1250 C.2    17  SER17       0.2314
     39  O        -12.2530   33.4360   89.3830 O.2    17  SER17      -0.2863
     40  CB       -15.1440   32.4810   90.9380 C.3    17  SER17       0.2116
     41  OG       -15.6170   31.7210   92.0200 O.3    17  SER17      -0.2180
     42  N        -12.8250   26.4890   89.3930 N.3    30  THR30      -0.1203
     43  CA       -13.2060   27.3640   90.5200 C.3    30  THR30       0.1994
     44  C        -13.9810   26.6880   91.6470 C.2    30  THR30       0.2617
     45  O        -14.2040   27.3090   92.6860 O.2    30  THR30      -0.2717
     46  CB       -14.0410   28.6260   90.0980 C.3    30  THR30       0.1784
     47  OG1      -15.3420   28.2280   89.6550 O.3    30  THR30      -0.2211
     48  CG2      -13.3540   29.4250   89.0050 C.3    30  THR30       0.0376
     49  N        -14.4220   25.4450   91.4440 N.am   31  ARG31      -0.1979
     50  CA       -15.2800   24.7850   92.4480 C.3    31  ARG31       0.1597
     51  C        -14.4840   24.2860   93.6530 C.2    31  ARG31       0.2287
     52  O        -15.0080   24.2420   94.7820 O.2    31  ARG31      -0.2864
     53  CB       -16.1270   23.6630   91.8310 C.3    31  ARG31       0.0334
     54  CG       -15.3470   22.5600   91.1240 C.3    31  ARG31       0.0492
     55  CD       -15.9740   22.2280   89.7550 C.3    31  ARG31       0.2205
     56  NE       -17.4190   21.9880   89.8270 N.pl3  31  ARG31      -0.0865
     57  CZ       -18.3640   22.9190   89.6530 C.cat  31  ARG31       0.5346
     58  NH1      -18.0480   24.1910   89.3900 N.pl3  31  ARG31       0.1354
     59  NH2      -19.6430   22.5770   89.7490 N.pl3  31  ARG31       0.1354
     60  N        -12.3130   25.7480   95.2350 N.3    33  LEU33      -0.1231
     61  CA       -11.6700   27.0090   95.6000 C.3    33  LEU33       0.1693
     62  C        -11.4170   27.2270   97.0880 C.2    33  LEU33       0.2593
     63  O        -10.3970   27.8010   97.4630 O.2    33  LEU33      -0.2718
     64  CB       -12.4540   28.1920   95.0280 C.3    33  LEU33       0.0284
     65  CG       -11.6170   29.2710   94.3320 C.3    33  LEU33       0.0019
     66  CD1      -10.1770   28.8520   94.2480 C.3    33  LEU33       0.0001
     67  CD2      -12.1800   29.5650   92.9560 C.3    33  LEU33       0.0001
     68  N        -12.3300   26.7750   97.9360 N.am   34  GLY34      -0.1942
     69  CA       -12.2080   27.0350   99.3620 C.3    34  GLY34       0.2014
     70  C        -12.6760   28.4440   99.6980 C.2    34  GLY34       0.2639
     71  O        -12.6400   29.3280   98.8490 O.2    34  GLY34      -0.2714
     72  N        -13.1430   28.6530  100.9230 N.am   35  ALA35      -0.1963
     73  CA       -13.5190   29.9840  101.3710 C.3    35  ALA35       0.1728
     74  C        -12.2780   30.7580  101.8120 C.2    35  ALA35       0.2616
     75  O        -11.3780   30.1960  102.4290 O.2    35  ALA35      -0.2715
     76  CB       -14.5320   29.9080  102.4930 C.3    35  ALA35       0.0334
     77  N        -12.2390   32.0460  101.4830 N.am   36  THR36      -0.1951
     78  CA       -11.0800   32.8850  101.7450 C.3    36  THR36       0.1897
     79  C        -11.0770   33.3500  103.1870 C.2    36  THR36       0.2313
     80  O        -12.0620   33.9080  103.6500 O.2    36  THR36      -0.2863
     81  CB       -11.1090   34.1420  100.8330 C.3    36  THR36       0.1794
     82  OG1      -11.1540   33.7400   99.4650 O.3    36  THR36      -0.2208
     83  CG2       -9.9090   35.0530  101.0580 C.3    36  THR36       0.0378
     84  N         -8.6220   40.5290   97.7560 N.3    55  ASP55      -0.1239
     85  CA        -9.8270   39.7060   97.7800 C.3    55  ASP55       0.1674
     86  C        -10.2880   39.4530   99.2130 C.2    55  ASP55       0.2266
     87  O         -9.8060   38.5110   99.8340 O.2    55  ASP55      -0.2867
     88  CB        -9.5710   38.3850   97.0740 C.3    55  ASP55       0.1410
     89  CG       -10.7410   37.4910   97.1290 C.2    55  ASP55       0.3668
     90  OD1      -11.6690   37.8460   97.8470 O.co2  55  ASP55      -0.2456
     91  OD2      -10.7540   36.4400   96.4670 O.co2  55  ASP55      -0.2456
     92  N        -12.3120   38.0530  102.0860 N.3    57  GLY57      -0.1210
     93  CA       -13.1910   36.9430  102.3610 C.3    57  GLY57       0.1956
     94  C        -14.4620   37.5170  102.9330 C.2    57  GLY57       0.2612
     95  O        -14.4200   38.3950  103.7970 O.2    57  GLY57      -0.2717
     96  N        -15.5940   37.0150  102.4490 N.am   58  GLY58      -0.1942
     97  CA       -16.8810   37.5670  102.8200 C.3    58  GLY58       0.2014
     98  C        -17.6480   37.0710  104.0410 C.2    58  GLY58       0.2638
     99  O        -18.7710   37.5130  104.2450 O.2    58  GLY58      -0.2714
    100  N        -17.1080   36.1690  104.8490 N.am   59  GLN59      -0.1977
    101  CA       -17.9070   35.7180  105.9830 C.3    59  GLN59       0.1601
    102  C        -18.0620   36.8500  106.9810 C.2    59  GLN59       0.2287
    103  O        -17.1850   37.6950  107.0900 O.2    59  GLN59      -0.2864
    104  CB       -17.3280   34.4580  106.6110 C.3    59  GLN59       0.0394
    105  CG       -17.5040   33.2600  105.6930 C.3    59  GLN59       0.0908
    106  CD       -16.5150   32.1340  105.9600 C.2    59  GLN59       0.2608
    107  OE1      -15.3000   32.3160  105.8740 O.2    59  GLN59      -0.2717
    108  NE2      -17.0420   30.9520  106.2710 N.am   59  GLN59      -0.0878
    109  N        -23.7960   38.9680   90.2310 N.3   118  HIS118     -0.1226
    110  CA       -23.0760   37.7870   89.7860 C.3   118  HIS118      0.1752
    111  C        -23.8510   36.4680   89.8670 C.2   118  HIS118      0.2595
    112  O        -24.7660   36.3420   90.6550 O.2   118  HIS118     -0.2718
    113  CB       -21.7440   37.6720   90.5440 C.3   118  HIS118      0.0759
    114  CG       -20.7920   36.7120   89.9250 C.ar  118  HIS118      0.0818
    115  ND1      -20.2480   35.6540   90.6190 N.ar  118  HIS118     -0.2268
    116  CD2      -20.3100   36.6290   88.6650 C.ar  118  HIS118      0.1154
    117  CE1      -19.4530   34.9660   89.8160 C.ar  118  HIS118      0.1986
    118  NE2      -19.4780   35.5360   88.6270 N.ar  118  HIS118     -0.2212
    119  N        -23.4250   35.4770   89.0840 N.am  119  LYS119     -0.1980
    120  CA       -24.0500   34.1680   89.0500 C.3   119  LYS119      0.1596
    121  C        -25.3220   34.3230   88.2500 C.2   119  LYS119      0.2287
    122  O        -26.2960   33.6020   88.4390 O.2   119  LYS119     -0.2864
    123  CB       -24.3470   33.6440   90.4560 C.3   119  LYS119      0.0298
    124  CG       -23.1770   33.7400   91.4080 C.3   119  LYS119      0.0038
    125  CD       -23.3860   32.9850   92.7190 C.3   119  LYS119      0.0206
    126  CE       -22.4880   31.7620   92.7630 C.3   119  LYS119      0.1093
    127  NZ       -22.2200   31.3620   94.1630 N.3   119  LYS119     -0.1314
    128  N        -26.1780   33.3290   85.6270 N.3   120  ASP120     -0.1225
    129  CA       -26.5180   32.1860   84.7630 C.3   120  ASP120      0.1805
    130  C        -27.5220   31.2360   85.4430 C.2   120  ASP120      0.2597
    131  O        -28.0960   30.3390   84.7980 O.2   120  ASP120     -0.2718
    132  CB       -25.2590   31.4250   84.3510 C.3   120  ASP120      0.1424
    133  CG       -24.4920   30.9080   85.5330 C.2   120  ASP120      0.3668
    134  OD1      -23.8440   31.7190   86.2260 O.co2 120  ASP120     -0.2456
    135  OD2      -24.5480   29.6880   85.7850 O.co2 120  ASP120     -0.2456
    136  N        -27.7090   31.4470   86.7500 N.am  121  LEU121     -0.1979
    137  CA       -28.7080   30.7540   87.5630 C.3   121  LEU121      0.1596
    138  C        -30.1130   31.3610   87.4310 C.2   121  LEU121      0.2287
    139  O        -31.0630   30.8070   87.9680 O.2   121  LEU121     -0.2864
    140  CB       -28.2940   30.7730   89.0400 C.3   121  LEU121      0.0297
    141  CG       -26.9720   30.1020   89.3970 C.3   121  LEU121      0.0022
    142  CD1      -26.7720   30.1240   90.8990 C.3   121  LEU121      0.0001
    143  CD2      -26.9580   28.6930   88.8850 C.3   121  LEU121      0.0001
    144  N        -19.7490   33.2920   85.4130 N.3   155  ILE155     -0.1231
    145  CA       -18.5520   32.5020   85.2240 C.3   155  ILE155      0.1692
    146  C        -18.6150   31.6830   83.9100 C.2   155  ILE155      0.2592
    147  O        -17.5880   31.2210   83.3930 O.2   155  ILE155     -0.2718
    148  CB       -18.3540   31.5960   86.4630 C.3   155  ILE155      0.0266
    149  CG1      -17.0910   31.9810   87.1940 C.3   155  ILE155      0.0019
    150  CG2      -18.3680   30.1150   86.1360 C.3   155  ILE155      0.0020
    151  CD1      -17.2490   33.2310   87.9330 C.3   155  ILE155      0.0001
    152  N        -19.8200   31.5320   83.3590 N.am  156  TRP156     -0.1976
    153  CA       -20.0560   30.6010   82.2470 C.3   156  TRP156      0.1640
    154  C        -20.3780   31.3020   80.9140 C.2   156  TRP156      0.2290
    155  O        -20.8820   30.6670   79.9720 O.2   156  TRP156     -0.2864
    156  CB       -21.1590   29.5770   82.6150 C.3   156  TRP156      0.0576
    157  CG       -20.8790   28.8120   83.8990 C.ar  156  TRP156      0.0006
    158  CD1      -21.4160   29.0430   85.1390 C.ar  156  TRP156      0.0946
    159  CD2      -19.9830   27.7090   84.0550 C.ar  156  TRP156      0.0152
    160  NE1      -20.9000   28.1550   86.0570 N.ar  156  TRP156     -0.2442
    161  CE2      -20.0180   27.3260   85.4150 C.ar  156  TRP156      0.0810
    162  CE3      -19.1520   27.0060   83.1760 C.ar  156  TRP156      0.0012
    163  CZ2      -19.2470   26.2740   85.9120 C.ar  156  TRP156      0.0191
    164  CZ3      -18.3870   25.9660   83.6770 C.ar  156  TRP156      0.0001
    165  CH2      -18.4400   25.6100   85.0260 C.ar  156  TRP156      0.0015
@<TRIPOS>BOND
     1   155   154    2
     2   154   153    1
     3   153   156    1
     4   153   152    1
     5   156   157    1
     6   162   164   ar
     7   162   159   ar
     8   152   146   am
     9   147   146    2
    10   164   165   ar
    11   157   159   ar
    12   157   158   ar
    13   146   145    1
    14   159   161   ar
    15   132   129    1
    16   132   133    1
    17   129   130    1
    18   129   128    1
    19   131   130    2
    20   165   163   ar
    21   158   160   ar
    22   145   144    1
    23   145   148    1
    24   161   163   ar
    25   161   160   ar
    26   130   136   am
    27   133   135   ar
    28   133   134   ar
    29   150   148    1
    30   148   149    1
    31   136   137    1
    32   149   151    1
    33   138   137    1
    34   138   139    2
    35   137   140    1
    36   121   122    2
    37   121   120    1
    38   118   116   ar
    39   118   117   ar
    40   116   114   ar
    41   143   141    1
    42    48    46    1
    43   140   141    1
    44   120   119    1
    45   120   123    1
    46   119   111   am
    47    39    38    2
    48    58    57    1
    49    42    43    1
    50   141   142    1
    51    57    59    1
    52    57    56    2
    53    47    46    1
    54    55    56    1
    55    55    54    1
    56   110   111    1
    57   110   109    1
    58   110   113    1
    59   117   115   ar
    60   111   112    2
    61   114   113    1
    62   114   115   ar
    63    46    43    1
    64    38    37    1
    65   123   124    1
    66    43    44    1
    67    40    37    1
    68    40    41    1
    69    54    53    1
    70    37    36    1
    71   124   125    1
    72    49    44   am
    73    49    50    1
    74    44    45    2
    75    53    50    1
    76    33    32    2
    77    20    19    2
    78    50    51    1
    79    36    32   am
    80   125   126    1
    81   126   127    1
    82    32    31    1
    83    24    23    2
    84    67    65    1
    85    14    13    2
    86    19    18    1
    87    19    21   am
    88    51    52    2
    89    23    22    1
    90    23    30   am
    91    18    17    1
    92    22    21    1
    93    22    25    1
    94    66    65    1
    95    31    30    1
    96    31    34    1
    97    65    64    1
    98    13    17   am
    99    13    12    1
   100    64    61    1
   101    60    61    1
   102    34    35    1
   103    25    26    1
   104    61    62    1
   105    12    15    1
   106    12    11    1
   107    26    27    1
   108    10     9    2
   109    15    16    1
   110    91    89   ar
   111     9    11   am
   112     9     8    1
   113    27    28    1
   114    88    89    1
   115    88    85    1
   116    62    63    2
   117    62    68   am
   118    89    90   ar
   119    84    85    1
   120    85    86    1
   121    68    69    1
   122     8     7    1
   123    28    29    1
   124    71    70    2
   125    86    87    2
   126     7     3   am
   127    69    70    1
   128    82    81    1
   129    70    72   am
   130     4     3    2
   131     3     2    1
   132    81    83    1
   133    81    78    1
   134    72    73    1
   135     2     1    1
   136     2     5    1
   137    73    74    1
   138    73    76    1
   139    77    78    1
   140    77    74   am
   141    78    79    1
   142    74    75    2
   143    92    93    1
   144     6     5    1
   145    93    94    1
   146    96    97    1
   147    96    94   am
   148    97    98    1
   149    94    95    2
   150    79    80    2
   151    98    99    2
   152    98   100   am
   153   100   101    1
   154   105   106    1
   155   105   104    1
   156   107   106    2
   157   106   108   am
   158   101   104    1
   159   101   102    1
   160   102   103    2
