@<TRIPOS>MOLECULE
tmp/3r7xA00.pdb
 132 125 0 0 0
SMALL
GASTEIGER

@<TRIPOS>ATOM
      1  N         35.4990   -6.7490  -15.7450 N.3    11  GLU11      -0.1231
      2  CA        34.9860   -5.9480  -14.6460 C.3    11  GLU11       0.1699
      3  C         34.2530   -6.9140  -13.7370 C.2    11  GLU11       0.2592
      4  O         33.3160   -7.5760  -14.1710 O.2    11  GLU11      -0.2718
      5  CB        34.0030   -4.9120  -15.1740 C.3    11  GLU11       0.0402
      6  CG        33.4190   -4.0180  -14.1100 C.3    11  GLU11       0.1161
      7  CD        34.2770   -2.8030  -13.8670 C.2    11  GLU11       0.3649
      8  OE1       34.4240   -1.9750  -14.7950 O.co2  11  GLU11      -0.2457
      9  OE2       34.7870   -2.6620  -12.7480 O.co2  11  GLU11      -0.2457
     10  N         34.6770   -6.9930  -12.4820 N.am   12  SER12      -0.1952
     11  CA        34.0800   -7.9360  -11.5340 C.3    12  SER12       0.1924
     12  C         32.7280   -7.3960  -11.0710 C.2    12  SER12       0.2314
     13  O         32.5800   -6.1860  -10.9170 O.2    12  SER12      -0.2863
     14  CB        35.0220   -8.1400  -10.3460 C.3    12  SER12       0.2116
     15  OG        36.2700   -8.6320  -10.7970 O.3    12  SER12      -0.2180
     16  N         31.1850   -9.2870  -13.3590 N.3    14  TYR14      -0.1241
     17  CA        30.5780   -9.5380  -14.6650 C.3    14  TYR14       0.1605
     18  C         31.4500  -10.4730  -15.5230 C.2    14  TYR14       0.2264
     19  O         30.9380  -11.4130  -16.1100 O.2    14  TYR14      -0.2867
     20  CB        30.3210   -8.2150  -15.3910 C.3    14  TYR14       0.0534
     21  CG        29.5040   -7.2110  -14.5790 C.ar   14  TYR14      -0.0201
     22  CD1       28.1070   -7.2330  -14.6020 C.ar   14  TYR14      -0.0009
     23  CD2       30.1410   -6.2370  -13.8030 C.ar   14  TYR14      -0.0009
     24  CE1       27.3610   -6.3160  -13.8580 C.ar   14  TYR14       0.0417
     25  CE2       29.4080   -5.3080  -13.0500 C.ar   14  TYR14       0.0417
     26  CZ        28.0250   -5.3610  -13.0770 C.ar   14  TYR14       0.1957
     27  OH        27.3180   -4.4470  -12.3460 O.3    14  TYR14      -0.2866
     28  N         34.4260    1.2270  -22.0120 N.3    59  TYR59      -0.1241
     29  CA        32.9970    0.9750  -22.2810 C.3    59  TYR59       0.1605
     30  C         32.5290    1.5130  -23.6350 C.2    59  TYR59       0.2264
     31  O         31.9450    0.7850  -24.4300 O.2    59  TYR59      -0.2867
     32  CB        32.1100    1.4750  -21.1260 C.3    59  TYR59       0.0534
     33  CG        32.1870    0.5570  -19.9310 C.ar   59  TYR59      -0.0201
     34  CD1       33.1560    0.7410  -18.9480 C.ar   59  TYR59      -0.0009
     35  CD2       31.3420   -0.5400  -19.8230 C.ar   59  TYR59      -0.0009
     36  CE1       33.2590   -0.1270  -17.8720 C.ar   59  TYR59       0.0417
     37  CE2       31.4290   -1.4060  -18.7520 C.ar   59  TYR59       0.0417
     38  CZ        32.3900   -1.1940  -17.7850 C.ar   59  TYR59       0.1957
     39  OH        32.4740   -2.0610  -16.7260 O.3    59  TYR59      -0.2866
     40  N         28.4300   -4.8670  -18.5610 N.3    87  PRO87      -0.2102
     41  CA        27.6770   -3.8370  -17.8500 C.3    87  PRO87       0.1504
     42  C         27.7710   -2.4930  -18.5670 C.2    87  PRO87       0.2576
     43  O         28.3460   -1.5250  -18.0430 O.2    87  PRO87      -0.2718
     44  CB        28.3450   -3.8010  -16.4650 C.3    87  PRO87       0.0282
     45  CG        29.7470   -4.2960  -16.6980 C.3    87  PRO87       0.0208
     46  CD        29.5970   -5.3420  -17.7790 C.3    87  PRO87       0.0893
     47  N         27.1930   -2.4430  -19.7590 N.am   88  LEU88      -0.1966
     48  CA        27.1940   -1.2510  -20.6040 C.3    88  LEU88       0.1728
     49  C         25.9040   -0.4550  -20.4280 C.2    88  LEU88       0.2616
     50  O         24.8210   -0.9360  -20.7720 O.2    88  LEU88      -0.2715
     51  CB        27.3600   -1.6720  -22.0730 C.3    88  LEU88       0.0311
     52  CG        27.4740   -0.5860  -23.1430 C.3    88  LEU88       0.0022
     53  CD1       28.6990    0.2920  -22.9480 C.3    88  LEU88       0.0001
     54  CD2       27.5010   -1.2380  -24.5340 C.3    88  LEU88       0.0001
     55  N         26.0130    0.7580  -19.8920 N.am   89  THR89      -0.1951
     56  CA        24.8370    1.5680  -19.5870 C.3    89  THR89       0.1897
     57  C         24.1180    2.0720  -20.8390 C.2    89  THR89       0.2313
     58  O         24.7520    2.5710  -21.7740 O.2    89  THR89      -0.2863
     59  CB        25.2040    2.7730  -18.6930 C.3    89  THR89       0.1794
     60  OG1       26.0060    2.3140  -17.5950 O.3    89  THR89      -0.2208
     61  CG2       23.9460    3.4600  -18.1620 C.3    89  THR89       0.0378
     62  N         22.5130    4.6200  -22.7770 N.3    91  THR91      -0.1218
     63  CA        22.5610    6.0850  -22.8020 C.3    91  THR91       0.1862
     64  C         22.1640    6.6020  -24.1870 C.2    91  THR91       0.2287
     65  O         22.2730    5.8760  -25.1850 O.2    91  THR91      -0.2866
     66  CB        23.9650    6.6520  -22.4320 C.3    91  THR91       0.1770
     67  OG1       24.9340    6.2320  -23.4000 O.3    91  THR91      -0.2211
     68  CG2       24.4050    6.2030  -21.0210 C.3    91  THR91       0.0375
     69  N         24.9110    6.6240  -27.0780 N.3    94  ARG94      -0.1245
     70  CA        25.2190    5.2850  -27.5890 C.3    94  ARG94       0.1563
     71  C         24.0680    4.7490  -28.4320 C.2    94  ARG94       0.2260
     72  O         24.2970    4.1860  -29.4920 O.2    94  ARG94      -0.2867
     73  CB        25.5390    4.3190  -26.4480 C.3    94  ARG94       0.0307
     74  CG        26.8330    4.6550  -25.7060 C.3    94  ARG94       0.0489
     75  CD        26.9820    3.8020  -24.4720 C.3    94  ARG94       0.2205
     76  NE        28.3000    3.9720  -23.8770 N.pl3  94  ARG94      -0.0865
     77  CZ        28.5630    3.7790  -22.5950 C.cat  94  ARG94       0.5346
     78  NH1       27.5840    3.3970  -21.7740 N.pl3  94  ARG94       0.1354
     79  NH2       29.7990    3.9750  -22.1420 N.pl3  94  ARG94       0.1354
     80  N         31.3020   13.2720  -15.1160 N.3   139  GLY139     -0.1210
     81  CA        30.5220   12.1270  -15.5710 C.3   139  GLY139      0.1956
     82  C         29.0820   12.2490  -15.1420 C.2   139  GLY139      0.2612
     83  O         28.6790   13.2670  -14.5780 O.2   139  GLY139     -0.2717
     84  N         28.3180   11.1920  -15.3940 N.am  140  SER140     -0.1952
     85  CA        26.8540   11.2170  -15.2820 C.3   140  SER140      0.1924
     86  C         26.3140   11.5340  -13.8800 C.2   140  SER140      0.2314
     87  O         25.3300   12.2400  -13.7530 O.2   140  SER140     -0.2863
     88  CB        26.2570    9.8950  -15.7990 C.3   140  SER140      0.2116
     89  OG        26.7550    8.7940  -15.0550 O.3   140  SER140     -0.2180
     90  N         36.6610    5.9600   -8.9600 N.3   172  THR172     -0.1218
     91  CA        35.8150    5.1720   -8.0580 C.3   172  THR172      0.1862
     92  C         36.6240    4.6510   -6.8580 C.2   172  THR172      0.2287
     93  O         36.1880    4.7650   -5.7130 O.2   172  THR172     -0.2866
     94  CB        35.1090    4.0020   -8.7990 C.3   172  THR172      0.1770
     95  OG1       34.2140    4.5320   -9.7850 O.3   172  THR172     -0.2211
     96  CG2       34.3120    3.1260   -7.8180 C.3   172  THR172      0.0375
     97  N         27.0950    4.1400   -8.5590 N.3   191  GLU191     -0.1245
     98  CA        26.0750    3.2280   -9.0530 C.3   191  GLU191      0.1567
     99  C         25.8100    2.0930   -8.0630 C.2   191  GLU191      0.2260
    100  O         26.7360    1.5420   -7.4800 O.2   191  GLU191     -0.2867
    101  CB        26.4640    2.6640  -10.4310 C.3   191  GLU191      0.0388
    102  CG        26.4180    3.6920  -11.5620 C.3   191  GLU191      0.1160
    103  CD        25.2370    4.6730  -11.4590 C.2   191  GLU191      0.3649
    104  OE1       24.0630    4.2380  -11.3990 O.co2 191  GLU191     -0.2457
    105  OE2       25.4850    5.8940  -11.4440 O.co2 191  GLU191     -0.2457
    106  N         24.9080   -0.9840   -8.3700 N.3   193  THR193     -0.1203
    107  CA        25.5330   -2.2740   -8.6980 C.3   193  THR193      0.1994
    108  C         26.9370   -2.4020   -8.0940 C.2   193  THR193      0.2617
    109  O         27.2200   -3.3660   -7.3650 O.2   193  THR193     -0.2717
    110  CB        25.5420   -2.5430  -10.2180 C.3   193  THR193      0.1784
    111  OG1       26.1060   -1.4170  -10.9060 O.3   193  THR193     -0.2211
    112  CG2       24.1130   -2.7790  -10.7290 C.3   193  THR193      0.0376
    113  N         27.7910   -1.4140   -8.3500 N.am  194  MET194     -0.1979
    114  CA        29.1400   -1.4060   -7.7760 C.3   194  MET194      0.1605
    115  C         29.0840   -1.2910   -6.2430 C.2   194  MET194      0.2287
    116  O         29.8490   -1.9480   -5.5450 O.2   194  MET194     -0.2864
    117  CB        29.9940   -0.2920   -8.4060 C.3   194  MET194      0.0413
    118  CG        31.4480   -0.1980   -7.9340 C.3   194  MET194      0.0598
    119  SD        32.4290   -1.6850   -8.2280 S.3   194  MET194     -0.1393
    120  CE        34.1020   -1.0640   -8.1100 C.3   194  MET194      0.0692
    121  N         21.5910   -1.4690  -17.6730 N.3   218  TYR218     -0.1241
    122  CA        22.6050   -2.0260  -18.5460 C.3   218  TYR218      0.1605
    123  C         21.8710   -2.7790  -19.6390 C.2   218  TYR218      0.2264
    124  O         20.8880   -3.4630  -19.3640 O.2   218  TYR218     -0.2867
    125  CB        23.5190   -3.0200  -17.8000 C.3   218  TYR218      0.0534
    126  CG        24.3890   -2.4550  -16.6800 C.ar  218  TYR218     -0.0201
    127  CD1       24.9910   -1.1930  -16.7810 C.ar  218  TYR218     -0.0009
    128  CD2       24.6320   -3.2080  -15.5310 C.ar  218  TYR218     -0.0009
    129  CE1       25.7980   -0.6870  -15.7400 C.ar  218  TYR218      0.0417
    130  CE2       25.4420   -2.7120  -14.4920 C.ar  218  TYR218      0.0417
    131  CZ        26.0150   -1.4680  -14.6030 C.ar  218  TYR218      0.1957
    132  OH        26.8100   -1.0080  -13.5750 O.3   218  TYR218     -0.2866
@<TRIPOS>BOND
     1    72    71    2
     2    71    70    1
     3    70    69    1
     4    70    73    1
     5    73    74    1
     6    74    75    1
     7    65    64    2
     8    54    52    1
     9    75    76    1
    10    31    30    2
    11    64    63    1
    12    76    77    2
    13    30    29    1
    14    67    66    1
    15    52    53    1
    16    52    51    1
    17    63    62    1
    18    63    66    1
    19    77    79    1
    20    77    78    1
    21    66    68    1
    22    29    28    1
    23    29    32    1
    24    51    48    1
    25    58    57    2
    26    32    33    1
    27    57    56    1
    28    50    49    2
    29    48    49    1
    30    48    47    1
    31    49    55   am
    32    33    35   ar
    33    33    34   ar
    34    55    56    1
    35    35    37   ar
    36    47    42   am
    37   123   124    2
    38   123   122    1
    39    56    59    1
    40    34    36   ar
    41    37    38   ar
    42    59    61    1
    43    59    60    1
    44    42    43    2
    45    42    41    1
    46    40    41    1
    47    40    46    1
    48   122   125    1
    49   122   121    1
    50    36    38   ar
    51    41    44    1
    52   125   126    1
    53    38    39    1
    54    46    45    1
    55   127   126   ar
    56   127   129   ar
    57    45    44    1
    58   126   128   ar
    59    19    18    2
    60    88    85    1
    61    88    89    1
    62     1     2    1
    63   129   131   ar
    64    81    82    1
    65    81    80    1
    66   128   130   ar
    67    18    17    1
    68    84    85    1
    69    84    82   am
    70    20    17    1
    71    20    21    1
    72    85    86    1
    73     5     2    1
    74     5     6    1
    75    82    83    2
    76     8     7   ar
    77    17    16    1
    78     2     3    1
    79   131   130   ar
    80   131   132    1
    81    22    21   ar
    82    22    24   ar
    83    21    23   ar
    84     4     3    2
    85     6     7    1
    86    86    87    2
    87     7     9   ar
    88    24    26   ar
    89    23    25   ar
    90     3    10   am
    91    26    25   ar
    92    26    27    1
    93    10    11    1
    94   102   103    1
    95   102   101    1
    96    11    12    1
    97    11    14    1
    98   103   105   ar
    99   103   104   ar
   100    12    13    2
   101   111   110    1
   102    15    14    1
   103   112   110    1
   104   101    98    1
   105   110   107    1
   106    95    94    1
   107    98    97    1
   108    98    99    1
   109    90    91    1
   110    94    91    1
   111    94    96    1
   112   107   106    1
   113   107   108    1
   114   117   118    1
   115   117   114    1
   116   113   108   am
   117   113   114    1
   118   119   120    1
   119   119   118    1
   120   108   109    2
   121    99   100    2
   122    91    92    1
   123   114   115    1
   124    92    93    2
   125   115   116    2
