@<TRIPOS>MOLECULE
tmp/3r7yA00.pdb
 175 167 0 0 0
SMALL
GASTEIGER

@<TRIPOS>ATOM
      1  N        121.3460   56.6910  -43.5760 N.3     8  GLU8       -0.1245
      2  CA       120.9790   55.9790  -42.3650 C.3     8  GLU8        0.1567
      3  C        121.7100   54.6530  -42.2980 C.2     8  GLU8        0.2260
      4  O        122.2210   54.1530  -43.3040 O.2     8  GLU8       -0.2867
      5  CB       119.4620   55.7250  -42.3000 C.3     8  GLU8        0.0388
      6  CG       118.9700   54.5240  -43.1030 C.3     8  GLU8        0.1160
      7  CD       117.5170   54.1500  -42.7860 C.2     8  GLU8        0.3649
      8  OE1      116.6420   55.0450  -42.8710 O.co2   8  GLU8       -0.2457
      9  OE2      117.2500   52.9630  -42.4580 O.co2   8  GLU8       -0.2457
     10  N        121.4650   50.9850  -42.2060 N.3    10  ILE10      -0.1231
     11  CA       120.4260   50.0330  -42.5710 C.3    10  ILE10       0.1692
     12  C        120.4710   48.8910  -41.5780 C.2    10  ILE10       0.2593
     13  O        119.4380   48.3850  -41.1460 O.2    10  ILE10      -0.2718
     14  CB       120.6490   49.4610  -43.9870 C.3    10  ILE10       0.0266
     15  CG1      120.3550   50.5340  -45.0380 C.3    10  ILE10       0.0019
     16  CG2      119.7710   48.2540  -44.1970 C.3    10  ILE10       0.0020
     17  CD1      120.6060   50.0760  -46.4570 C.3    10  ILE10       0.0001
     18  N        121.6820   48.4880  -41.2210 N.am   11  GLY11      -0.1942
     19  CA       121.8370   47.3990  -40.2800 C.3    11  GLY11       0.2014
     20  C        123.2730   46.9460  -40.1070 C.2    11  GLY11       0.2639
     21  O        124.2150   47.5420  -40.6400 O.2    11  GLY11      -0.2714
     22  N        123.4230   45.8760  -39.3400 N.am   12  GLU12      -0.1963
     23  CA       124.7160   45.2880  -39.0480 C.3    12  GLU12       0.1733
     24  C        124.8050   44.0420  -39.9070 C.2    12  GLU12       0.2616
     25  O        124.0710   43.0820  -39.6830 O.2    12  GLU12      -0.2715
     26  CB       124.7940   44.9090  -37.5610 C.3    12  GLU12       0.0429
     27  CG       125.5340   45.8920  -36.6290 C.3    12  GLU12       0.1163
     28  CD       124.9310   47.2910  -36.5640 C.2    12  GLU12       0.3649
     29  OE1      125.3220   48.0700  -35.6630 O.co2  12  GLU12      -0.2457
     30  OE2      124.0760   47.6270  -37.4110 O.co2  12  GLU12      -0.2457
     31  N        125.6890   44.0700  -40.9030 N.am   13  GLY13      -0.1955
     32  CA       125.8470   42.9250  -41.7870 C.3    13  GLY13       0.1869
     33  C        126.6980   41.8350  -41.1640 C.2    13  GLY13       0.2309
     34  O        127.2190   42.0070  -40.0610 O.2    13  GLY13      -0.2863
     35  N        126.1710   48.3010  -42.6080 N.3    18  VAL18      -0.1245
     36  CA       125.6110   48.6150  -43.9150 C.3    18  VAL18       0.1561
     37  C        124.8500   49.9130  -43.8000 C.2    18  VAL18       0.2260
     38  O        124.0070   50.0600  -42.9230 O.2    18  VAL18      -0.2867
     39  CB       124.6290   47.5340  -44.3910 C.3    18  VAL18       0.0252
     40  CG1      124.1020   47.8890  -45.7970 C.3    18  VAL18       0.0019
     41  CG2      125.3120   46.1910  -44.4090 C.3    18  VAL18       0.0019
     42  N        123.1650   50.9460  -51.2790 N.3    31  ALA31      -0.1245
     43  CA       123.4560   50.3420  -49.9860 C.3    31  ALA31       0.1562
     44  C        124.9760   50.2420  -50.0000 C.2    31  ALA31       0.2260
     45  O        125.5670   49.7830  -50.9770 O.2    31  ALA31      -0.2867
     46  CB       122.8290   48.9490  -49.8630 C.3    31  ALA31       0.0290
     47  N        128.2680   48.7300  -48.0490 N.3    33  LYS33      -0.1245
     48  CA       128.7370   47.7460  -47.0800 C.3    33  LYS33       0.1561
     49  C        130.2400   47.8470  -46.8010 C.2    33  LYS33       0.2260
     50  O        131.0640   47.7500  -47.7070 O.2    33  LYS33      -0.2867
     51  CB       128.3840   46.3300  -47.5880 C.3    33  LYS33       0.0271
     52  CG       128.9210   45.1630  -46.7420 C.3    33  LYS33       0.0035
     53  CD       128.4130   45.2120  -45.2920 C.3    33  LYS33       0.0206
     54  CE       128.9680   44.0800  -44.4020 C.3    33  LYS33       0.1093
     55  NZ       128.2600   42.7410  -44.4950 N.3    33  LYS33      -0.1314
     56  N        120.5020   41.1750  -56.4160 N.3    60  VAL60      -0.1245
     57  CA       120.8350   42.5340  -56.0050 C.3    60  VAL60       0.1561
     58  C        122.1120   42.9290  -56.7540 C.2    60  VAL60       0.2260
     59  O        123.1400   42.3010  -56.6100 O.2    60  VAL60      -0.2867
     60  CB       121.0400   42.6080  -54.4630 C.3    60  VAL60       0.0252
     61  CG1      121.5020   44.0240  -54.0430 C.3    60  VAL60       0.0019
     62  CG2      119.6930   42.3140  -53.7650 C.3    60  VAL60       0.0019
     63  N        125.9570   48.4280  -53.4260 N.3    76  PHE76      -0.1227
     64  CA       124.8760   47.6230  -53.9650 C.3    76  PHE76       0.1736
     65  C        123.6210   48.4090  -54.2860 C.2    76  PHE76       0.2595
     66  O        123.3590   49.4620  -53.7190 O.2    76  PHE76      -0.2718
     67  CB       124.4710   46.5420  -52.9490 C.3    76  PHE76       0.0547
     68  CG       125.4090   45.3720  -52.8790 C.ar   76  PHE76      -0.0202
     69  CD1      125.4010   44.4020  -53.8810 C.ar   76  PHE76      -0.0042
     70  CD2      126.2820   45.2240  -51.8010 C.ar   76  PHE76      -0.0042
     71  CE1      126.2360   43.3020  -53.8270 C.ar   76  PHE76      -0.0003
     72  CE2      127.1390   44.1140  -51.7290 C.ar   76  PHE76      -0.0003
     73  CZ       127.1180   43.1530  -52.7400 C.ar   76  PHE76      -0.0000
     74  N        122.8390   47.8580  -55.1990 N.am   77  GLU77      -0.1965
     75  CA       121.5290   48.4090  -55.5250 C.3    77  GLU77       0.1733
     76  C        120.7800   48.4070  -54.1670 C.2    77  GLU77       0.2616
     77  O        120.9920   47.5100  -53.3390 O.2    77  GLU77      -0.2715
     78  CB       120.8500   47.4450  -56.5020 C.3    77  GLU77       0.0429
     79  CG       119.3590   47.4420  -56.4810 C.3    77  GLU77       0.1163
     80  CD       118.7560   46.3690  -57.3830 C.2    77  GLU77       0.3649
     81  OE1      117.5370   46.4570  -57.6400 O.co2  77  GLU77      -0.2457
     82  OE2      119.4690   45.4370  -57.8260 O.co2  77  GLU77      -0.2457
     83  N        119.9210   49.3980  -53.9400 N.am   78  PHE78      -0.1960
     84  CA       119.1530   49.5110  -52.7020 C.3    78  PHE78       0.1771
     85  C        117.6950   49.0970  -52.8820 C.2    78  PHE78       0.2619
     86  O        117.0610   49.4460  -53.8810 O.2    78  PHE78      -0.2715
     87  CB       119.1850   50.9680  -52.1930 C.3    78  PHE78       0.0574
     88  CG       118.2960   51.2350  -50.9850 C.ar   78  PHE78      -0.0200
     89  CD1      116.9790   51.6930  -51.1460 C.ar   78  PHE78      -0.0042
     90  CD2      118.7760   51.0190  -49.6920 C.ar   78  PHE78      -0.0042
     91  CE1      116.1620   51.9290  -50.0410 C.ar   78  PHE78      -0.0003
     92  CE2      117.9710   51.2520  -48.5740 C.ar   78  PHE78      -0.0003
     93  CZ       116.6610   51.7070  -48.7450 C.ar   78  PHE78      -0.0000
     94  N        117.1870   48.3330  -51.9200 N.am   79  LEU79      -0.1963
     95  CA       115.7880   47.9250  -51.8860 C.3    79  LEU79       0.1728
     96  C        115.3090   48.3220  -50.4980 C.2    79  LEU79       0.2616
     97  O        116.0720   48.2800  -49.5240 O.2    79  LEU79      -0.2715
     98  CB       115.6320   46.4260  -52.1070 C.3    79  LEU79       0.0311
     99  CG       115.6880   46.0800  -53.5940 C.3    79  LEU79       0.0022
    100  CD1      117.1250   45.7310  -53.9740 C.3    79  LEU79       0.0001
    101  CD2      114.7390   44.9160  -53.9000 C.3    79  LEU79       0.0001
    102  N        114.0490   48.7110  -50.3940 N.am   80  HIS80      -0.1959
    103  CA       113.5210   49.1840  -49.1250 C.3    80  HIS80       0.1787
    104  C        113.2250   48.2070  -48.0040 C.2    80  HIS80       0.2620
    105  O        113.1620   48.6070  -46.8420 O.2    80  HIS80      -0.2715
    106  CB       112.2650   50.0070  -49.3890 C.3    80  HIS80       0.0785
    107  CG       112.5380   51.3030  -50.0860 C.ar   80  HIS80       0.0821
    108  ND1      112.6510   51.4030  -51.4610 N.ar   80  HIS80      -0.2267
    109  CD2      112.7220   52.5570  -49.5970 C.ar   80  HIS80       0.1154
    110  CE1      112.8830   52.6650  -51.7870 C.ar   80  HIS80       0.1986
    111  NE2      112.9300   53.3850  -50.6770 N.ar   80  HIS80      -0.2212
    112  N        113.0670   46.9270  -48.3090 N.am   81  GLN81      -0.1963
    113  CA       112.7060   46.0020  -47.2420 C.3    81  GLN81       0.1733
    114  C        113.3300   44.6320  -47.4230 C.2    81  GLN81       0.2616
    115  O        113.6710   44.2670  -48.5340 O.2    81  GLN81      -0.2715
    116  CB       111.1780   45.8850  -47.2320 C.3    81  GLN81       0.0408
    117  CG       110.6020   44.8950  -46.2280 C.3    81  GLN81       0.0908
    118  CD       110.8590   45.2920  -44.7860 C.2    81  GLN81       0.2608
    119  OE1      112.0080   45.4160  -44.3520 O.2    81  GLN81      -0.2717
    120  NE2      109.7830   45.4940  -44.0310 N.am   81  GLN81      -0.0878
    121  N        113.4890   43.8790  -46.3370 N.am   82  ASP82      -0.1971
    122  CA       114.0190   42.5180  -46.4510 C.3    82  ASP82       0.1709
    123  C        112.9080   41.5420  -46.0420 C.2    82  ASP82       0.2293
    124  O        111.9560   41.9260  -45.3400 O.2    82  ASP82      -0.2864
    125  CB       115.2690   42.3160  -45.5960 C.3    82  ASP82       0.1436
    126  CG       115.0100   42.5020  -44.1170 C.2    82  ASP82       0.3671
    127  OD1      114.4950   41.5690  -43.4810 O.co2  82  ASP82      -0.2456
    128  OD2      115.3180   43.5910  -43.5990 O.co2  82  ASP82      -0.2456
    129  N        111.9650   41.0640  -42.1910 N.3    85  LYS85      -0.1245
    130  CA       111.0780   42.0860  -41.6520 C.3    85  LYS85       0.1561
    131  C        109.6700   41.9640  -42.1850 C.2    85  LYS85       0.2260
    132  O        108.7130   42.1680  -41.4380 O.2    85  LYS85      -0.2867
    133  CB       111.6190   43.4960  -41.9330 C.3    85  LYS85       0.0271
    134  CG       112.8280   43.8700  -41.0900 C.3    85  LYS85       0.0035
    135  CD       113.1040   45.3730  -41.1670 C.3    85  LYS85       0.0206
    136  CE       114.4850   45.7150  -40.6330 C.3    85  LYS85       0.1093
    137  NZ       115.5550   45.2830  -41.5810 N.3    85  LYS85      -0.1314
    138  N        116.8430   37.3910  -44.1630 N.3   127  GLN127     -0.1231
    139  CA       117.4790   38.7010  -44.0670 C.3   127  GLN127      0.1698
    140  C        118.1830   39.1890  -45.3240 C.2   127  GLN127      0.2592
    141  O        118.3620   40.3970  -45.4840 O.2   127  GLN127     -0.2718
    142  CB       118.4820   38.7550  -42.8990 C.3   127  GLN127      0.0381
    143  CG       117.8520   38.8890  -41.5240 C.3   127  GLN127      0.0905
    144  CD       118.8570   39.3410  -40.4830 C.2   127  GLN127      0.2608
    145  OE1      119.9040   38.7180  -40.3030 O.2   127  GLN127     -0.2717
    146  NE2      118.5450   40.4350  -39.7920 N.am  127  GLN127     -0.0878
    147  N        118.6310   38.2880  -46.1880 N.am  128  ASN128     -0.1974
    148  CA       119.2860   38.7620  -47.4000 C.3   128  ASN128      0.1688
    149  C        118.4700   38.5680  -48.6690 C.2   128  ASN128      0.2292
    150  O        119.0240   38.5210  -49.7630 O.2   128  ASN128     -0.2864
    151  CB       120.7300   38.2190  -47.5620 C.3   128  ASN128      0.1181
    152  CG       120.8270   36.7090  -47.4570 C.2   128  ASN128      0.2629
    153  OD1      119.9740   35.9860  -47.9570 O.2   128  ASN128     -0.2716
    154  ND2      121.8960   36.2260  -46.8240 N.am  128  ASN128     -0.0877
    155  N        115.7080   40.5910  -50.5350 N.3   130  LEU130     -0.1245
    156  CA       115.1710   41.9510  -50.5150 C.3   130  LEU130      0.1561
    157  C        113.9830   42.1550  -51.4430 C.2   130  LEU130      0.2260
    158  O        113.9520   41.6050  -52.5360 O.2   130  LEU130     -0.2867
    159  CB       116.2960   42.9180  -50.8650 C.3   130  LEU130      0.0270
    160  CG       117.6070   42.6640  -50.0870 C.3   130  LEU130      0.0019
    161  CD1      118.5880   43.7720  -50.4420 C.3   130  LEU130      0.0001
    162  CD2      117.3630   42.6220  -48.5690 C.3   130  LEU130      0.0001
    163  N        120.5000   38.8330  -52.1600 N.3   140  ALA140     -0.1231
    164  CA       121.6450   39.7030  -51.8510 C.3   140  ALA140      0.1694
    165  C        122.8150   38.8580  -51.3550 C.2   140  ALA140      0.2592
    166  O        122.6030   37.8040  -50.7480 O.2   140  ALA140     -0.2718
    167  CB       121.2710   40.7080  -50.7670 C.3   140  ALA140      0.0304
    168  N        124.0330   39.3230  -51.6300 N.am  141  ASP141     -0.1974
    169  CA       125.2800   38.6730  -51.1930 C.3   141  ASP141      0.1709
    170  C        125.7130   37.3740  -51.8580 C.2   141  ASP141      0.2293
    171  O        126.4970   36.6120  -51.2850 O.2   141  ASP141     -0.2864
    172  CB       125.2540   38.5050  -49.6730 C.3   141  ASP141      0.1436
    173  CG       125.1280   39.8380  -48.9650 C.2   141  ASP141      0.3671
    174  OD1      124.7300   39.8790  -47.7840 O.co2 141  ASP141     -0.2456
    175  OD2      125.4330   40.8650  -49.6100 O.co2 141  ASP141     -0.2456
@<TRIPOS>BOND
     1    82    80   ar
     2    81    80   ar
     3    80    79    1
     4    58    59    2
     5    58    57    1
     6    78    79    1
     7    78    75    1
     8    56    57    1
     9    57    60    1
    10    75    74    1
    11    75    76    1
    12    74    65   am
    13    60    61    1
    14    60    62    1
    15    65    64    1
    16    65    66    2
    17    76    83   am
    18    76    77    2
    19   100    99    1
    20    64    63    1
    21    64    67    1
    22    83    84    1
    23   101    99    1
    24    86    85    2
    25    69    71   ar
    26    69    68   ar
    27    71    73   ar
    28    99    98    1
    29    67    68    1
    30    85    84    1
    31    85    94   am
    32    68    70   ar
    33    73    72   ar
    34    84    87    1
    35   158   157    2
    36    87    88    1
    37   163   164    1
    38    98    95    1
    39    94    95    1
    40    95    96    1
    41   170   171    2
    42   170   169    1
    43   164   165    1
    44   164   167    1
    45    70    72   ar
    46   110   108   ar
    47   110   111   ar
    48   168   165   am
    49   168   169    1
    50   108   107   ar
    51   157   156    1
    52   165   166    2
    53    42    43    1
    54   169   172    1
    55    89    88   ar
    56    89    91   ar
    57    88    90   ar
    58    45    44    2
    59   159   156    1
    60   159   160    1
    61   111   109   ar
    62   155   156    1
    63    96   102   am
    64    96    97    2
    65   161   160    1
    66   102   103    1
    67   160   162    1
    68   107   109   ar
    69   107   106    1
    70    91    93   ar
    71    44    43    1
    72    43    46    1
    73   150   149    2
    74    90    92   ar
    75   172   173    1
    76   175   173   ar
    77   106   103    1
    78   103   104    1
    79   173   174   ar
    80    93    92   ar
    81   149   148    1
    82   115   114    2
    83   112   104   am
    84   112   113    1
    85    47    48    1
    86   104   105    2
    87   153   152    2
    88    50    49    2
    89    51    48    1
    90    51    52    1
    91   151   152    1
    92   151   148    1
    93   152   154   am
    94   114   113    1
    95   114   121   am
    96   148   147    1
    97   113   116    1
    98   116   117    1
    99    48    49    1
   100    52    53    1
   101    17    15    1
   102   122   121    1
   103   122   123    1
   104   122   125    1
   105   117   118    1
   106   147   140   am
   107   123   124    2
   108    40    39    1
   109   125   126    1
   110   141   140    2
   111   140   139    1
   112    53    54    1
   113    15    14    1
   114   118   119    2
   115   118   120   am
   116    55    54    1
   117    41    39    1
   118    39    36    1
   119    16    14    1
   120   138   139    1
   121   126   128   ar
   122   126   127   ar
   123   139   142    1
   124    14    11    1
   125    36    37    1
   126    36    35    1
   127    37    38    2
   128     1     2    1
   129     4     3    2
   130     6     7    1
   131     6     5    1
   132   142   143    1
   133     8     7   ar
   134     7     9   ar
   135    11    10    1
   136    11    12    1
   137     2     5    1
   138     2     3    1
   139   129   130    1
   140   131   130    1
   141   131   132    2
   142   133   130    1
   143   133   134    1
   144    32    33    1
   145    32    31    1
   146   137   136    1
   147    12    18   am
   148    12    13    2
   149   143   144    1
   150    18    19    1
   151   135   134    1
   152   135   136    1
   153    33    34    2
   154    31    24   am
   155    21    20    2
   156   144   145    2
   157   144   146   am
   158    19    20    1
   159    20    22   am
   160    24    25    2
   161    24    23    1
   162    22    23    1
   163    23    26    1
   164    26    27    1
   165    30    28   ar
   166    27    28    1
   167    28    29   ar
