@<TRIPOS>MOLECULE
tmp/3r83A00.pdb
 184 177 0 0 0
SMALL
GASTEIGER

@<TRIPOS>ATOM
      1  N        -81.6290   98.7120   -3.3260 N.3     8  GLU8       -0.1231
      2  CA       -81.3640   97.4470   -2.6540 C.3     8  GLU8        0.1699
      3  C        -81.9080   97.4360   -1.2310 C.2     8  GLU8        0.2592
      4  O        -82.2570   98.4760   -0.6790 O.2     8  GLU8       -0.2718
      5  CB       -79.8600   97.1580   -2.6380 C.3     8  GLU8        0.0402
      6  CG       -79.0120   98.2300   -1.9770 C.3     8  GLU8        0.1161
      7  CD       -77.5270   97.9730   -2.1520 C.2     8  GLU8        0.3649
      8  OE1      -77.0850   97.8090   -3.3120 O.co2   8  GLU8       -0.2457
      9  OE2      -76.8000   97.9360   -1.1350 O.co2   8  GLU8       -0.2457
     10  N        -81.9850   96.2450   -0.6480 N.am    9  LYS9       -0.1966
     11  CA       -82.4800   96.0800    0.7120 C.3     9  LYS9        0.1728
     12  C        -81.3790   96.4560    1.7070 C.2     9  LYS9        0.2616
     13  O        -80.2310   96.0430    1.5500 O.2     9  LYS9       -0.2715
     14  CB       -82.9030   94.6200    0.9190 C.3     9  LYS9        0.0311
     15  CG       -83.4950   94.2930    2.2770 C.3     9  LYS9        0.0038
     16  CD       -83.9370   92.8310    2.3240 C.3     9  LYS9        0.0206
     17  CE       -84.4500   92.4410    3.6940 C.3     9  LYS9        0.1093
     18  NZ       -84.8280   90.9990    3.7410 N.3     9  LYS9       -0.1314
     19  N        -81.7200   97.2580    2.7130 N.am   10  ILE10      -0.1963
     20  CA       -80.7410   97.6430    3.7280 C.3    10  ILE10       0.1727
     21  C        -80.7890   96.6210    4.8570 C.2    10  ILE10       0.2617
     22  O        -79.7510   96.1730    5.3520 O.2    10  ILE10      -0.2715
     23  CB       -81.0300   99.0590    4.3070 C.3    10  ILE10       0.0290
     24  CG1      -80.7420  100.1270    3.2440 C.3    10  ILE10       0.0022
     25  CG2      -80.1580   99.3130    5.5390 C.3    10  ILE10       0.0023
     26  CD1      -81.1350  101.5470    3.6540 C.3    10  ILE10       0.0001
     27  N        -81.9990   96.2390    5.2530 N.am   11  GLY11      -0.1940
     28  CA       -82.1470   95.2690    6.3230 C.3    11  GLY11       0.2014
     29  C        -83.5740   95.1320    6.8160 C.2    11  GLY11       0.2639
     30  O        -84.5210   95.5950    6.1750 O.2    11  GLY11      -0.2714
     31  N        -83.7290   94.4820    7.9620 N.am   12  GLU12      -0.1963
     32  CA       -85.0420   94.2720    8.5550 C.3    12  GLU12       0.1733
     33  C        -85.0860   94.9750    9.8980 C.2    12  GLU12       0.2616
     34  O        -84.2860   94.6820   10.7900 O.2    12  GLU12      -0.2715
     35  CB       -85.3030   92.7690    8.7170 C.3    12  GLU12       0.0429
     36  CG       -85.2890   92.0300    7.3750 C.3    12  GLU12       0.1163
     37  CD       -85.4420   90.5320    7.5050 C.2    12  GLU12       0.3649
     38  OE1      -85.4580   89.8550    6.4550 O.co2  12  GLU12      -0.2457
     39  OE2      -85.5460   90.0290    8.6440 O.co2  12  GLU12      -0.2457
     40  N        -86.0060   95.9230   10.0330 N.am   13  GLY13      -0.1955
     41  CA       -86.1170   96.6570   11.2800 C.3    13  GLY13       0.1869
     42  C        -87.1000   96.0240   12.2460 C.2    13  GLY13       0.2309
     43  O        -87.5570   94.8980   12.0400 O.2    13  GLY13      -0.2863
     44  N        -86.6190   97.6100    5.3680 N.3    18  VAL18      -0.1245
     45  CA       -86.0140   98.9060    5.0310 C.3    18  VAL18       0.1561
     46  C        -85.2280   98.8010    3.7250 C.2    18  VAL18       0.2260
     47  O        -84.3960   97.9000    3.5530 O.2    18  VAL18      -0.2867
     48  CB       -85.0420   99.3910    6.1380 C.3    18  VAL18       0.0252
     49  CG1      -84.5710  100.8220    5.8250 C.3    18  VAL18       0.0019
     50  CG2      -85.7170   99.3280    7.5040 C.3    18  VAL18       0.0019
     51  N        -83.5540  106.4020    2.7140 N.3    31  ALA31      -0.1245
     52  CA       -83.8770  105.1240    3.3500 C.3    31  ALA31       0.1562
     53  C        -85.4070  105.1200    3.4560 C.2    31  ALA31       0.2260
     54  O        -86.0170  106.0700    3.9610 O.2    31  ALA31      -0.2867
     55  CB       -83.2450  105.0180    4.7500 C.3    31  ALA31       0.0290
     56  N        -88.6730  103.1080    4.9260 N.3    33  LYS33      -0.1245
     57  CA       -89.1300  102.1110    5.8920 C.3    33  LYS33       0.1561
     58  C        -90.6340  101.8470    5.8420 C.2    33  LYS33       0.2260
     59  O        -91.4330  102.7810    5.8500 O.2    33  LYS33      -0.2867
     60  CB       -88.7510  102.5620    7.3080 C.3    33  LYS33       0.0271
     61  CG       -89.1370  101.5820    8.4080 C.3    33  LYS33       0.0035
     62  CD       -88.6100  102.0390    9.7690 C.3    33  LYS33       0.0206
     63  CE       -87.0870  102.1140    9.7680 C.3    33  LYS33       0.1093
     64  NZ       -86.5170  102.4840   11.0930 N.3    33  LYS33      -0.1314
     65  N        -81.0210  111.6640   12.7480 N.3    60  VAL60      -0.1245
     66  CA       -81.3320  111.2770   11.3600 C.3    60  VAL60       0.1561
     67  C        -82.6340  111.9810   10.9420 C.2    60  VAL60       0.2260
     68  O        -83.6860  111.8120   11.5770 O.2    60  VAL60      -0.2867
     69  CB       -81.4860  109.7340   11.2460 C.3    60  VAL60       0.0252
     70  CG1      -81.8610  109.3290    9.8140 C.3    60  VAL60       0.0019
     71  CG2      -80.1770  109.0620   11.6460 C.3    60  VAL60       0.0019
     72  N        -86.4670  108.5440    5.2990 N.3    76  PHE76      -0.1227
     73  CA       -85.3750  109.1030    6.1070 C.3    76  PHE76       0.1736
     74  C        -84.0930  109.4100    5.3210 C.2    76  PHE76       0.2595
     75  O        -83.8540  108.8700    4.2400 O.2    76  PHE76      -0.2718
     76  CB       -84.9870  108.1040    7.2280 C.3    76  PHE76       0.0547
     77  CG       -85.9170  108.0980    8.4180 C.ar   76  PHE76      -0.0202
     78  CD1      -85.8380  109.0980    9.3880 C.ar   76  PHE76      -0.0042
     79  CD2      -86.8570  107.0810    8.5830 C.ar   76  PHE76      -0.0042
     80  CE1      -86.6810  109.0860   10.5080 C.ar   76  PHE76      -0.0003
     81  CE2      -87.7100  107.0570    9.6980 C.ar   76  PHE76      -0.0003
     82  CZ       -87.6250  108.0570   10.6620 C.ar   76  PHE76      -0.0000
     83  N        -83.2720  110.2830    5.8990 N.am   77  GLU77      -0.1965
     84  CA       -81.9600  110.6410    5.3630 C.3    77  GLU77       0.1733
     85  C        -81.1900  109.3040    5.3160 C.2    77  GLU77       0.2616
     86  O        -81.4100  108.4550    6.1770 O.2    77  GLU77      -0.2715
     87  CB       -81.2860  111.6130    6.3560 C.3    77  GLU77       0.0429
     88  CG       -79.7810  111.7590    6.2330 C.3    77  GLU77       0.1163
     89  CD       -79.1560  112.5710    7.3790 C.2    77  GLU77       0.3649
     90  OE1      -77.9440  112.8570    7.3040 O.co2  77  GLU77      -0.2457
     91  OE2      -79.8560  112.9190    8.3530 O.co2  77  GLU77      -0.2457
     92  N        -80.3190  109.1120    4.3240 N.am   78  PHE78      -0.1960
     93  CA       -79.5380  107.8730    4.1980 C.3    78  PHE78       0.1771
     94  C        -78.0770  108.0190    4.6480 C.2    78  PHE78       0.2619
     95  O        -77.4180  109.0100    4.3240 O.2    78  PHE78      -0.2715
     96  CB       -79.5710  107.3820    2.7330 C.3    78  PHE78       0.0574
     97  CG       -78.6400  106.2250    2.4440 C.ar   78  PHE78      -0.0200
     98  CD1      -77.3270  106.4530    2.0300 C.ar   78  PHE78      -0.0042
     99  CD2      -79.0630  104.9110    2.6440 C.ar   78  PHE78      -0.0042
    100  CE1      -76.4440  105.3870    1.8250 C.ar   78  PHE78      -0.0003
    101  CE2      -78.1930  103.8330    2.4460 C.ar   78  PHE78      -0.0003
    102  CZ       -76.8800  104.0690    2.0380 C.ar   78  PHE78      -0.0000
    103  N        -77.5900  107.0450    5.4230 N.am   79  LEU79      -0.1963
    104  CA       -76.1930  107.0050    5.8650 C.3    79  LEU79       0.1728
    105  C        -75.7040  105.6020    5.4900 C.2    79  LEU79       0.2616
    106  O        -76.4750  104.6370    5.5300 O.2    79  LEU79      -0.2715
    107  CB       -76.0450  107.2540    7.3800 C.3    79  LEU79       0.0311
    108  CG       -76.1410  108.7420    7.7600 C.3    79  LEU79       0.0022
    109  CD1      -77.5800  109.0780    8.1360 C.3    79  LEU79       0.0001
    110  CD2      -75.1980  109.0620    8.9260 C.3    79  LEU79       0.0001
    111  N        -74.4300  105.5000    5.1260 N.am   80  HIS80      -0.1959
    112  CA       -73.8320  104.2460    4.6680 C.3    80  HIS80       0.1787
    113  C        -73.5660  103.0850    5.6280 C.2    80  HIS80       0.2620
    114  O        -73.4730  101.9410    5.1690 O.2    80  HIS80      -0.2715
    115  CB       -72.5320  104.5600    3.9110 C.3    80  HIS80       0.0785
    116  CG       -72.7410  105.3000    2.6250 C.ar   80  HIS80       0.0821
    117  ND1      -72.9200  104.6620    1.4150 N.ar   80  HIS80      -0.2267
    118  CD2      -72.8080  106.6280    2.3620 C.ar   80  HIS80       0.1154
    119  CE1      -73.0830  105.5650    0.4620 C.ar   80  HIS80       0.1986
    120  NE2      -73.0220  106.7640    1.0110 N.ar   80  HIS80      -0.2212
    121  N        -73.4710  103.3390    6.9350 N.am   81  GLN81      -0.1963
    122  CA       -73.1690  102.2620    7.8830 C.3    81  GLN81       0.1733
    123  C        -73.7950  102.4720    9.2740 C.2    81  GLN81       0.2616
    124  O        -74.1710  103.5880    9.6160 O.2    81  GLN81      -0.2715
    125  CB       -71.6410  102.1830    8.0220 C.3    81  GLN81       0.0408
    126  CG       -71.1150  101.2340    9.0880 C.3    81  GLN81       0.0908
    127  CD       -71.3010   99.7900    8.7040 C.2    81  GLN81       0.2608
    128  OE1      -72.4170   99.3470    8.4560 O.2    81  GLN81      -0.2717
    129  NE2      -70.2020   99.0450    8.6480 N.am   81  GLN81      -0.0878
    130  N        -73.9450  101.3950   10.0500 N.am   82  ASP82      -0.1971
    131  CA       -74.4740  101.5040   11.4240 C.3    82  ASP82       0.1709
    132  C        -73.3640  101.0910   12.4100 C.2    82  ASP82       0.2293
    133  O        -72.4090  100.4070   12.0270 O.2    82  ASP82      -0.2864
    134  CB       -75.7540  100.6560   11.6200 C.3    82  ASP82       0.1436
    135  CG       -75.5330   99.1690   11.4030 C.2    82  ASP82       0.3671
    136  OD1      -75.0180   98.4900   12.3200 O.co2  82  ASP82      -0.2456
    137  OD2      -75.8840   98.6830   10.3080 O.co2  82  ASP82      -0.2456
    138  N        -72.3540   97.1750   12.9000 N.3    85  LYS85      -0.1245
    139  CA       -71.4550   96.6080   11.8940 C.3    85  LYS85       0.1561
    140  C        -70.0360   97.1490   12.0580 C.2    85  LYS85       0.2260
    141  O        -69.0600   96.4250   11.8560 O.2    85  LYS85      -0.2867
    142  CB       -71.9530   96.9050   10.4670 C.3    85  LYS85       0.0271
    143  CG       -73.2240   96.1550   10.0650 C.3    85  LYS85       0.0035
    144  CD       -73.5570   96.3810    8.5840 C.3    85  LYS85       0.0206
    145  CE       -74.8910   95.7550    8.1850 C.3    85  LYS85       0.1093
    146  NZ       -76.0740   96.4650    8.7750 N.3    85  LYS85      -0.1314
    147  N        -77.3970   99.2480   16.6320 N.3   127  GLN127     -0.1231
    148  CA       -78.0120   99.1200   15.3130 C.3   127  GLN127      0.1698
    149  C        -78.7540  100.3690   14.8240 C.2   127  GLN127      0.2592
    150  O        -78.9820  100.5070   13.6150 O.2   127  GLN127     -0.2718
    151  CB       -78.9610   97.9160   15.3010 C.3   127  GLN127      0.0381
    152  CG       -78.2840   96.5640   15.6040 C.3   127  GLN127      0.0905
    153  CD       -77.6900   96.4760   17.0150 C.2   127  GLN127      0.2608
    154  OE1      -78.2870   96.9210   17.9870 O.2   127  GLN127     -0.2717
    155  NE2      -76.5100   95.8800   17.1220 N.am  127  GLN127     -0.0878
    156  N        -79.1620  101.2630   15.7300 N.am  128  ASN128     -0.1974
    157  CA       -79.8320  102.4800   15.2710 C.3   128  ASN128      0.1688
    158  C        -79.0100  103.7630   15.4360 C.2   128  ASN128      0.2292
    159  O        -79.5570  104.8680   15.4780 O.2   128  ASN128     -0.2864
    160  CB       -81.2660  102.6580   15.8410 C.3   128  ASN128      0.1181
    161  CG       -81.3660  102.5320   17.3570 C.2   128  ASN128      0.2629
    162  OD1      -80.4790  102.9460   18.1030 O.2   128  ASN128     -0.2716
    163  ND2      -82.5040  101.9940   17.8190 N.am  128  ASN128     -0.0877
    164  N        -76.2090  105.6320   13.3650 N.3   130  LEU130     -0.1245
    165  CA       -75.6410  105.6210   12.0100 C.3   130  LEU130      0.1561
    166  C        -74.4350  106.5440   11.8100 C.2   130  LEU130      0.2260
    167  O        -74.3920  107.6320   12.3770 O.2   130  LEU130     -0.2867
    168  CB       -76.7540  105.9760   11.0160 C.3   130  LEU130      0.0270
    169  CG       -78.0990  105.2600   11.2670 C.3   130  LEU130      0.0019
    170  CD1      -79.0960  105.6540   10.1830 C.3   130  LEU130      0.0001
    171  CD2      -77.9020  103.7460   11.2750 C.3   130  LEU130      0.0001
    172  N        -81.0050  107.3680   15.1700 N.3   140  ALA140     -0.1231
    173  CA       -82.1710  107.0840   14.3240 C.3   140  ALA140      0.1694
    174  C        -83.3560  106.5670   15.1330 C.2   140  ALA140      0.2592
    175  O        -83.1790  105.9690   16.1920 O.2   140  ALA140     -0.2718
    176  CB       -81.8040  106.0400   13.2470 C.3   140  ALA140      0.0304
    177  N        -84.5560  106.8230   14.6150 N.am  141  ASP141     -0.1974
    178  CA       -85.8250  106.3710   15.1990 C.3   141  ASP141      0.1709
    179  C        -86.3440  107.0140   16.4860 C.2   141  ASP141      0.2293
    180  O        -87.1550  106.4160   17.2010 O.2   141  ASP141     -0.2864
    181  CB       -85.8030  104.8430   15.3470 C.3   141  ASP141      0.1436
    182  CG       -85.5580  104.1380   14.0230 C.2   141  ASP141      0.3671
    183  OD1      -85.9550  104.6860   12.9720 O.co2 141  ASP141     -0.2456
    184  OD2      -84.9790  103.0310   14.0270 O.co2 141  ASP141     -0.2456
@<TRIPOS>BOND
     1     1     2    1
     2     8     7   ar
     3     2     5    1
     4     2     3    1
     5     5     6    1
     6     7     6    1
     7     7     9   ar
     8     3     4    2
     9     3    10   am
    10    10    11    1
    11   119   120   ar
    12   119   117   ar
    13    11    14    1
    14    11    12    1
    15    14    15    1
    16   120   118   ar
    17   117   116   ar
    18    13    12    2
    19    12    19   am
    20   100    98   ar
    21   100   102   ar
    22    98    97   ar
    23   102   101   ar
    24    15    16    1
    25    16    17    1
    26   118   116   ar
    27    97    99   ar
    28    97    96    1
    29   101    99   ar
    30   116   115    1
    31    19    20    1
    32    51    52    1
    33    96    93    1
    34    24    26    1
    35    24    23    1
    36    52    53    1
    37    52    55    1
    38    53    54    2
    39    47    46    2
    40    17    18    1
    41    46    45    1
    42    20    23    1
    43    20    21    1
    44   115   112    1
    45    93    92    1
    46    93    94    1
    47    75    74    2
    48    23    25    1
    49    92    85   am
    50    95    94    2
    51    94   103   am
    52   112   111    1
    53   112   113    1
    54    21    27   am
    55    21    22    2
    56    56    57    1
    57    45    44    1
    58    45    48    1
    59   111   105   am
    60   114   113    2
    61    27    28    1
    62    72    73    1
    63    85    84    1
    64    85    86    2
    65    74    83   am
    66    74    73    1
    67    84    83    1
    68    84    87    1
    69   103   104    1
    70   105   106    2
    71   105   104    1
    72   113   121   am
    73    49    48    1
    74    58    59    2
    75    58    57    1
    76   104   107    1
    77    57    60    1
    78    73    76    1
    79    48    50    1
    80    30    29    2
    81    88    87    1
    82    88    89    1
    83    28    29    1
    84    38    37   ar
    85    29    31   am
    86   121   122    1
    87    76    77    1
    88    90    89   ar
    89    60    61    1
    90    36    37    1
    91    36    35    1
    92    89    91   ar
    93   107   108    1
    94    37    39   ar
    95   108   109    1
    96   108   110    1
    97   122   125    1
    98   122   123    1
    99    31    32    1
   100   125   126    1
   101   145   144    1
   102   145   146    1
   103    61    62    1
   104    77    79   ar
   105    77    78   ar
   106   128   127    2
   107    32    35    1
   108    32    33    1
   109    79    81   ar
   110   144   143    1
   111   129   127   am
   112   127   126    1
   113   123   124    2
   114   123   130   am
   115    78    80   ar
   116    81    82   ar
   117    63    62    1
   118    63    64    1
   119    70    69    1
   120    33    40   am
   121    33    34    2
   122    40    41    1
   123   130   131    1
   124   143   142    1
   125   170   169    1
   126   137   135   ar
   127   142   139    1
   128    80    82   ar
   129    67    66    1
   130    67    68    2
   131   168   169    1
   132   168   165    1
   133    69    66    1
   134    69    71    1
   135   169   171    1
   136    41    42    1
   137    66    65    1
   138   135   134    1
   139   135   136   ar
   140   131   134    1
   141   131   132    1
   142   166   165    1
   143   166   167    2
   144   141   140    2
   145   139   140    1
   146   139   138    1
   147   165   164    1
   148   133   132    2
   149    43    42    2
   150   183   182   ar
   151   176   173    1
   152   150   149    2
   153   182   184   ar
   154   182   181    1
   155   173   174    1
   156   173   172    1
   157   177   174   am
   158   177   178    1
   159   149   148    1
   160   149   156   am
   161   174   175    2
   162   178   181    1
   163   178   179    1
   164   157   158    1
   165   157   156    1
   166   157   160    1
   167   151   148    1
   168   151   152    1
   169   148   147    1
   170   158   159    2
   171   152   153    1
   172   160   161    1
   173   179   180    2
   174   153   155   am
   175   153   154    2
   176   161   163   am
   177   161   162    2
