@<TRIPOS>MOLECULE
tmp/3r88B01.pdb
 116 111 0 0 0
SMALL
GASTEIGER

@<TRIPOS>ATOM
      1  N        -13.2140  -21.3600    3.4870 N.3    62  MET62      -0.1245
      2  CA       -12.4480  -22.5350    3.0910 C.3    62  MET62       0.1570
      3  C        -12.8480  -23.0140    1.7110 C.2    62  MET62       0.2261
      4  O        -11.9940  -23.3050    0.8600 O.2    62  MET62      -0.2867
      5  CB       -12.5880  -23.6830    4.0890 C.3    62  MET62       0.0387
      6  CG       -11.8290  -23.4160    5.3580 C.3    62  MET62       0.0595
      7  SD       -11.7200  -24.8420    6.4540 S.3    62  MET62      -0.1393
      8  CE       -11.0030  -26.0630    5.4610 C.3    62  MET62       0.0692
      9  N        -15.1560  -36.8410    2.1420 N.3   112  HIS112     -0.1241
     10  CA       -14.0730  -35.9870    2.5940 C.3   112  HIS112      0.1621
     11  C        -13.3540  -36.7630    3.6870 C.2   112  HIS112      0.2264
     12  O        -13.9930  -37.3340    4.5720 O.2   112  HIS112     -0.2867
     13  CB       -14.6470  -34.6850    3.1650 C.3   112  HIS112      0.0745
     14  CG       -13.6940  -33.5260    3.1190 C.ar  112  HIS112      0.0817
     15  ND1      -13.8100  -32.4320    3.9540 N.ar  112  HIS112     -0.2268
     16  CD2      -12.6170  -33.2900    2.3370 C.ar  112  HIS112      0.1154
     17  CE1      -12.8550  -31.5640    3.6710 C.ar  112  HIS112      0.1986
     18  NE2      -12.1190  -32.0600    2.6910 N.ar  112  HIS112     -0.2212
     19  N         -9.3540  -37.6000    5.9850 N.3   114  ASN114     -0.1240
     20  CA        -8.0410  -37.1610    6.4380 C.3   114  ASN114      0.1653
     21  C         -7.4100  -38.2600    7.2690 C.2   114  ASN114      0.2266
     22  O         -8.0750  -39.2510    7.6330 O.2   114  ASN114     -0.2867
     23  CB        -8.1640  -35.8720    7.2540 C.3   114  ASN114      0.1155
     24  CG        -6.9360  -34.9650    7.1180 C.2   114  ASN114      0.2627
     25  OD1       -5.8180  -35.4220    6.8290 O.2   114  ASN114     -0.2716
     26  ND2       -7.1420  -33.6720    7.3450 N.am  114  ASN114     -0.0877
     27  N         -8.4410  -34.1500    2.4830 N.3   155  ALA155     -0.1231
     28  CA        -8.5610  -32.7410    2.9030 C.3   155  ALA155      0.1679
     29  C         -7.2910  -31.8930    2.5880 C.2   155  ALA155      0.2434
     30  O         -7.4030  -30.8200    1.9740 O.2   155  ALA155     -0.2733
     31  CB        -9.0020  -32.6320    4.3740 C.3   155  ALA155      0.0304
     32  N         -6.0820  -32.3810    2.9600 N.am  156  PRO156     -0.2729
     33  CA        -4.8760  -31.6080    2.6080 C.3   156  PRO156      0.1401
     34  C         -4.6420  -31.3810    1.1030 C.2   156  PRO156      0.2269
     35  O         -4.0870  -30.3560    0.7260 O.2   156  PRO156     -0.2865
     36  CB        -3.7330  -32.4170    3.2550 C.3   156  PRO156      0.0296
     37  CG        -4.4130  -33.1670    4.3830 C.3   156  PRO156      0.0237
     38  CD        -5.7560  -33.5320    3.8300 C.3   156  PRO156      0.0939
     39  N         -7.4830  -28.6270    0.1810 N.3   159  HIS159     -0.1227
     40  CA        -7.4330  -27.3870    0.9700 C.3   159  HIS159      0.1737
     41  C         -6.0000  -26.9850    1.3090 C.2   159  HIS159      0.2438
     42  O         -5.6710  -26.7990    2.4810 O.2   159  HIS159     -0.2733
     43  CB        -8.2050  -27.5860    2.2810 C.3   159  HIS159      0.0758
     44  CG        -9.6590  -27.8730    2.0810 C.ar  159  HIS159      0.0818
     45  ND1      -10.5660  -26.8870    1.7600 N.ar  159  HIS159     -0.2268
     46  CD2      -10.3660  -29.0260    2.1710 C.ar  159  HIS159      0.1154
     47  CE1      -11.7720  -27.4190    1.6600 C.ar  159  HIS159      0.1986
     48  NE2      -11.6780  -28.7150    1.9040 N.ar  159  HIS159     -0.2212
     49  N         -5.1420  -26.8240    0.2910 N.am  160  PRO160     -0.2729
     50  CA        -3.7270  -26.5220    0.5840 C.3   160  PRO160      0.1401
     51  C         -3.5050  -25.2360    1.3790 C.2   160  PRO160      0.2269
     52  O         -2.5380  -25.1560    2.1410 O.2   160  PRO160     -0.2865
     53  CB        -3.1070  -26.3640   -0.8200 C.3   160  PRO160      0.0296
     54  CG        -4.2960  -25.9980   -1.7030 C.3   160  PRO160      0.0237
     55  CD        -5.3920  -26.8790   -1.1630 C.3   160  PRO160      0.0939
     56  N         -5.1080  -24.1760    3.7970 N.3   162  TYR162     -0.1227
     57  CA        -5.4180  -24.3930    5.2060 C.3   162  TYR162      0.1736
     58  C         -4.1770  -24.7870    6.0180 C.2   162  TYR162      0.2595
     59  O         -4.2340  -24.8850    7.2450 O.2   162  TYR162     -0.2718
     60  CB        -6.5110  -25.4580    5.3150 C.3   162  TYR162      0.0548
     61  CG        -7.0760  -25.7160    6.7020 C.ar  162  TYR162     -0.0200
     62  CD1       -8.0780  -24.9070    7.2240 C.ar  162  TYR162     -0.0009
     63  CD2       -6.6460  -26.7980    7.4610 C.ar  162  TYR162     -0.0009
     64  CE1       -8.6240  -25.1620    8.4800 C.ar  162  TYR162      0.0417
     65  CE2       -7.1920  -27.0530    8.7180 C.ar  162  TYR162      0.0417
     66  CZ        -8.1810  -26.2340    9.2040 C.ar  162  TYR162      0.1957
     67  OH        -8.7390  -26.4920   10.4370 O.3   162  TYR162     -0.2866
     68  N         -3.0440  -24.9790    5.3420 N.am  163  ARG163     -0.1980
     69  CA        -1.8430  -25.4810    6.0220 C.3   163  ARG163      0.1597
     70  C         -1.4160  -24.6840    7.2620 C.2   163  ARG163      0.2287
     71  O         -0.9280  -25.2760    8.2220 O.2   163  ARG163     -0.2864
     72  CB        -0.6750  -25.6440    5.0430 C.3   163  ARG163      0.0334
     73  CG        -0.1180  -24.3720    4.4630 C.3   163  ARG163      0.0492
     74  CD         1.0560  -24.7200    3.5250 C.3   163  ARG163      0.2205
     75  NE         1.7210  -23.5120    3.0250 N.pl3 163  ARG163     -0.0865
     76  CZ         2.8590  -22.9970    3.5020 C.cat 163  ARG163      0.5346
     77  NH1        3.5180  -23.5700    4.5010 N.pl3 163  ARG163      0.1354
     78  NH2        3.3490  -21.8880    2.9600 N.pl3 163  ARG163      0.1354
     79  N         -3.7320  -25.5530   10.0260 N.3   166  ALA166     -0.1245
     80  CA        -3.5150  -26.9560   10.4420 C.3   166  ALA166      0.1562
     81  C         -2.2900  -27.0530   11.3630 C.2   166  ALA166      0.2260
     82  O         -2.3130  -27.7600   12.3770 O.2   166  ALA166     -0.2867
     83  CB        -3.3630  -27.8560    9.2110 C.3   166  ALA166      0.0290
     84  N         -3.2910  -25.7400   14.8310 N.3   169  ARG169     -0.1231
     85  CA        -4.1340  -26.7460   15.5000 C.3   169  ARG169      0.1694
     86  C         -3.2980  -27.8520   16.1440 C.2   169  ARG169      0.2591
     87  O         -3.5640  -28.2660   17.2740 O.2   169  ARG169     -0.2718
     88  CB        -5.1200  -27.3580   14.5090 C.3   169  ARG169      0.0321
     89  CG        -6.1440  -26.3560   14.0110 C.3   169  ARG169      0.0489
     90  CD        -7.1280  -26.9790   13.0550 C.3   169  ARG169      0.2205
     91  NE        -7.8930  -28.0610   13.6790 N.pl3 169  ARG169     -0.0865
     92  CZ        -8.4590  -29.0670   13.0160 C.cat 169  ARG169      0.5346
     93  NH1       -8.3610  -29.1360   11.6850 N.pl3 169  ARG169      0.1354
     94  NH2       -9.1410  -30.0020   13.6840 N.pl3 169  ARG169      0.1354
     95  N         -2.2850  -28.3190   15.4250 N.am  170  ARG170     -0.1980
     96  CA        -1.3990  -29.3500   15.9660 C.3   170  ARG170      0.1597
     97  C         -0.6060  -28.8200   17.1520 C.2   170  ARG170      0.2287
     98  O         -0.4220  -29.5290   18.1360 O.2   170  ARG170     -0.2864
     99  CB        -0.4390  -29.8700   14.8980 C.3   170  ARG170      0.0334
    100  CG        -1.1180  -30.6860   13.8090 C.3   170  ARG170      0.0492
    101  CD        -0.0950  -31.3240   12.8730 C.3   170  ARG170      0.2205
    102  NE         0.6110  -30.3480   12.0350 N.pl3 170  ARG170     -0.0865
    103  CZ         0.2380  -29.9950   10.8030 C.cat 170  ARG170      0.5346
    104  NH1       -0.8500  -30.5280   10.2420 N.pl3 170  ARG170      0.1354
    105  NH2        0.9610  -29.1050   10.1270 N.pl3 170  ARG170      0.1354
    106  N        -14.1190  -29.8140    9.0190 N.3   182  GLY182     -0.1225
    107  CA       -13.9580  -30.9570    8.0910 C.3   182  GLY182      0.1811
    108  C        -15.2410  -31.3940    7.4100 C.2   182  GLY182      0.2280
    109  O        -15.3160  -31.4370    6.1700 O.2   182  GLY182     -0.2866
    110  N        -16.7610  -28.8040    4.8970 N.3   185  THR185     -0.1218
    111  CA       -15.9410  -28.2490    3.8050 C.3   185  THR185      0.1862
    112  C        -15.5530  -29.2830    2.7490 C.2   185  THR185      0.2287
    113  O        -14.4780  -29.1910    2.1410 O.2   185  THR185     -0.2866
    114  CB       -14.6570  -27.5620    4.3570 C.3   185  THR185      0.1770
    115  OG1      -13.9250  -28.4960    5.1660 O.3   185  THR185     -0.2211
    116  CG2      -15.0110  -26.3190    5.1790 C.3   185  THR185      0.0375
@<TRIPOS>BOND
     1    54    55    1
     2    54    53    1
     3    55    49    1
     4    53    50    1
     5    39    40    1
     6    49    50    1
     7    49    41   am
     8    50    51    1
     9    35    34    2
    10     4     3    2
    11    40    41    1
    12    40    43    1
    13    34    33    1
    14    41    42    2
    15    51    52    2
    16    47    45   ar
    17    47    48   ar
    18     3     2    1
    19    45    44   ar
    20    48    46   ar
    21    30    29    2
    22    44    46   ar
    23    44    43    1
    24   113   112    2
    25     9    10    1
    26    16    18   ar
    27    16    14   ar
    28    27    28    1
    29    29    28    1
    30    29    32   am
    31    10    13    1
    32    10    11    1
    33    33    32    1
    34    33    36    1
    35    18    17   ar
    36   112   111    1
    37    28    31    1
    38    32    38    1
    39    78    76    1
    40    75    76    2
    41    75    74    1
    42     2     1    1
    43     2     5    1
    44    14    13    1
    45    14    15   ar
    46    36    37    1
    47    76    77    1
    48    74    73    1
    49    17    15   ar
    50    11    12    2
    51    56    57    1
    52   111   114    1
    53   111   110    1
    54    38    37    1
    55     5     6    1
    56   114   115    1
    57   114   116    1
    58    73    72    1
    59    72    69    1
    60    57    60    1
    61    57    58    1
    62    60    61    1
    63    68    58   am
    64    68    69    1
    65     6     7    1
    66     8     7    1
    67    19    20    1
    68    58    59    2
    69    69    70    1
    70   109   108    2
    71    20    23    1
    72    20    21    1
    73    61    62   ar
    74    61    63   ar
    75    25    24    2
    76    24    23    1
    77    24    26   am
    78    62    64   ar
    79    70    71    2
    80    21    22    2
    81   108   107    1
    82    63    65   ar
    83   107   106    1
    84    64    66   ar
    85    65    66   ar
    86    66    67    1
    87    83    80    1
    88    79    80    1
    89   105   103    1
    90   104   103    1
    91    80    81    1
    92   103   102    2
    93    81    82    2
    94    93    92    1
    95   102   101    1
    96   101   100    1
    97    92    91    2
    98    92    94    1
    99    90    91    1
   100    90    89    1
   101   100    99    1
   102    89    88    1
   103    88    85    1
   104    84    85    1
   105    99    96    1
   106    95    96    1
   107    95    86   am
   108    85    86    1
   109    96    97    1
   110    86    87    2
   111    97    98    2
