@<TRIPOS>MOLECULE
tmp/3r8aB00.pdb
 232 222 0 0 0
SMALL
GASTEIGER

@<TRIPOS>ATOM
      1  N         36.8440   -8.3110   54.3310 N.3    41  ILE41      -0.1245
      2  CA        37.8110   -7.2260   54.1650 C.3    41  ILE41       0.1561
      3  C         36.9870   -5.9310   54.2040 C.2    41  ILE41       0.2260
      4  O         36.2450   -5.6340   53.2620 O.2    41  ILE41      -0.2867
      5  CB        38.6910   -7.3860   52.8850 C.3    41  ILE41       0.0252
      6  CG1       39.5280   -8.6820   52.9480 C.3    41  ILE41       0.0019
      7  CG2       39.6070   -6.1680   52.6780 C.3    41  ILE41       0.0019
      8  CD1       39.7350   -9.3880   51.6210 C.3    41  ILE41       0.0001
      9  N         42.8820   -6.4520   55.0630 N.3    47  LEU47      -0.1245
     10  CA        43.4430   -6.8490   53.7640 C.3    47  LEU47       0.1561
     11  C         44.7970   -7.5670   53.9090 C.2    47  LEU47       0.2260
     12  O         45.0380   -8.5530   53.2080 O.2    47  LEU47      -0.2867
     13  CB        43.5670   -5.6290   52.8310 C.3    47  LEU47       0.0270
     14  CG        43.9650   -5.9260   51.3840 C.3    47  LEU47       0.0019
     15  CD1       42.9500   -5.3860   50.4150 C.3    47  LEU47       0.0001
     16  CD2       45.3470   -5.3910   51.0760 C.3    47  LEU47       0.0001
     17  N         47.2070   -3.4350   43.6440 N.3    54  ARG54      -0.1231
     18  CA        47.1260   -4.8810   43.8940 C.3    54  ARG54       0.1694
     19  C         45.6980   -5.4450   43.7670 C.2    54  ARG54       0.2591
     20  O         45.5400   -6.6450   43.5360 O.2    54  ARG54      -0.2718
     21  CB        47.7520   -5.2540   45.2460 C.3    54  ARG54       0.0321
     22  CG        49.2610   -5.4760   45.1690 C.3    54  ARG54       0.0489
     23  CD        49.8300   -6.0530   46.4540 C.3    54  ARG54       0.2205
     24  NE        49.7940   -5.0860   47.5530 N.pl3  54  ARG54      -0.0865
     25  CZ        49.4860   -5.3850   48.8100 C.cat  54  ARG54       0.5346
     26  NH1       49.1860   -6.6350   49.1490 N.pl3  54  ARG54       0.1354
     27  NH2       49.4740   -4.4400   49.7400 N.pl3  54  ARG54       0.1354
     28  N         44.6720   -4.5820   43.9150 N.am   55  ILE55      -0.1980
     29  CA        43.2560   -4.9560   43.8010 C.3    55  ILE55       0.1595
     30  C         42.8280   -4.8810   42.3270 C.2    55  ILE55       0.2287
     31  O         42.1340   -5.7810   41.8530 O.2    55  ILE55      -0.2864
     32  CB        42.3460   -4.1440   44.7790 C.3    55  ILE55       0.0276
     33  CG1       42.7410   -4.4210   46.2520 C.3    55  ILE55       0.0022
     34  CG2       40.8460   -4.4370   44.5580 C.3    55  ILE55       0.0022
     35  CD1       42.4260   -3.2950   47.2270 C.3    55  ILE55       0.0001
     36  N         44.4040   -7.6540   40.6490 N.3    58  GLY58      -0.1210
     37  CA        43.6390   -8.7790   41.1790 C.3    58  GLY58       0.1956
     38  C         42.3430   -8.9810   40.4140 C.2    58  GLY58       0.2612
     39  O         41.9380  -10.1220   40.1900 O.2    58  GLY58      -0.2717
     40  N         41.6990   -7.8660   39.9840 N.am   59  CYS59      -0.1956
     41  CA        40.4810   -7.8780   39.1730 C.3    59  CYS59       0.1843
     42  C         40.8100   -8.4230   37.7870 C.2    59  CYS59       0.2625
     43  O         40.0880   -9.2860   37.2770 O.2    59  CYS59      -0.2714
     44  CB        39.8640   -6.4850   39.0760 C.3    59  CYS59       0.0997
     45  SG        39.1390   -5.8720   40.6180 S.3    59  CYS59      -0.0797
     46  N         41.9180   -7.9180   37.1930 N.am   60  GLN60      -0.1963
     47  CA        42.3960   -8.2750   35.8600 C.3    60  GLN60       0.1733
     48  C         42.9030   -9.7050   35.7330 C.2    60  GLN60       0.2616
     49  O         42.6730  -10.3250   34.6950 O.2    60  GLN60      -0.2715
     50  CB        43.3850   -7.2340   35.3150 C.3    60  GLN60       0.0408
     51  CG        42.7460   -5.8680   35.0150 C.3    60  GLN60       0.0908
     52  CD        41.6520   -5.9110   33.9670 C.2    60  GLN60       0.2608
     53  OE1       41.8690   -6.2980   32.8100 O.2    60  GLN60      -0.2717
     54  NE2       40.4540   -5.4790   34.3460 N.am   60  GLN60      -0.0878
     55  N         43.5370  -10.2470   36.7900 N.am   61  PHE61      -0.1960
     56  CA        43.9890  -11.6370   36.8330 C.3    61  PHE61       0.1771
     57  C         42.7650  -12.5540   36.7850 C.2    61  PHE61       0.2619
     58  O         42.7740  -13.5550   36.0620 O.2    61  PHE61      -0.2715
     59  CB        44.8160  -11.9180   38.1060 C.3    61  PHE61       0.0574
     60  CG        45.1410  -13.3820   38.3580 C.ar   61  PHE61      -0.0200
     61  CD1       44.3510  -14.1540   39.2040 C.ar   61  PHE61      -0.0042
     62  CD2       46.2460  -13.9800   37.7620 C.ar   61  PHE61      -0.0042
     63  CE1       44.6440  -15.5060   39.4220 C.ar   61  PHE61      -0.0003
     64  CE2       46.5460  -15.3280   37.9930 C.ar   61  PHE61      -0.0003
     65  CZ        45.7460  -16.0800   38.8240 C.ar   61  PHE61      -0.0000
     66  N         41.7280  -12.2170   37.5840 N.am   62  ARG62      -0.1963
     67  CA        40.4840  -12.9690   37.6730 C.3    62  ARG62       0.1729
     68  C         39.6810  -12.8570   36.3730 C.2    62  ARG62       0.2616
     69  O         39.0950  -13.8510   35.9370 O.2    62  ARG62      -0.2715
     70  CB        39.6740  -12.5570   38.9330 C.3    62  ARG62       0.0348
     71  CG        38.3160  -13.2550   39.1110 C.3    62  ARG62       0.0492
     72  CD        38.3370  -14.7800   39.0920 C.3    62  ARG62       0.2205
     73  NE        37.0810  -15.2880   38.5410 N.pl3  62  ARG62      -0.0865
     74  CZ        36.8930  -16.5210   38.0840 C.cat  62  ARG62       0.5346
     75  NH1       37.8830  -17.4050   38.1080 N.pl3  62  ARG62       0.1354
     76  NH2       35.7160  -16.8780   37.5930 N.pl3  62  ARG62       0.1354
     77  N         39.6970  -11.6650   35.7370 N.am   63  SER63      -0.1950
     78  CA        39.0170  -11.4070   34.4640 C.3    63  SER63       0.1924
     79  C         39.5650  -12.3360   33.3770 C.2    63  SER63       0.2314
     80  O         38.7830  -12.9170   32.6320 O.2    63  SER63      -0.2863
     81  CB        39.1860   -9.9500   34.0450 C.3    63  SER63       0.2116
     82  OG        38.1320   -9.1620   34.5660 O.3    63  SER63      -0.2180
     83  N         41.0840  -15.2220   34.0060 N.3    65  GLU65      -0.1231
     84  CA        40.6770  -16.5750   34.4050 C.3    65  GLU65       0.1699
     85  C         39.2580  -16.8340   33.9240 C.2    65  GLU65       0.2592
     86  O         38.9670  -17.9440   33.4730 O.2    65  GLU65      -0.2718
     87  CB        40.6940  -16.7300   35.9260 C.3    65  GLU65       0.0402
     88  CG        42.0380  -17.0290   36.5520 C.3    65  GLU65       0.1161
     89  CD        41.8580  -17.5550   37.9610 C.2    65  GLU65       0.3649
     90  OE1       41.5920  -16.7420   38.8750 O.co2  65  GLU65      -0.2457
     91  OE2       41.8830  -18.7940   38.1330 O.co2  65  GLU65      -0.2457
     92  N         38.3740  -15.8040   34.0280 N.am   66  ALA66      -0.1980
     93  CA        36.9680  -15.8820   33.6300 C.3    66  ALA66       0.1597
     94  C         36.8210  -16.1290   32.1390 C.2    66  ALA66       0.2287
     95  O         36.0090  -16.9720   31.7550 O.2    66  ALA66      -0.2864
     96  CB        36.2200  -14.6150   34.0380 C.3    66  ALA66       0.0319
     97  N         31.3610  -11.2420   31.8940 N.3   100  ILE100     -0.1231
     98  CA        32.0880  -10.9940   33.1450 C.3   100  ILE100      0.1692
     99  C         31.2480  -10.1880   34.1460 C.2   100  ILE100      0.2592
    100  O         31.1150  -10.6330   35.2870 O.2   100  ILE100     -0.2718
    101  CB        33.4830  -10.3910   32.8710 C.3   100  ILE100      0.0266
    102  CG1       34.4560  -11.4760   32.3690 C.3   100  ILE100      0.0019
    103  CG2       34.0460   -9.6470   34.0940 C.3   100  ILE100      0.0020
    104  CD1       35.6460  -10.9390   31.5610 C.3   100  ILE100      0.0001
    105  N         30.6240   -9.0570   33.7030 N.am  101  TYR101     -0.1976
    106  CA        29.7760   -8.2280   34.5790 C.3   101  TYR101      0.1639
    107  C         28.4820   -8.8800   35.0130 C.2   101  TYR101      0.2290
    108  O         28.0930   -8.7180   36.1600 O.2   101  TYR101     -0.2864
    109  CB        29.6570   -6.7520   34.1330 C.3   101  TYR101      0.0560
    110  CG        31.0260   -6.1710   33.8630 C.ar  101  TYR101     -0.0198
    111  CD1       32.0790   -6.3760   34.7520 C.ar  101  TYR101     -0.0009
    112  CD2       31.3110   -5.5470   32.6540 C.ar  101  TYR101     -0.0009
    113  CE1       33.3780   -5.9840   34.4410 C.ar  101  TYR101      0.0417
    114  CE2       32.6060   -5.1330   32.3400 C.ar  101  TYR101      0.0417
    115  CZ        33.6320   -5.3420   33.2430 C.ar  101  TYR101      0.1957
    116  OH        34.9100   -4.9380   32.9510 O.3   101  TYR101     -0.2866
    117  N         28.1570  -12.1350   35.4850 N.3   103  MET103     -0.1230
    118  CA        28.5580  -13.1390   36.4590 C.3   103  MET103      0.1702
    119  C         29.1510  -12.5650   37.7420 C.2   103  MET103      0.2592
    120  O         29.1420  -13.2480   38.7660 O.2   103  MET103     -0.2718
    121  CB        29.4150  -14.2340   35.8030 C.3   103  MET103      0.0401
    122  CG        28.7220  -14.8790   34.6110 C.3   103  MET103      0.0596
    123  SD        29.5910  -16.3050   33.9240 S.3   103  MET103     -0.1393
    124  CE        28.9530  -17.5980   35.0280 C.3   103  MET103      0.0692
    125  N         29.6280  -11.3050   37.6980 N.am  104  LEU104     -0.1980
    126  CA        30.1600  -10.5810   38.8580 C.3   104  LEU104      0.1596
    127  C         28.9840  -10.2620   39.7800 C.2   104  LEU104      0.2287
    128  O         29.1170  -10.3740   41.0000 O.2   104  LEU104     -0.2864
    129  CB        30.7960   -9.2550   38.4080 C.3   104  LEU104      0.0297
    130  CG        32.1600   -8.8650   38.9640 C.3   104  LEU104      0.0022
    131  CD1       32.5740   -7.5140   38.4310 C.3   104  LEU104      0.0001
    132  CD2       32.1790   -8.8190   40.4810 C.3   104  LEU104      0.0001
    133  N         28.1350  -12.6470   42.4960 N.3   107  LEU107     -0.1245
    134  CA        29.0210  -12.6510   43.6650 C.3   107  LEU107      0.1561
    135  C         28.8270  -11.3880   44.5180 C.2   107  LEU107      0.2260
    136  O         29.4500  -11.2430   45.5790 O.2   107  LEU107     -0.2867
    137  CB        30.5070  -12.7660   43.2400 C.3   107  LEU107      0.0270
    138  CG        30.9260  -13.7680   42.1450 C.3   107  LEU107      0.0019
    139  CD1       32.4400  -13.8020   42.0110 C.3   107  LEU107      0.0001
    140  CD2       30.4190  -15.1730   42.4180 C.3   107  LEU107      0.0001
    141  N         31.2530   -7.8040   47.6780 N.3   113  VAL113     -0.1231
    142  CA        31.5010   -8.8170   46.6510 C.3   113  VAL113      0.1692
    143  C         32.3540   -9.9730   47.1670 C.2   113  VAL113      0.2592
    144  O         33.3120   -9.7440   47.9030 O.2   113  VAL113     -0.2718
    145  CB        32.0830   -8.1640   45.3460 C.3   113  VAL113      0.0266
    146  CG1       33.3830   -7.3920   45.6060 C.3   113  VAL113      0.0020
    147  CG2       32.2620   -9.1850   44.2180 C.3   113  VAL113      0.0020
    148  N         32.0100  -11.2100   46.7670 N.am  114  LEU114     -0.1966
    149  CA        32.7820  -12.4010   47.1180 C.3   114  LEU114      0.1728
    150  C         34.0730  -12.4240   46.3060 C.2   114  LEU114      0.2616
    151  O         34.0490  -12.2580   45.0860 O.2   114  LEU114     -0.2715
    152  CB        31.9850  -13.6970   46.8700 C.3   114  LEU114      0.0311
    153  CG        30.8300  -14.0080   47.8190 C.3   114  LEU114      0.0022
    154  CD1       30.0870  -15.2360   47.3620 C.3   114  LEU114      0.0001
    155  CD2       31.3200  -14.1980   49.2620 C.3   114  LEU114      0.0001
    156  N         35.2000  -12.5880   46.9970 N.am  115  ILE115     -0.1963
    157  CA        36.5260  -12.6290   46.3850 C.3   115  ILE115      0.1727
    158  C         37.2020  -13.9980   46.6540 C.2   115  ILE115      0.2617
    159  O         36.6180  -14.8390   47.3460 O.2   115  ILE115     -0.2715
    160  CB        37.3940  -11.3830   46.7850 C.3   115  ILE115      0.0290
    161  CG1       37.8560  -11.4120   48.2520 C.3   115  ILE115      0.0022
    162  CG2       36.7060  -10.0570   46.4450 C.3   115  ILE115      0.0023
    163  CD1       39.3450  -11.4670   48.4020 C.3   115  ILE115      0.0001
    164  N         38.4000  -14.2240   46.0780 N.am  116  SER116     -0.1936
    165  CA        39.2260  -15.4360   46.2160 C.3   116  SER116      0.2055
    166  C         38.4520  -16.7600   46.2300 C.2   116  SER116      0.2642
    167  O         38.6130  -17.5740   47.1430 O.2   116  SER116     -0.2714
    168  CB        40.1910  -15.3140   47.3940 C.3   116  SER116      0.2130
    169  OG        39.5050  -14.9980   48.5930 O.3   116  SER116     -0.2179
    170  N         37.6130  -16.9600   45.1950 N.am  117  GLU117     -0.1976
    171  CA        36.7510  -18.1290   44.9870 C.3   117  GLU117      0.1602
    172  C         35.7170  -18.3440   46.1220 C.2   117  GLU117      0.2287
    173  O         35.4200  -19.4770   46.5090 O.2   117  GLU117     -0.2864
    174  CB        37.5650  -19.3920   44.6210 C.3   117  GLU117      0.0415
    175  CG        36.8130  -20.3540   43.7080 C.3   117  GLU117      0.1163
    176  CD        37.4210  -20.6120   42.3420 C.2   117  GLU117      0.3649
    177  OE1       37.8000  -21.7770   42.0790 O.co2 117  GLU117     -0.2457
    178  OE2       37.4890  -19.6650   41.5240 O.co2 117  GLU117     -0.2457
    179  N         34.9340   -8.7560   50.0240 N.3   122  MET122     -0.1245
    180  CA        35.4170   -7.3810   50.0600 C.3   122  MET122      0.1570
    181  C         34.1980   -6.4890   50.0650 C.2   122  MET122      0.2261
    182  O         33.3240   -6.6390   49.2070 O.2   122  MET122     -0.2867
    183  CB        36.3030   -7.0770   48.8490 C.3   122  MET122      0.0387
    184  CG        37.2130   -5.8840   49.0610 C.3   122  MET122      0.0595
    185  SD        38.5960   -5.8290   47.8980 S.3   122  MET122     -0.1393
    186  CE        39.4870   -7.3250   48.3700 C.3   122  MET122      0.0692
    187  N         35.9840   -0.7700   49.0860 N.3   127  LEU127     -0.1245
    188  CA        36.2810   -0.5810   47.6600 C.3   127  LEU127      0.1561
    189  C         36.1020    0.8750   47.2190 C.2   127  LEU127      0.2260
    190  O         36.8810    1.3610   46.3980 O.2   127  LEU127     -0.2867
    191  CB        35.4640   -1.5410   46.7730 C.3   127  LEU127      0.0270
    192  CG        35.9520   -2.9980   46.7270 C.3   127  LEU127      0.0019
    193  CD1       34.8350   -3.9380   46.3270 C.3   127  LEU127      0.0001
    194  CD2       37.1270   -3.1600   45.7830 C.3   127  LEU127      0.0001
    195  N         35.7240    2.8620   40.2910 N.3   137  PHE137     -0.1227
    196  CA        35.7120    1.9780   39.1260 C.3   137  PHE137      0.1736
    197  C         34.8580    0.7200   39.3480 C.2   137  PHE137      0.2595
    198  O         34.2950    0.1930   38.3860 O.2   137  PHE137     -0.2718
    199  CB        37.1520    1.6660   38.6610 C.3   137  PHE137      0.0547
    200  CG        37.6990    0.2740   38.8880 C.ar  137  PHE137     -0.0202
    201  CD1       37.7560   -0.6470   37.8470 C.ar  137  PHE137     -0.0042
    202  CD2       38.2130   -0.0960   40.1260 C.ar  137  PHE137     -0.0042
    203  CE1       38.2850   -1.9260   38.0500 C.ar  137  PHE137     -0.0003
    204  CE2       38.7480   -1.3720   40.3270 C.ar  137  PHE137     -0.0003
    205  CZ        38.7730   -2.2820   39.2900 C.ar  137  PHE137     -0.0000
    206  N         34.7580    0.2570   40.6130 N.am  138  MET138     -0.1979
    207  CA        33.9600   -0.9070   41.0110 C.3   138  MET138      0.1605
    208  C         32.5130   -0.5230   41.3500 C.2   138  MET138      0.2287
    209  O         31.6160   -1.3560   41.2130 O.2   138  MET138     -0.2864
    210  CB        34.6110   -1.6500   42.1910 C.3   138  MET138      0.0413
    211  CG        35.6940   -2.6400   41.7820 C.3   138  MET138      0.0598
    212  SD        35.1690   -3.9660   40.6540 S.3   138  MET138     -0.1393
    213  CE        34.1250   -4.8980   41.7100 C.3   138  MET138      0.0692
    214  N         29.5020   -1.1650   38.8470 N.3   141  LYS141     -0.1245
    215  CA        29.1840   -2.5970   38.7810 C.3   141  LYS141      0.1561
    216  C         28.1740   -2.9210   39.8850 C.2   141  LYS141      0.2260
    217  O         27.1980   -3.6320   39.6260 O.2   141  LYS141     -0.2867
    218  CB        30.4450   -3.4910   38.9220 C.3   141  LYS141      0.0271
    219  CG        31.7300   -2.9920   38.2430 C.3   141  LYS141      0.0035
    220  CD        31.7360   -3.1450   36.7220 C.3   141  LYS141      0.0206
    221  CE        33.0410   -2.7010   36.0980 C.3   141  LYS141      0.1093
    222  NZ        33.2470   -1.2290   36.1880 N.3   141  LYS141     -0.1314
    223  N         33.8120    1.0960   31.4610 N.3   223  HIS223     -0.1241
    224  CA        34.9670    0.3530   31.9820 C.3   223  HIS223      0.1621
    225  C         36.1580    0.4790   31.0210 C.2   223  HIS223      0.2264
    226  O         37.2730    0.7300   31.4720 O.2   223  HIS223     -0.2867
    227  CB        34.6070   -1.1250   32.2150 C.3   223  HIS223      0.0745
    228  CG        35.7170   -1.9410   32.8010 C.ar  223  HIS223      0.0817
    229  ND1       35.8700   -2.0750   34.1710 N.ar  223  HIS223     -0.2268
    230  CD2       36.6890   -2.6510   32.1820 C.ar  223  HIS223      0.1154
    231  CE1       36.9270   -2.8540   34.3420 C.ar  223  HIS223      0.1986
    232  NE2       37.4520   -3.2300   33.1730 N.ar  223  HIS223     -0.2212
@<TRIPOS>BOND
     1   225   226    2
     2   225   224    1
     3   223   224    1
     4   104   102    1
     5    95    94    2
     6    97    98    1
     7   224   227    1
     8    94    93    1
     9   230   228   ar
    10   230   232   ar
    11   227   228    1
    12   114   112   ar
    13   114   115   ar
    14   102   101    1
    15    80    79    2
    16   112   110   ar
    17   228   229   ar
    18    53    52    2
    19   101    98    1
    20   101   103    1
    21   116   115    1
    22    98    99    1
    23   232   231   ar
    24   115   113   ar
    25    79    78    1
    26    86    85    2
    27    93    92    1
    28    93    96    1
    29   105    99   am
    30   105   106    1
    31   110   109    1
    32   110   111   ar
    33    85    92   am
    34    85    84    1
    35   123   122    1
    36   123   124    1
    37    52    54   am
    38    52    51    1
    39    83    84    1
    40    81    78    1
    41    81    82    1
    42   109   106    1
    43    99   100    2
    44   229   231   ar
    45    84    87    1
    46   113   111   ar
    47    78    77    1
    48   106   107    1
    49   122   121    1
    50    49    48    2
    51   107   108    2
    52    51    50    1
    53    50    47    1
    54   117   118    1
    55    48    47    1
    56    48    55   am
    57    77    68   am
    58   121   118    1
    59    47    46    1
    60    87    88    1
    61    69    68    2
    62    58    57    2
    63   221   222    1
    64   221   220    1
    65    68    67    1
    66   118   119    1
    67    88    89    1
    68   220   219    1
    69    57    56    1
    70    57    66   am
    71    55    56    1
    72    56    59    1
    73    46    42   am
    74    43    42    2
    75    66    67    1
    76    76    74    1
    77    67    70    1
    78   125   119   am
    79   125   126    1
    80   119   120    2
    81    62    64   ar
    82    62    60   ar
    83    42    41    1
    84   201   203   ar
    85   201   200   ar
    86    89    91   ar
    87    89    90   ar
    88    64    65   ar
    89   203   205   ar
    90    74    75    1
    91    74    73    2
    92    59    60    1
    93   219   218    1
    94    60    61   ar
    95   198   197    2
    96   129   126    1
    97   129   130    1
    98   131   130    1
    99    73    72    1
   100   199   200    1
   101   199   196    1
   102   215   214    1
   103   215   218    1
   104   215   216    1
   105    65    63   ar
   106   126   127    1
   107   200   202   ar
   108    70    71    1
   109   130   132    1
   110    44    41    1
   111    44    45    1
   112    72    71    1
   113   196   197    1
   114   196   195    1
   115    41    40    1
   116    61    63   ar
   117   205   204   ar
   118   197   206   am
   119   217   216    2
   120   127   128    2
   121    40    38   am
   122   202   204   ar
   123    39    38    2
   124    38    37    1
   125   206   207    1
   126    36    37    1
   127   212   213    1
   128   212   211    1
   129   207   208    1
   130   207   210    1
   131   209   208    2
   132   178   176   ar
   133   211   210    1
   134    31    30    2
   135   139   138    1
   136   177   176   ar
   137   138   140    1
   138   138   137    1
   139    30    29    1
   140   176   175    1
   141   133   134    1
   142   137   134    1
   143    20    19    2
   144    17    18    1
   145   134   135    1
   146   175   174    1
   147    19    18    1
   148    19    28   am
   149    29    28    1
   150    29    32    1
   151    18    21    1
   152   147   145    1
   153   135   136    2
   154    34    32    1
   155   174   171    1
   156    32    33    1
   157   171   170    1
   158   171   172    1
   159   151   150    2
   160    22    21    1
   161    22    23    1
   162   170   166   am
   163   145   146    1
   164   145   142    1
   165   194   192    1
   166   164   165    1
   167   164   158   am
   168   172   173    2
   169   165   166    1
   170   165   168    1
   171   166   167    2
   172    33    35    1
   173   150   156   am
   174   150   149    1
   175   193   192    1
   176   157   158    1
   177   157   160    1
   178   157   156    1
   179   190   189    2
   180   162   160    1
   181    23    24    1
   182   142   143    1
   183   142   141    1
   184   158   159    2
   185   192   191    1
   186   148   149    1
   187   148   143   am
   188   191   188    1
   189   160   161    1
   190   152   149    1
   191   152   153    1
   192   143   144    2
   193   189   188    1
   194   154   153    1
   195   168   169    1
   196    24    25    2
   197   188   187    1
   198   153   155    1
   199   185   186    1
   200   185   184    1
   201   161   163    1
   202    25    26    1
   203    25    27    1
   204   183   184    1
   205   183   180    1
   206   182   181    2
   207   179   180    1
   208   180   181    1
   209    15    14    1
   210    16    14    1
   211    14    13    1
   212     8     6    1
   213     7     5    1
   214    13    10    1
   215     5     6    1
   216     5     2    1
   217    12    11    2
   218     4     3    2
   219    10    11    1
   220    10     9    1
   221     2     3    1
   222     2     1    1
