@<TRIPOS>MOLECULE
tmp/3r8dA00.pdb
 193 184 0 0 0
SMALL
GASTEIGER

@<TRIPOS>ATOM
      1  N         -9.3820  -18.1520  -21.2760 N.3    44  LEU44      -0.1245
      2  CA        -9.9180  -17.7220  -22.5330 C.3    44  LEU44       0.1561
      3  C        -10.9000  -18.6870  -23.1280 C.2    44  LEU44       0.2260
      4  O        -11.6110  -18.3530  -24.0350 O.2    44  LEU44      -0.2867
      5  CB        -8.7910  -17.5060  -23.5080 C.3    44  LEU44       0.0270
      6  CG        -8.2920  -16.1110  -23.2680 C.3    44  LEU44       0.0019
      7  CD1       -7.7070  -16.1290  -21.9050 C.3    44  LEU44       0.0001
      8  CD2       -7.2930  -15.6970  -24.3020 C.3    44  LEU44       0.0001
      9  N        -14.5730  -17.5590  -22.3500 N.3    47  LEU47      -0.1245
     10  CA       -15.0380  -16.4160  -23.1270 C.3    47  LEU47       0.1561
     11  C        -14.6850  -16.5710  -24.6030 C.2    47  LEU47       0.2260
     12  O        -13.9860  -15.7340  -25.1740 O.2    47  LEU47      -0.2867
     13  CB       -14.4440  -15.1170  -22.5780 C.3    47  LEU47       0.0270
     14  CG       -14.9710  -14.6480  -21.2220 C.3    47  LEU47       0.0019
     15  CD1      -14.1720  -13.4440  -20.7830 C.3    47  LEU47       0.0001
     16  CD2      -16.4310  -14.2780  -21.2800 C.3    47  LEU47       0.0001
     17  N         -8.0810  -11.2440  -28.4650 N.3    78  LEU78      -0.1245
     18  CA        -7.8940  -10.4190  -27.2760 C.3    78  LEU78       0.1561
     19  C         -7.7580   -8.9430  -27.6350 C.2    78  LEU78       0.2260
     20  O         -7.9180   -8.0700  -26.7810 O.2    78  LEU78      -0.2867
     21  CB        -6.6660  -10.8840  -26.4910 C.3    78  LEU78       0.0270
     22  CG        -6.8810  -11.1670  -25.0030 C.3    78  LEU78       0.0019
     23  CD1       -8.3430  -11.4810  -24.7210 C.3    78  LEU78       0.0001
     24  CD2       -5.9850  -12.3050  -24.5370 C.3    78  LEU78       0.0001
     25  N        -11.7250   -7.7700  -28.8170 N.3    81  MET81      -0.1230
     26  CA       -12.5940   -7.8010  -27.7300 C.3    81  MET81       0.1702
     27  C        -12.2440   -6.5280  -26.9270 C.2    81  MET81       0.2592
     28  O        -13.1400   -5.8760  -26.3300 O.2    81  MET81      -0.2718
     29  CB       -12.2990   -9.1610  -27.0340 C.3    81  MET81       0.0401
     30  CG       -13.4250  -10.0380  -26.6980 C.3    81  MET81       0.0596
     31  SD       -15.0140   -9.9020  -27.6580 S.3    81  MET81      -0.1393
     32  CE       -14.6600  -11.2180  -28.8200 C.3    81  MET81       0.0692
     33  N        -10.9680   -6.1480  -26.9050 N.am   82  ALA82      -0.1980
     34  CA       -10.5100   -4.9750  -26.1210 C.3    82  ALA82       0.1597
     35  C        -10.9940   -3.7070  -26.8100 C.2    82  ALA82       0.2287
     36  O        -11.3590   -2.7770  -26.1970 O.2    82  ALA82      -0.2864
     37  CB        -9.0140   -4.9710  -26.0730 C.3    82  ALA82       0.0319
     38  N        -13.8400   -3.6950  -28.2720 N.3    84  MET84      -0.1230
     39  CA       -15.2530   -3.6500  -27.9550 C.3    84  MET84       0.1702
     40  C        -15.4600   -3.1800  -26.5770 C.2    84  MET84       0.2593
     41  O        -16.3180   -2.3480  -26.4070 O.2    84  MET84      -0.2718
     42  CB       -15.9940   -4.9300  -28.1790 C.3    84  MET84       0.0401
     43  CG       -17.4080   -4.7470  -27.7020 C.3    84  MET84       0.0596
     44  SD       -18.5350   -4.2350  -28.9110 S.3    84  MET84      -0.1393
     45  CE       -18.8550   -2.5880  -28.4040 C.3    84  MET84       0.0692
     46  N        -14.6440   -3.6470  -25.6250 N.am   85  SER85      -0.1952
     47  CA       -14.7170   -3.0860  -24.2730 C.3    85  SER85       0.1924
     48  C        -14.5640   -1.6130  -24.2050 C.2    85  SER85       0.2314
     49  O        -15.3110   -0.9370  -23.4630 O.2    85  SER85      -0.2863
     50  CB       -13.7070   -3.6760  -23.3630 C.3    85  SER85       0.2116
     51  OG       -14.1360   -4.9930  -23.1330 O.3    85  SER85      -0.2180
     52  N        -17.2220    0.9170  -22.8130 N.3    89  PHE89      -0.1241
     53  CA       -16.9060    1.6110  -21.5650 C.3    89  PHE89       0.1605
     54  C        -17.0900    3.0690  -21.8030 C.2    89  PHE89       0.2264
     55  O        -17.4150    3.7570  -20.8810 O.2    89  PHE89      -0.2867
     56  CB       -15.4960    1.4100  -21.1710 C.3    89  PHE89       0.0534
     57  CG       -15.2450    0.1360  -20.4910 C.ar   89  PHE89      -0.0203
     58  CD1      -14.0350   -0.5060  -20.6310 C.ar   89  PHE89      -0.0042
     59  CD2      -16.1780   -0.4180  -19.6410 C.ar   89  PHE89      -0.0042
     60  CE1      -13.7170   -1.6850  -19.9240 C.ar   89  PHE89      -0.0003
     61  CE2      -15.9330   -1.6550  -18.9360 C.ar   89  PHE89      -0.0003
     62  CZ       -14.6970   -2.2780  -19.0460 C.ar   89  PHE89      -0.0000
     63  N        -17.8060   -2.4870  -15.6980 N.3   119  PHE119     -0.1241
     64  CA       -18.1600   -3.7880  -16.1670 C.3   119  PHE119      0.1605
     65  C        -19.6300   -4.1140  -16.0940 C.2   119  PHE119      0.2264
     66  O        -20.1610   -4.5450  -17.0430 O.2   119  PHE119     -0.2867
     67  CB       -17.3660   -4.7960  -15.4250 C.3   119  PHE119      0.0534
     68  CG       -17.6160   -6.2150  -15.8870 C.ar  119  PHE119     -0.0203
     69  CD1      -17.0170   -6.6770  -17.0740 C.ar  119  PHE119     -0.0042
     70  CD2      -18.4260   -7.0620  -15.1500 C.ar  119  PHE119     -0.0042
     71  CE1      -17.2070   -7.9410  -17.5430 C.ar  119  PHE119     -0.0003
     72  CE2      -18.6620   -8.3120  -15.6440 C.ar  119  PHE119     -0.0003
     73  CZ       -18.0150   -8.7730  -16.8100 C.ar  119  PHE119     -0.0000
     74  N        -22.2550   -5.1430  -19.0280 N.3   123  GLN123     -0.1245
     75  CA       -22.8710   -6.4300  -19.1550 C.3   123  GLN123      0.1566
     76  C        -24.2960   -6.1020  -19.1710 C.2   123  GLN123      0.2260
     77  O        -25.0500   -6.7210  -19.8970 O.2   123  GLN123     -0.2867
     78  CB       -22.5780   -7.2520  -17.9690 C.3   123  GLN123      0.0367
     79  CG       -21.0870   -7.5030  -17.8780 C.3   123  GLN123      0.0905
     80  CD       -20.4930   -8.2940  -19.0240 C.2   123  GLN123      0.2608
     81  OE1      -21.0370   -9.2770  -19.3970 O.2   123  GLN123     -0.2717
     82  NE2      -19.3900   -7.8990  -19.5290 N.am  123  GLN123     -0.0878
     83  N        -25.3050   -4.8050  -22.5570 N.3   126  PHE126     -0.1241
     84  CA       -25.2720   -6.0070  -23.3790 C.3   126  PHE126      0.1605
     85  C        -26.3750   -7.0630  -23.2830 C.2   126  PHE126      0.2264
     86  O        -26.6740   -7.6100  -24.3310 O.2   126  PHE126     -0.2867
     87  CB       -24.0750   -6.8180  -23.0330 C.3   126  PHE126      0.0534
     88  CG       -22.8950   -6.5950  -23.9240 C.ar  126  PHE126     -0.0203
     89  CD1      -21.6300   -6.2510  -23.3650 C.ar  126  PHE126     -0.0042
     90  CD2      -22.9860   -6.6700  -25.2920 C.ar  126  PHE126     -0.0042
     91  CE1      -20.4860   -6.0260  -24.1770 C.ar  126  PHE126     -0.0003
     92  CE2      -21.8110   -6.4070  -26.1330 C.ar  126  PHE126     -0.0003
     93  CZ       -20.5740   -6.0990  -25.5690 C.ar  126  PHE126     -0.0000
     94  N        -25.0900  -12.1670  -29.3070 N.3   137  TRP137     -0.1241
     95  CA       -25.2270  -10.7570  -28.9490 C.3   137  TRP137      0.1605
     96  C        -25.2680   -9.9070  -30.2100 C.2   137  TRP137      0.2264
     97  O        -24.2360   -9.7240  -30.8560 O.2   137  TRP137     -0.2867
     98  CB       -24.0700  -10.3150  -28.0510 C.3   137  TRP137      0.0550
     99  CG       -24.2080  -10.7700  -26.6300 C.ar  137  TRP137      0.0003
    100  CD1      -24.9390  -10.1720  -25.6460 C.ar  137  TRP137      0.0946
    101  CD2      -23.5970  -11.9210  -26.0340 C.ar  137  TRP137      0.0152
    102  NE1      -24.8210  -10.8790  -24.4730 N.ar  137  TRP137     -0.2442
    103  CE2      -24.0030  -11.9570  -24.6850 C.ar  137  TRP137      0.0810
    104  CE3      -22.7470  -12.9240  -26.5100 C.ar  137  TRP137      0.0012
    105  CZ2      -23.5880  -12.9560  -23.8070 C.ar  137  TRP137      0.0191
    106  CZ3      -22.3360  -13.9150  -25.6360 C.ar  137  TRP137      0.0001
    107  CH2      -22.7560  -13.9230  -24.3000 C.ar  137  TRP137      0.0015
    108  N        -21.8530  -11.8450  -32.1490 N.3   144  TYR144     -0.1241
    109  CA       -20.9380  -12.6690  -31.3640 C.3   144  TYR144      0.1605
    110  C        -21.7340  -13.8760  -30.9210 C.2   144  TYR144      0.2264
    111  O        -22.5410  -13.7820  -29.9970 O.2   144  TYR144     -0.2867
    112  CB       -20.4190  -11.8980  -30.1510 C.3   144  TYR144      0.0534
    113  CG       -19.6240  -10.6610  -30.5050 C.ar  144  TYR144     -0.0201
    114  CD1      -20.2580   -9.4470  -30.7320 C.ar  144  TYR144     -0.0009
    115  CD2      -18.2410  -10.7080  -30.6120 C.ar  144  TYR144     -0.0009
    116  CE1      -19.5370   -8.3140  -31.0550 C.ar  144  TYR144      0.0417
    117  CE2      -17.5110   -9.5800  -30.9350 C.ar  144  TYR144      0.0417
    118  CZ       -18.1640   -8.3860  -31.1560 C.ar  144  TYR144      0.1957
    119  OH       -17.4410   -7.2600  -31.4770 O.3   144  TYR144     -0.2866
    120  N        -21.4260  -15.8250  -16.0300 N.3   156  MET156     -0.1245
    121  CA       -21.8340  -14.8900  -17.0220 C.3   156  MET156      0.1570
    122  C        -22.9610  -15.3490  -17.9270 C.2   156  MET156      0.2261
    123  O        -23.9990  -14.7340  -18.0630 O.2   156  MET156     -0.2867
    124  CB       -20.6360  -14.6990  -17.8790 C.3   156  MET156      0.0387
    125  CG       -20.8330  -13.5990  -19.0490 C.3   156  MET156      0.0595
    126  SD       -20.2980  -12.0250  -18.1010 S.3   156  MET156     -0.1393
    127  CE       -21.9230  -11.4200  -17.4750 C.3   156  MET156      0.0692
    128  N        -26.6820  -13.9050  -18.2070 N.3   160  HIS160     -0.1241
    129  CA       -27.4040  -13.3980  -19.3400 C.3   160  HIS160      0.1621
    130  C        -28.7200  -14.0670  -19.6090 C.2   160  HIS160      0.2264
    131  O        -29.6810  -13.3920  -20.0900 O.2   160  HIS160     -0.2867
    132  CB       -26.5490  -13.4360  -20.5660 C.3   160  HIS160      0.0745
    133  CG       -25.6740  -12.2710  -20.6370 C.ar  160  HIS160      0.0817
    134  ND1      -26.1480  -11.0590  -21.0310 N.ar  160  HIS160     -0.2268
    135  CD2      -24.4560  -12.0380  -20.1380 C.ar  160  HIS160      0.1154
    136  CE1      -25.2480  -10.1230  -20.8920 C.ar  160  HIS160      0.1986
    137  NE2      -24.2020  -10.6930  -20.3380 N.ar  160  HIS160     -0.2212
    138  N        -14.0670  -11.6950  -12.8380 N.3   240  HIS240     -0.1241
    139  CA       -13.5500  -11.4230  -14.1580 C.3   240  HIS240      0.1621
    140  C        -12.5640  -10.3170  -14.1880 C.2   240  HIS240      0.2264
    141  O        -11.7340  -10.2600  -15.0300 O.2   240  HIS240     -0.2867
    142  CB       -14.6590  -11.0740  -15.0960 C.3   240  HIS240      0.0745
    143  CG       -14.1950  -10.8180  -16.4890 C.ar  240  HIS240      0.0817
    144  ND1      -13.7500  -11.8180  -17.3200 N.ar  240  HIS240     -0.2268
    145  CD2      -14.1140   -9.6740  -17.2040 C.ar  240  HIS240      0.1154
    146  CE1      -13.4010  -11.2990  -18.4810 C.ar  240  HIS240      0.1986
    147  NE2      -13.6150  -10.0010  -18.4380 N.ar  240  HIS240     -0.2212
    148  N         -9.2570  -11.3400  -15.8670 N.3   244  LEU244     -0.1245
    149  CA        -8.7090  -10.4540  -16.8820 C.3   244  LEU244      0.1561
    150  C         -7.2760   -9.9710  -16.5010 C.2   244  LEU244      0.2260
    151  O         -6.3530   -9.8880  -17.2890 O.2   244  LEU244     -0.2867
    152  CB        -9.6650   -9.2950  -16.8700 C.3   244  LEU244      0.0270
    153  CG        -9.1150   -8.3080  -17.8440 C.3   244  LEU244      0.0019
    154  CD1       -9.0640   -8.8650  -19.3550 C.3   244  LEU244      0.0001
    155  CD2       -9.7790   -6.8410  -17.6390 C.3   244  LEU244      0.0001
    156  N         -4.7970  -12.7910  -17.5820 N.3   247  ILE247     -0.1245
    157  CA        -4.4600  -12.7780  -18.9560 C.3   247  ILE247      0.1561
    158  C         -3.5270  -11.6670  -19.2360 C.2   247  ILE247      0.2260
    159  O         -2.7030  -11.7790  -20.0780 O.2   247  ILE247     -0.2867
    160  CB        -5.6280  -12.5020  -19.7950 C.3   247  ILE247      0.0252
    161  CG1       -6.4920  -13.7390  -19.9270 C.3   247  ILE247      0.0019
    162  CG2       -5.1370  -12.1010  -21.1120 C.3   247  ILE247      0.0019
    163  CD1       -7.9190  -13.4400  -20.1080 C.3   247  ILE247      0.0001
    164  N         -2.9230   -6.9640  -23.3180 N.3   253  PHE253     -0.1241
    165  CA        -3.8090   -6.5270  -24.4400 C.3   253  PHE253      0.1605
    166  C         -4.7650   -5.3470  -24.0440 C.2   253  PHE253      0.2264
    167  O         -5.3150   -4.6920  -24.9330 O.2   253  PHE253     -0.2867
    168  CB        -4.6880   -7.6670  -24.7700 C.3   253  PHE253      0.0534
    169  CG        -5.5940   -8.0040  -23.6100 C.ar  253  PHE253     -0.0203
    170  CD1       -6.9180   -7.6360  -23.6090 C.ar  253  PHE253     -0.0042
    171  CD2       -5.0480   -8.5700  -22.4460 C.ar  253  PHE253     -0.0042
    172  CE1       -7.6920   -7.9370  -22.4750 C.ar  253  PHE253     -0.0003
    173  CE2       -5.8660   -8.8630  -21.3130 C.ar  253  PHE253     -0.0003
    174  CZ        -7.1700   -8.5750  -21.3700 C.ar  253  PHE253     -0.0000
    175  N         -8.8770    0.8230  -20.5930 N.3   258  MET258     -0.1245
    176  CA        -9.0610   -0.2820  -19.7170 C.3   258  MET258      0.1570
    177  C         -8.0010   -0.2780  -18.6750 C.2   258  MET258      0.2261
    178  O         -8.1860   -0.8130  -17.6270 O.2   258  MET258     -0.2867
    179  CB        -9.0090   -1.5800  -20.4690 C.3   258  MET258      0.0387
    180  CG        -9.7780   -1.6420  -21.7300 C.3   258  MET258      0.0595
    181  SD        -9.9610   -3.3340  -22.1420 S.3   258  MET258     -0.1393
    182  CE        -9.1870   -3.3620  -23.6730 C.3   258  MET258      0.0692
    183  N         -8.9390   -0.3140  -14.5840 N.3   262  PHE262     -0.1241
    184  CA        -8.4520   -1.3830  -13.7170 C.3   262  PHE262      0.1605
    185  C         -7.2980   -0.9330  -12.8940 C.2   262  PHE262      0.2264
    186  O         -6.5770   -1.7460  -12.3270 O.2   262  PHE262     -0.2867
    187  CB        -8.0760   -2.5390  -14.5350 C.3   262  PHE262      0.0534
    188  CG        -9.2440   -3.2520  -15.1320 C.ar  262  PHE262     -0.0203
    189  CD1       -9.7330   -2.9060  -16.4100 C.ar  262  PHE262     -0.0042
    190  CD2       -9.8900   -4.3080  -14.4220 C.ar  262  PHE262     -0.0042
    191  CE1      -10.8630   -3.6010  -16.9650 C.ar  262  PHE262     -0.0003
    192  CE2      -11.0400   -4.9830  -14.9560 C.ar  262  PHE262     -0.0003
    193  CZ       -11.5030   -4.6670  -16.2530 C.ar  262  PHE262     -0.0000
@<TRIPOS>BOND
     1   108   109    1
     2   119   118    1
     3   109   110    1
     4   109   112    1
     5   118   116   ar
     6   118   117   ar
     7   116   114   ar
     8   117   115   ar
     9   110   111    2
    10    97    96    2
    11   114   113   ar
    12   115   113   ar
    13   113   112    1
    14    96    95    1
    15    94    95    1
    16    95    98    1
    17    44    45    1
    18    44    43    1
    19    32    31    1
    20    25    26    1
    21    17    18    1
    22    38    39    1
    23    42    39    1
    24    42    43    1
    25    98    99    1
    26    39    40    1
    27    26    29    1
    28    26    27    1
    29    31    30    1
    30    19    18    1
    31    19    20    2
    32    18    21    1
    33    29    30    1
    34    27    33   am
    35    27    28    2
    36    33    34    1
    37    35    36    2
    38    35    34    1
    39    99   101   ar
    40    99   100   ar
    41    40    41    2
    42    40    46   am
    43   104   101   ar
    44   104   106   ar
    45    21    22    1
    46    92    93   ar
    47    92    90   ar
    48    34    37    1
    49   101   103   ar
    50   100   102   ar
    51   106   107   ar
    52    46    47    1
    53    93    91   ar
    54    90    88   ar
    55    12    11    2
    56    22    23    1
    57    22    24    1
    58   167   166    2
    59   168   165    1
    60   168   169    1
    61   103   102   ar
    62   103   105   ar
    63    11    10    1
    64   165   166    1
    65   165   164    1
    66    86    85    2
    67     8     6    1
    68   107   105   ar
    69    47    48    1
    70    47    50    1
    71    48    49    2
    72    91    89   ar
    73     4     3    2
    74    88    89   ar
    75    88    87    1
    76   182   181    1
    77   169   170   ar
    78   169   171   ar
    79   170   172   ar
    80     5     6    1
    81     5     2    1
    82    84    85    1
    83    84    87    1
    84    84    83    1
    85    50    51    1
    86     6     7    1
    87     3     2    1
    88    10    13    1
    89    10     9    1
    90    52    53    1
    91    13    14    1
    92     2     1    1
    93   172   174   ar
    94   171   173   ar
    95   181   180    1
    96    54    53    1
    97    54    55    2
    98   180   179    1
    99    53    56    1
   100   174   173   ar
   101    16    14    1
   102    14    15    1
   103    56    57    1
   104   162   160    1
   105   134   136   ar
   106   134   133   ar
   107   136   137   ar
   108   133   132    1
   109   133   135   ar
   110    58    57   ar
   111    58    60   ar
   112   175   176    1
   113   132   129    1
   114    57    59   ar
   115   179   176    1
   116   137   135   ar
   117   163   161    1
   118   131   130    2
   119   159   158    2
   120   161   160    1
   121    60    62   ar
   122    77    76    2
   123   160   157    1
   124   176   177    1
   125    59    61   ar
   126   130   129    1
   127    82    80   am
   128    81    80    2
   129   154   153    1
   130   129   128    1
   131   158   157    1
   132    76    75    1
   133    75    74    1
   134    75    78    1
   135   125   126    1
   136   125   124    1
   137    62    61   ar
   138    80    79    1
   139   157   156    1
   140   177   178    2
   141   146   147   ar
   142   146   144   ar
   143   147   145   ar
   144   126   127    1
   145   123   122    2
   146    78    79    1
   147   122   121    1
   148   124   121    1
   149   153   155    1
   150   153   152    1
   151    71    69   ar
   152    71    73   ar
   153   144   143   ar
   154   151   150    2
   155   145   143   ar
   156    69    68   ar
   157    66    65    2
   158   121   120    1
   159   191   189   ar
   160   191   193   ar
   161   149   152    1
   162   149   150    1
   163   149   148    1
   164    73    72   ar
   165   143   142    1
   166   189   188   ar
   167   193   192   ar
   168    64    65    1
   169    64    63    1
   170    64    67    1
   171    68    67    1
   172    68    70   ar
   173    72    70   ar
   174   188   187    1
   175   188   190   ar
   176   142   139    1
   177   141   140    2
   178   192   190   ar
   179   183   184    1
   180   187   184    1
   181   140   139    1
   182   139   138    1
   183   184   185    1
   184   185   186    2
