@<TRIPOS>MOLECULE
tmp/3r8lA00.pdb
 148 141 0 0 0
SMALL
GASTEIGER

@<TRIPOS>ATOM
      1  N        106.5850  130.3420  103.3310 N.3    10  ILE10      -0.1231
      2  CA       105.6950  130.8750  102.3120 C.3    10  ILE10       0.1692
      3  C        105.7720  130.0040  101.0690 C.2    10  ILE10       0.2592
      4  O        104.7880  129.8440  100.3450 O.2    10  ILE10      -0.2718
      5  CB       106.0910  132.3170  101.9410 C.3    10  ILE10       0.0266
      6  CG1      105.6940  133.2660  103.0680 C.3    10  ILE10       0.0019
      7  CG2      105.4470  132.7160  100.6300 C.3    10  ILE10       0.0020
      8  CD1      106.0500  134.7150  102.8000 C.3    10  ILE10       0.0001
      9  N        106.9540  129.4460  100.8290 N.am   11  GLY11      -0.1957
     10  CA       107.1470  128.5950   99.6760 C.3    11  GLY11       0.1869
     11  C        108.6070  128.3830   99.3420 C.2    11  GLY11       0.2309
     12  O        109.4880  128.5980  100.1750 O.2    11  GLY11      -0.2863
     13  N        110.7190  129.4400   96.0580 N.3    13  GLY13      -0.1225
     14  CA       110.9400  129.9900   94.7310 C.3    13  GLY13       0.1811
     15  C        112.0400  129.2620   93.9810 C.2    13  GLY13       0.2280
     16  O        112.7060  128.3850   94.5430 O.2    13  GLY13      -0.2866
     17  N        111.4900  130.6770  100.4520 N.3    18  VAL18      -0.1245
     18  CA       110.8500  131.9230  100.8770 C.3    18  VAL18       0.1561
     19  C        110.1800  131.7210  102.2120 C.2    18  VAL18       0.2260
     20  O        109.5100  130.7210  102.4300 O.2    18  VAL18      -0.2867
     21  CB       109.8050  132.4050   99.8400 C.3    18  VAL18       0.0252
     22  CG1      109.2120  133.7680  100.2600 C.3    18  VAL18       0.0019
     23  CG2      110.4570  132.5290   98.4870 C.3    18  VAL18       0.0019
     24  N        108.3060  138.9960  103.6480 N.3    31  ALA31      -0.1245
     25  CA       108.4880  137.7430  102.9190 C.3    31  ALA31       0.1562
     26  C        109.9940  137.7540  102.7150 C.2    31  ALA31       0.2260
     27  O        110.5340  138.6610  102.0740 O.2    31  ALA31      -0.2867
     28  CB       107.7860  137.7720  101.5670 C.3    31  ALA31       0.0290
     29  N        113.2020  135.9420  101.1260 N.3    33  LYS33      -0.1245
     30  CA       113.6940  134.9680  100.1620 C.3    33  LYS33       0.1561
     31  C        115.1890  134.7340  100.3860 C.2    33  LYS33       0.2260
     32  O        115.9730  135.6740  100.4020 O.2    33  LYS33      -0.2867
     33  CB       113.4460  135.4740   98.7430 C.3    33  LYS33       0.0271
     34  CG       113.8560  134.5120   97.6560 C.3    33  LYS33       0.0035
     35  CD       113.4050  135.0200   96.3000 C.3    33  LYS33       0.0206
     36  CE       113.6990  133.9970   95.2130 C.3    33  LYS33       0.1093
     37  NZ       113.4830  134.5510   93.8530 N.3    33  LYS33      -0.1314
     38  N        105.5180  144.7000   94.2200 N.3    60  VAL60      -0.1245
     39  CA       105.7860  144.3380   95.6140 C.3    60  VAL60       0.1561
     40  C        107.1000  145.0320   96.0090 C.2    60  VAL60       0.2260
     41  O        108.1370  144.8180   95.3950 O.2    60  VAL60      -0.2867
     42  CB       105.9140  142.7890   95.7670 C.3    60  VAL60       0.0252
     43  CG1      106.3410  142.4000   97.2000 C.3    60  VAL60       0.0019
     44  CG2      104.5820  142.1430   95.4510 C.3    60  VAL60       0.0019
     45  N        111.0920  141.3620  101.1370 N.3    76  PHE76      -0.1227
     46  CA       109.9450  141.9100  100.4330 C.3    76  PHE76       0.1736
     47  C        108.8110  142.2500  101.3910 C.2    76  PHE76       0.2595
     48  O        108.6840  141.6600  102.4720 O.2    76  PHE76      -0.2718
     49  CB       109.3950  140.8760   99.4460 C.3    76  PHE76       0.0547
     50  CG       110.3150  140.5450   98.2900 C.ar   76  PHE76      -0.0202
     51  CD1      110.3610  141.3600   97.1590 C.ar   76  PHE76      -0.0042
     52  CD2      111.0470  139.3560   98.2940 C.ar   76  PHE76      -0.0042
     53  CE1      111.1150  140.9910   96.0400 C.ar   76  PHE76      -0.0003
     54  CE2      111.8050  138.9690   97.1840 C.ar   76  PHE76      -0.0003
     55  CZ       111.8380  139.7930   96.0480 C.ar   76  PHE76      -0.0000
     56  N        107.9720  143.1890  100.9760 N.am   77  GLU77      -0.1965
     57  CA       106.8040  143.5350  101.7610 C.3    77  GLU77       0.1733
     58  C        105.9490  142.2760  101.6580 C.2    77  GLU77       0.2616
     59  O        105.9830  141.5710  100.6400 O.2    77  GLU77      -0.2715
     60  CB       106.0620  144.7330  101.1570 C.3    77  GLU77       0.0429
     61  CG       105.3380  144.4390   99.8640 C.3    77  GLU77       0.1163
     62  CD       104.3710  145.5530   99.4170 C.2    77  GLU77       0.3649
     63  OE1      103.3260  145.7650  100.0680 O.co2  77  GLU77      -0.2457
     64  OE2      104.6520  146.2100   98.4050 O.co2  77  GLU77      -0.2457
     65  N        105.1990  141.9870  102.7070 N.am   78  PHE78      -0.1960
     66  CA       104.3570  140.8050  102.7430 C.3    78  PHE78       0.1771
     67  C        102.9450  141.1050  102.2290 C.2    78  PHE78       0.2619
     68  O        102.3410  142.1140  102.5970 O.2    78  PHE78      -0.2715
     69  CB       104.2800  140.2720  104.1850 C.3    78  PHE78       0.0574
     70  CG       103.4680  139.0230  104.3370 C.ar   78  PHE78      -0.0200
     71  CD1      102.1610  139.0730  104.8090 C.ar   78  PHE78      -0.0042
     72  CD2      104.0080  137.7880  103.9850 C.ar   78  PHE78      -0.0042
     73  CE1      101.4000  137.9070  104.9280 C.ar   78  PHE78      -0.0003
     74  CE2      103.2630  136.6250  104.1010 C.ar   78  PHE78      -0.0003
     75  CZ       101.9550  136.6800  104.5720 C.ar   78  PHE78      -0.0000
     76  N        102.4450  140.2510  101.3430 N.am   79  LEU79      -0.1963
     77  CA       101.0760  140.4010  100.8480 C.3    79  LEU79       0.1728
     78  C        100.4310  139.1150  101.3070 C.2    79  LEU79       0.2616
     79  O        101.1240  138.1260  101.4620 O.2    79  LEU79      -0.2715
     80  CB       101.0370  140.5610   99.3370 C.3    79  LEU79       0.0311
     81  CG       100.8870  142.0550   99.0050 C.3    79  LEU79       0.0022
     82  CD1      102.2640  142.6670   98.8880 C.3    79  LEU79       0.0001
     83  CD2      100.1400  142.2500   97.7060 C.3    79  LEU79       0.0001
     84  N         99.1250  139.0860  101.5340 N.am   80  HIS80      -0.1959
     85  CA        98.5720  137.8530  102.0810 C.3    80  HIS80       0.1787
     86  C         98.2570  136.6800  101.2080 C.2    80  HIS80       0.2620
     87  O         97.9860  135.5910  101.7300 O.2    80  HIS80      -0.2715
     88  CB        97.3560  138.1410  102.9440 C.3    80  HIS80       0.0785
     89  CG        97.6940  138.4020  104.3780 C.ar   80  HIS80       0.0821
     90  ND1       98.2140  139.6030  104.8150 N.ar   80  HIS80      -0.2267
     91  CD2       97.5910  137.6140  105.4750 C.ar   80  HIS80       0.1154
     92  CE1       98.4100  139.5420  106.1210 C.ar   80  HIS80       0.1986
     93  NE2       98.0400  138.3470  106.5450 N.ar   80  HIS80      -0.2212
     94  N         98.3130  136.8610   99.8940 N.am   81  GLN81      -0.1963
     95  CA        98.0080  135.7350   99.0350 C.3    81  GLN81       0.1733
     96  C         98.4720  135.9320   97.6070 C.2    81  GLN81       0.2616
     97  O         98.4580  137.0530   97.0990 O.2    81  GLN81      -0.2715
     98  CB        96.4990  135.5110   99.0600 C.3    81  GLN81       0.0408
     99  CG        96.0370  134.2110   98.4560 C.3    81  GLN81       0.0908
    100  CD        94.6420  133.8690   98.9260 C.2    81  GLN81       0.2608
    101  OE1       94.4200  133.5800  100.1200 O.2    81  GLN81      -0.2717
    102  NE2       93.6890  133.9270   98.0210 N.am   81  GLN81      -0.0878
    103  N         98.8810  134.8370   96.9680 N.am   82  ASP82      -0.1971
    104  CA        99.3140  134.8960   95.5830 C.3    82  ASP82       0.1709
    105  C         98.1500  134.5130   94.6810 C.2    82  ASP82       0.2293
    106  O         97.2090  133.8360   95.1060 O.2    82  ASP82      -0.2864
    107  CB       100.5490  134.0000   95.3210 C.3    82  ASP82       0.1436
    108  CG       100.2420  132.5000   95.3690 C.2    82  ASP82       0.3671
    109  OD1       99.2660  132.0200   94.7550 O.co2  82  ASP82      -0.2456
    110  OD2      101.0180  131.7890   96.0180 O.co2  82  ASP82      -0.2456
    111  N        101.9820  132.5860   90.6620 N.3   127  GLN127     -0.1231
    112  CA       102.6780  132.5070   91.9450 C.3   127  GLN127      0.1698
    113  C        103.4950  133.7810   92.2560 C.2   127  GLN127      0.2592
    114  O        103.7670  134.0570   93.4130 O.2   127  GLN127     -0.2718
    115  CB       103.5920  131.2700   91.9560 C.3   127  GLN127      0.0381
    116  CG       102.8130  129.9620   91.8990 C.3   127  GLN127      0.0905
    117  CD       103.6820  128.7600   91.5900 C.2   127  GLN127      0.2608
    118  OE1      104.2410  128.6440   90.4980 O.2   127  GLN127     -0.2717
    119  NE2      103.7970  127.8520   92.5550 N.am  127  GLN127     -0.0878
    120  N        103.8400  134.5390   91.2090 N.am  128  ASN128     -0.1974
    121  CA       104.6260  135.8050   91.2360 C.3   128  ASN128      0.1688
    122  C        103.7400  137.0440   91.4020 C.2   128  ASN128      0.2292
    123  O        104.2470  138.1700   91.4970 O.2   128  ASN128     -0.2864
    124  CB       105.3470  135.9940   89.8710 C.3   128  ASN128      0.1181
    125  CG       106.8170  135.7580   89.9560 C.2   128  ASN128      0.2629
    126  OD1      107.4910  136.2910   90.8400 O.2   128  ASN128     -0.2716
    127  ND2      107.3400  134.9680   89.0460 N.am  128  ASN128     -0.0877
    128  N        100.9150  138.9140   93.5950 N.3   130  LEU130     -0.1245
    129  CA       100.3730  138.9520   94.9470 C.3   130  LEU130      0.1561
    130  C         99.1890  139.8620   95.0780 C.2   130  LEU130      0.2260
    131  O         99.1920  140.9680   94.5370 O.2   130  LEU130     -0.2867
    132  CB       101.4680  139.4250   95.8910 C.3   130  LEU130      0.0270
    133  CG       102.6450  138.4610   95.8830 C.3   130  LEU130      0.0019
    134  CD1      103.8030  139.1070   96.5570 C.3   130  LEU130      0.0001
    135  CD2      102.2480  137.1760   96.5870 C.3   130  LEU130      0.0001
    136  N        105.7910  140.6190   91.6290 N.3   140  ALA140     -0.1231
    137  CA       106.8620  140.3770   92.6070 C.3   140  ALA140      0.1694
    138  C        107.9830  139.6120   91.9240 C.2   140  ALA140      0.2592
    139  O        107.7080  138.7910   91.0390 O.2   140  ALA140     -0.2718
    140  CB       106.3350  139.5770   93.7930 C.3   140  ALA140      0.0304
    141  N        109.2250  139.8880   92.3440 N.am  141  ASP141     -0.1974
    142  CA       110.4470  139.2680   91.7750 C.3   141  ASP141      0.1709
    143  C        110.7840  139.9210   90.4490 C.2   141  ASP141      0.2293
    144  O        111.3240  139.2990   89.5510 O.2   141  ASP141     -0.2864
    145  CB       110.2630  137.7640   91.5540 C.3   141  ASP141      0.1436
    146  CG       110.4570  136.9810   92.8160 C.2   141  ASP141      0.3671
    147  OD1      110.0080  137.4990   93.8660 O.co2 141  ASP141     -0.2456
    148  OD2      111.0460  135.8670   92.7670 O.co2 141  ASP141     -0.2456
@<TRIPOS>BOND
     1   127   125   am
     2   144   143    2
     3   124   125    1
     4   124   121    1
     5   125   126    2
     6   143   142    1
     7   118   117    2
     8   111   112    1
     9   139   138    2
    10   120   121    1
    11   120   113   am
    12   121   122    1
    13   122   123    2
    14   145   142    1
    15   145   146    1
    16   117   116    1
    17   117   119   am
    18   136   137    1
    19   142   141    1
    20   116   115    1
    21   138   141   am
    22   138   137    1
    23   112   115    1
    24   112   113    1
    25   113   114    2
    26   137   140    1
    27   148   146   ar
    28   146   147   ar
    29   128   129    1
    30    37    36    1
    31    15    16    2
    32    15    14    1
    33    38    39    1
    34   131   130    2
    35   105   106    2
    36   105   104    1
    37    14    13    1
    38   109   108   ar
    39   129   130    1
    40   129   132    1
    41    36    35    1
    42   107   108    1
    43   107   104    1
    44   108   110   ar
    45    41    40    2
    46    44    42    1
    47   104   103    1
    48    39    42    1
    49    39    40    1
    50    42    43    1
    51   133   132    1
    52   133   134    1
    53   133   135    1
    54    53    55   ar
    55    53    51   ar
    56    55    54   ar
    57    35    34    1
    58   103    96   am
    59    97    96    2
    60    51    50   ar
    61    54    52   ar
    62    96    95    1
    63    34    33    1
    64    83    81    1
    65   102   100   am
    66    50    52   ar
    67    50    49    1
    68    64    62   ar
    69    99   100    1
    70    99    98    1
    71    23    21    1
    72    33    30    1
    73    82    81    1
    74   100   101    2
    75    81    80    1
    76    95    98    1
    77    95    94    1
    78    80    77    1
    79    11    10    1
    80    11    12    2
    81    62    61    1
    82    62    63   ar
    83    49    46    1
    84    10     9    1
    85    21    22    1
    86    21    18    1
    87    61    60    1
    88    94    86   am
    89    30    31    1
    90    30    29    1
    91     4     3    2
    92    31    32    2
    93    46    45    1
    94    46    47    1
    95    17    18    1
    96     7     5    1
    97    59    58    2
    98     9     3   am
    99    77    78    1
   100    77    76    1
   101    18    19    1
   102    56    47   am
   103    56    57    1
   104     3     2    1
   105    60    57    1
   106    86    87    2
   107    86    85    1
   108    78    79    2
   109    78    84   am
   110    76    67   am
   111    47    48    2
   112    84    85    1
   113    28    25    1
   114    58    57    1
   115    58    65   am
   116     5     2    1
   117     5     6    1
   118    27    26    2
   119    85    88    1
   120    19    20    2
   121    67    68    2
   122    67    66    1
   123     2     1    1
   124    65    66    1
   125    26    25    1
   126    66    69    1
   127     8     6    1
   128    25    24    1
   129    88    89    1
   130    72    74   ar
   131    72    70   ar
   132    74    75   ar
   133    69    70    1
   134    70    71   ar
   135    89    90   ar
   136    89    91   ar
   137    75    73   ar
   138    71    73   ar
   139    90    92   ar
   140    91    93   ar
   141    92    93   ar
