@<TRIPOS>MOLECULE
tmp/3r8mA00.pdb
 140 134 0 0 0
SMALL
GASTEIGER

@<TRIPOS>ATOM
      1  N        -93.5180  -84.6780  -78.3880 N.3    10  ILE10      -0.1245
      2  CA       -92.3000  -83.9370  -78.6810 C.3    10  ILE10       0.1561
      3  C        -92.4000  -82.4320  -78.4430 C.2    10  ILE10       0.2260
      4  O        -91.4730  -81.6900  -78.7730 O.2    10  ILE10      -0.2867
      5  CB       -91.8370  -84.1910  -80.1400 C.3    10  ILE10       0.0252
      6  CG1      -92.9350  -83.7890  -81.1230 C.3    10  ILE10       0.0019
      7  CG2      -91.4880  -85.6650  -80.3250 C.3    10  ILE10       0.0019
      8  CD1      -92.5960  -84.0990  -82.5740 C.3    10  ILE10       0.0001
      9  N        -97.7320  -81.6790  -79.9150 N.3    18  VAL18      -0.1245
     10  CA       -97.2360  -82.3400  -81.1170 C.3    18  VAL18       0.1561
     11  C        -96.6840  -83.7250  -80.7750 C.2    18  VAL18       0.2260
     12  O        -96.0630  -83.9140  -79.7360 O.2    18  VAL18      -0.2867
     13  CB       -96.1370  -81.5100  -81.8010 C.3    18  VAL18       0.0252
     14  CG1      -95.7970  -82.1300  -83.1480 C.3    18  VAL18       0.0019
     15  CG2      -96.6080  -80.0630  -81.9890 C.3    18  VAL18       0.0019
     16  N        -95.0010  -85.6430  -87.8190 N.3    31  ALA31      -0.1245
     17  CA       -95.2360  -84.8720  -86.6100 C.3    31  ALA31       0.1562
     18  C        -96.7340  -84.6460  -86.6340 C.2    31  ALA31       0.2260
     19  O        -97.2510  -84.0350  -87.5620 O.2    31  ALA31      -0.2867
     20  CB       -94.5360  -83.5460  -86.6700 C.3    31  ALA31       0.0290
     21  N        -99.8740  -82.9030  -84.8090 N.3    33  LYS33      -0.1245
     22  CA      -100.2760  -81.8410  -83.8940 C.3    33  LYS33       0.1561
     23  C       -101.7690  -81.9620  -83.6330 C.2    33  LYS33       0.2260
     24  O       -102.5730  -81.9870  -84.5720 O.2    33  LYS33      -0.2867
     25  CB       -99.9690  -80.4640  -84.5010 C.3    33  LYS33       0.0271
     26  CG      -100.2640  -79.2640  -83.5800 C.3    33  LYS33       0.0035
     27  CD      -100.0060  -77.9290  -84.2860 C.3    33  LYS33       0.0206
     28  CE      -100.1760  -76.7030  -83.3500 C.3    33  LYS33       0.1093
     29  NZ       -99.0760  -76.5340  -82.3410 N.3    33  LYS33      -0.1314
     30  N        -92.0920  -76.0880  -93.2720 N.3    60  VAL60      -0.1245
     31  CA       -92.3830  -77.4840  -92.9420 C.3    60  VAL60       0.1561
     32  C        -93.6930  -77.8400  -93.6580 C.2    60  VAL60       0.2260
     33  O        -94.7040  -77.1520  -93.5010 O.2    60  VAL60      -0.2867
     34  CB       -92.5330  -77.6840  -91.4170 C.3    60  VAL60       0.0252
     35  CG1      -92.9830  -79.0970  -91.1190 C.3    60  VAL60       0.0019
     36  CG2      -91.1800  -77.4280  -90.7200 C.3    60  VAL60       0.0019
     37  N        -97.7810  -83.1170  -90.1950 N.3    76  PHE76      -0.1227
     38  CA       -96.6440  -82.4100  -90.7630 C.3    76  PHE76       0.1736
     39  C        -95.4810  -83.3350  -91.0650 C.2    76  PHE76       0.2595
     40  O        -95.3330  -84.3850  -90.4540 O.2    76  PHE76      -0.2718
     41  CB       -96.0900  -81.4080  -89.7500 C.3    76  PHE76       0.0547
     42  CG       -96.9520  -80.2110  -89.5120 C.ar   76  PHE76      -0.0202
     43  CD1      -96.9100  -79.1300  -90.3820 C.ar   76  PHE76      -0.0042
     44  CD2      -97.7450  -80.1360  -88.3770 C.ar   76  PHE76      -0.0042
     45  CE1      -97.6450  -77.9730  -90.1230 C.ar   76  PHE76      -0.0003
     46  CE2      -98.4890  -78.9820  -88.1020 C.ar   76  PHE76      -0.0003
     47  CZ       -98.4350  -77.8990  -88.9790 C.ar   76  PHE76      -0.0000
     48  N        -94.6370  -82.9050  -91.9900 N.am   77  GLU77      -0.1965
     49  CA       -93.4240  -83.6600  -92.2690 C.3    77  GLU77       0.1733
     50  C        -92.6350  -83.5560  -90.9610 C.2    77  GLU77       0.2616
     51  O        -92.7180  -82.5460  -90.2360 O.2    77  GLU77      -0.2715
     52  CB       -92.6260  -83.0330  -93.4150 C.3    77  GLU77       0.0429
     53  CG       -92.1350  -81.6550  -93.1600 C.3    77  GLU77       0.1163
     54  CD       -91.1010  -81.2010  -94.1750 C.2    77  GLU77       0.3649
     55  OE1      -90.0340  -81.8430  -94.3000 O.co2  77  GLU77      -0.2457
     56  OE2      -91.3540  -80.1950  -94.8540 O.co2  77  GLU77      -0.2457
     57  N        -91.8850  -84.5960  -90.6490 N.am   78  PHE78      -0.1960
     58  CA       -91.0980  -84.6360  -89.4230 C.3    78  PHE78       0.1771
     59  C        -89.6490  -84.1840  -89.6450 C.2    78  PHE78       0.2619
     60  O        -89.0260  -84.5530  -90.6460 O.2    78  PHE78      -0.2715
     61  CB       -91.1040  -86.0710  -88.8730 C.3    78  PHE78       0.0574
     62  CG       -90.3170  -86.2540  -87.6100 C.ar   78  PHE78      -0.0200
     63  CD1      -89.0090  -86.7510  -87.6450 C.ar   78  PHE78      -0.0042
     64  CD2      -90.8760  -85.9230  -86.3740 C.ar   78  PHE78      -0.0042
     65  CE1      -88.2830  -86.9090  -86.4870 C.ar   78  PHE78      -0.0003
     66  CE2      -90.1470  -86.0810  -85.2000 C.ar   78  PHE78      -0.0003
     67  CZ       -88.8500  -86.5730  -85.2510 C.ar   78  PHE78      -0.0000
     68  N        -89.1550  -83.3360  -88.7440 N.am   79  LEU79      -0.1963
     69  CA       -87.7570  -82.8980  -88.7720 C.3    79  LEU79       0.1728
     70  C        -87.2170  -83.3210  -87.4070 C.2    79  LEU79       0.2616
     71  O        -87.9380  -83.3060  -86.4150 O.2    79  LEU79      -0.2715
     72  CB       -87.6280  -81.3800  -89.0060 C.3    79  LEU79       0.0311
     73  CG       -87.7620  -80.9920  -90.4850 C.3    79  LEU79       0.0022
     74  CD1      -89.2190  -80.7040  -90.7750 C.3    79  LEU79       0.0001
     75  CD2      -86.9020  -79.7480  -90.8150 C.3    79  LEU79       0.0001
     76  N        -85.9400  -83.6920  -87.3400 N.am   80  HIS80      -0.1959
     77  CA       -85.3930  -84.2120  -86.0920 C.3    80  HIS80       0.1787
     78  C        -85.0690  -83.3200  -84.9330 C.2    80  HIS80       0.2620
     79  O        -84.9160  -83.8120  -83.8070 O.2    80  HIS80      -0.2715
     80  CB       -84.1720  -85.0720  -86.3800 C.3    80  HIS80       0.0785
     81  CG       -84.5140  -86.4230  -86.9170 C.ar   80  HIS80       0.0821
     82  ND1      -84.9500  -86.6220  -88.2080 N.ar   80  HIS80      -0.2267
     83  CD2      -84.5250  -87.6390  -86.3190 C.ar   80  HIS80       0.1154
     84  CE1      -85.2170  -87.9050  -88.3820 C.ar   80  HIS80       0.1986
     85  NE2      -84.9660  -88.5420  -87.2510 N.ar   80  HIS80      -0.2212
     86  N        -84.9610  -82.0130  -85.1600 N.am   81  GLN81      -0.1963
     87  CA       -84.6460  -81.1540  -84.0220 C.3    81  GLN81       0.1733
     88  C        -85.1640  -79.7420  -84.2290 C.2    81  GLN81       0.2616
     89  O        -85.2460  -79.2990  -85.3530 O.2    81  GLN81      -0.2715
     90  CB       -83.1320  -81.1190  -83.8320 C.3    81  GLN81       0.0408
     91  CG       -82.6690  -80.4670  -82.5360 C.3    81  GLN81       0.0908
     92  CD       -81.2800  -80.9360  -82.1500 C.2    81  GLN81       0.2608
     93  OE1      -81.0910  -82.0650  -81.6760 O.2    81  GLN81      -0.2717
     94  NE2      -80.2980  -80.0960  -82.3840 N.am   81  GLN81      -0.0878
     95  N        -85.5100  -79.0530  -83.1410 N.am   82  ASP82      -0.1971
     96  CA       -85.9710  -77.6600  -83.2560 C.3    82  ASP82       0.1709
     97  C        -84.8150  -76.7530  -82.8590 C.2    82  ASP82       0.2293
     98  O        -83.8470  -77.1970  -82.2680 O.2    82  ASP82      -0.2864
     99  CB       -87.2290  -77.3670  -82.4090 C.3    82  ASP82       0.1436
    100  CG       -86.9840  -77.4130  -80.8870 C.2    82  ASP82       0.3671
    101  OD1      -85.9440  -76.9600  -80.3740 O.co2  82  ASP82      -0.2456
    102  OD2      -87.8860  -77.8930  -80.1900 O.co2  82  ASP82      -0.2456
    103  N        -88.8640  -72.7690  -80.9320 N.3   127  GLN127     -0.1231
    104  CA       -89.5300  -74.0750  -80.9210 C.3   127  GLN127      0.1698
    105  C        -90.2740  -74.3810  -82.2200 C.2   127  GLN127      0.2592
    106  O        -90.5700  -75.5490  -82.5000 O.2   127  GLN127     -0.2718
    107  CB       -90.5180  -74.1520  -79.7440 C.3   127  GLN127      0.0381
    108  CG       -89.9070  -74.0940  -78.3350 C.3   127  GLN127      0.0905
    109  CD       -89.2150  -72.7770  -77.9730 C.2   127  GLN127      0.2608
    110  OE1      -89.4890  -71.7060  -78.5370 O.2   127  GLN127     -0.2717
    111  NE2      -88.3220  -72.8560  -76.9960 N.am  127  GLN127     -0.0878
    112  N        -90.5820  -73.3270  -82.9890 N.am  128  ASN128     -0.1974
    113  CA       -91.2990  -73.3850  -84.2530 C.3   128  ASN128      0.1688
    114  C        -90.3940  -73.4870  -85.4720 C.2   128  ASN128      0.2292
    115  O        -90.8900  -73.5550  -86.5990 O.2   128  ASN128     -0.2864
    116  CB       -92.1440  -72.1090  -84.4380 C.3   128  ASN128      0.1181
    117  CG       -93.5380  -72.2940  -83.9790 C.2   128  ASN128      0.2629
    118  OD1      -94.1090  -73.3680  -84.1550 O.2   128  ASN128     -0.2716
    119  ND2      -94.1160  -71.2630  -83.3990 N.am  128  ASN128     -0.0877
    120  N        -87.5590  -75.6490  -87.3540 N.3   130  LEU130     -0.1245
    121  CA       -87.0360  -77.0170  -87.3650 C.3   130  LEU130      0.1561
    122  C        -85.8300  -77.1900  -88.2660 C.2   130  LEU130      0.2260
    123  O        -85.7740  -76.6040  -89.3360 O.2   130  LEU130     -0.2867
    124  CB       -88.1390  -77.9550  -87.8120 C.3   130  LEU130      0.0270
    125  CG       -89.2970  -77.8540  -86.8350 C.3   130  LEU130      0.0019
    126  CD1      -90.5210  -78.4450  -87.4690 C.3   130  LEU130      0.0001
    127  CD2      -88.9360  -78.5680  -85.5170 C.3   130  LEU130      0.0001
    128  N        -92.4420  -73.7800  -89.1070 N.3   140  ALA140     -0.1231
    129  CA       -93.6170  -74.6180  -88.9270 C.3   140  ALA140      0.1694
    130  C        -94.7470  -73.8450  -88.2510 C.2   140  ALA140      0.2592
    131  O        -94.4970  -72.9140  -87.4840 O.2   140  ALA140     -0.2718
    132  CB       -93.2540  -75.8140  -88.0770 C.3   140  ALA140      0.0304
    133  N        -95.9820  -74.2540  -88.5310 N.am  141  ASP141     -0.1974
    134  CA       -97.1690  -73.6620  -87.9170 C.3   141  ASP141      0.1709
    135  C        -97.5920  -72.2750  -88.3670 C.2   141  ASP141      0.2293
    136  O        -98.1250  -71.5080  -87.5830 O.2   141  ASP141     -0.2864
    137  CB       -97.0090  -73.7040  -86.3900 C.3   141  ASP141      0.1436
    138  CG       -97.1820  -75.1190  -85.8310 C.2   141  ASP141      0.3671
    139  OD1      -97.2630  -76.0560  -86.6490 O.co2 141  ASP141     -0.2456
    140  OD2      -97.2380  -75.3050  -84.5900 O.co2 141  ASP141     -0.2456
@<TRIPOS>BOND
     1    56    54   ar
     2    55    54   ar
     3    54    53    1
     4    32    33    2
     5    32    31    1
     6    52    53    1
     7    52    49    1
     8    30    31    1
     9    31    34    1
    10    49    48    1
    11    49    50    1
    12    48    39   am
    13    34    35    1
    14    34    36    1
    15    39    38    1
    16    39    40    2
    17    50    57   am
    18    50    51    2
    19    75    73    1
    20    74    73    1
    21    38    37    1
    22    38    41    1
    23    57    58    1
    24    60    59    2
    25    73    72    1
    26    43    45   ar
    27    43    42   ar
    28    45    47   ar
    29    41    42    1
    30    59    58    1
    31    59    68   am
    32    42    44   ar
    33    58    61    1
    34   123   122    2
    35   128   129    1
    36    72    69    1
    37    47    46   ar
    38   129   130    1
    39   129   132    1
    40    61    62    1
    41    69    68    1
    42    69    70    1
    43   133   130   am
    44   133   134    1
    45    84    82   ar
    46    84    85   ar
    47    44    46   ar
    48   135   134    1
    49   135   136    2
    50   122   121    1
    51   130   131    2
    52    82    81   ar
    53   134   137    1
    54    16    17    1
    55   124   121    1
    56   124   125    1
    57    63    62   ar
    58    63    65   ar
    59    62    64   ar
    60    19    18    2
    61   126   125    1
    62    70    76   am
    63    70    71    2
    64   121   120    1
    65    76    77    1
    66    85    83   ar
    67    81    80    1
    68    81    83   ar
    69   125   127    1
    70    20    17    1
    71   139   138   ar
    72    18    17    1
    73   115   114    2
    74    65    67   ar
    75   137   138    1
    76    80    77    1
    77    64    66   ar
    78    77    78    1
    79   138   140   ar
    80   114   113    1
    81    89    88    2
    82    67    66   ar
    83    86    78   am
    84    86    87    1
    85    78    79    2
    86    21    22    1
    87    24    23    2
    88    25    22    1
    89    25    26    1
    90   116   113    1
    91   116   117    1
    92    27    26    1
    93    27    28    1
    94   113   112    1
    95    88    87    1
    96    88    95   am
    97   118   117    2
    98    87    90    1
    99   117   119   am
   100    22    23    1
   101    90    91    1
   102    28    29    1
   103    96    95    1
   104    96    97    1
   105    96    99    1
   106    14    13    1
   107   112   105   am
   108    97    98    2
   109     8     6    1
   110    91    92    1
   111   106   105    2
   112    99   100    1
   113    94    92   am
   114   105   104    1
   115    92    93    2
   116    15    13    1
   117    13    10    1
   118     6     5    1
   119    10    11    1
   120    10     9    1
   121   103   104    1
   122   104   107    1
   123   100   101   ar
   124   100   102   ar
   125    11    12    2
   126     7     5    1
   127     5     2    1
   128   107   108    1
   129     4     3    2
   130     2     3    1
   131     2     1    1
   132   110   109    2
   133   108   109    1
   134   109   111   am
