@<TRIPOS>MOLECULE
tmp/3r8pA00.pdb
 162 154 0 0 0
SMALL
GASTEIGER

@<TRIPOS>ATOM
      1  N        -79.9460  129.6380  -68.8410 N.3    10  ILE10      -0.1245
      2  CA       -78.8500  129.9400  -67.9290 C.3    10  ILE10       0.1561
      3  C        -78.9080  129.0260  -66.7140 C.2    10  ILE10       0.2260
      4  O        -77.9160  128.4180  -66.3360 O.2    10  ILE10      -0.2867
      5  CB       -78.9150  131.3900  -67.3990 C.3    10  ILE10       0.0252
      6  CG1      -78.9720  132.3840  -68.5530 C.3    10  ILE10       0.0019
      7  CG2      -77.6860  131.6750  -66.5560 C.3    10  ILE10       0.0019
      8  CD1      -79.1480  133.8230  -68.1170 C.3    10  ILE10       0.0001
      9  N        -81.8220  127.4610  -63.2490 N.3    12  GLU12      -0.1231
     10  CA       -83.1390  127.2100  -62.6870 C.3    12  GLU12       0.1699
     11  C        -83.1490  127.9370  -61.3760 C.2    12  GLU12       0.2592
     12  O        -82.3250  127.6570  -60.5040 O.2    12  GLU12      -0.2718
     13  CB       -83.3400  125.7070  -62.4820 C.3    12  GLU12       0.0402
     14  CG       -83.0730  124.9000  -63.7480 C.3    12  GLU12       0.1161
     15  CD       -83.3150  123.4130  -63.5750 C.2    12  GLU12       0.3649
     16  OE1      -82.7400  122.8080  -62.6430 O.co2  12  GLU12      -0.2457
     17  OE2      -84.0830  122.8480  -64.3810 O.co2  12  GLU12      -0.2457
     18  N        -84.0550  128.9070  -61.2590 N.am   13  GLY13      -0.1957
     19  CA       -84.1500  129.6920  -60.0470 C.3    13  GLY13       0.1869
     20  C        -85.0620  129.0400  -59.0260 C.2    13  GLY13       0.2309
     21  O        -85.4460  127.8810  -59.1650 O.2    13  GLY13      -0.2863
     22  N        -84.5200  130.3410  -65.9130 N.3    18  VAL18      -0.1245
     23  CA       -83.8820  131.5860  -66.3240 C.3    18  VAL18       0.1561
     24  C        -83.2050  131.3800  -67.6710 C.2    18  VAL18       0.2260
     25  O        -82.4200  130.4490  -67.8360 O.2    18  VAL18      -0.2867
     26  CB       -82.8110  132.0290  -65.3340 C.3    18  VAL18       0.0252
     27  CG1      -82.2310  133.3780  -65.7820 C.3    18  VAL18       0.0019
     28  CG2      -83.4040  132.1300  -63.9260 C.3    18  VAL18       0.0019
     29  N        -81.4710  138.6560  -68.8310 N.3    31  ALA31      -0.1245
     30  CA       -81.6900  137.3670  -68.1660 C.3    31  ALA31       0.1562
     31  C        -83.2120  137.3730  -68.0040 C.2    31  ALA31       0.2260
     32  O        -83.7810  138.2240  -67.3270 O.2    31  ALA31      -0.2867
     33  CB       -80.9940  137.3150  -66.7800 C.3    31  ALA31       0.0290
     34  N        -86.4710  135.5640  -66.6370 N.3    33  LYS33      -0.1245
     35  CA       -86.9890  134.5620  -65.7260 C.3    33  LYS33       0.1561
     36  C        -88.4660  134.3260  -66.0040 C.2    33  LYS33       0.2260
     37  O        -89.2560  135.2730  -66.0810 O.2    33  LYS33      -0.2867
     38  CB       -86.8110  134.9940  -64.2730 C.3    33  LYS33       0.0271
     39  CG       -87.5260  134.0710  -63.3130 C.3    33  LYS33       0.0035
     40  CD       -87.1920  134.3760  -61.8680 C.3    33  LYS33       0.0206
     41  CE       -85.7330  134.1610  -61.5910 C.3    33  LYS33       0.1093
     42  NZ       -85.4720  134.1700  -60.1220 N.3    33  LYS33      -0.1314
     43  N        -79.0400  143.9140  -59.1130 N.3    60  VAL60      -0.1245
     44  CA       -79.3120  143.5240  -60.4950 C.3    60  VAL60       0.1561
     45  C        -80.5710  144.2720  -60.9330 C.2    60  VAL60       0.2260
     46  O        -81.6130  144.1600  -60.3040 O.2    60  VAL60      -0.2867
     47  CB       -79.5290  141.9870  -60.5890 C.3    60  VAL60       0.0252
     48  CG1      -80.0180  141.5910  -61.9860 C.3    60  VAL60       0.0019
     49  CG2      -78.2030  141.2800  -60.3020 C.3    60  VAL60       0.0019
     50  N        -84.4450  140.8540  -66.3770 N.3    76  PHE76      -0.1227
     51  CA       -83.3260  141.3850  -65.5880 C.3    76  PHE76       0.1736
     52  C        -82.0960  141.6930  -66.4110 C.2    76  PHE76       0.2595
     53  O        -81.8670  141.1150  -67.4840 O.2    76  PHE76      -0.2718
     54  CB       -82.8470  140.3550  -64.5570 C.3    76  PHE76       0.0547
     55  CG       -83.8630  139.9830  -63.5320 C.ar   76  PHE76      -0.0202
     56  CD1      -84.1910  140.8630  -62.5050 C.ar   76  PHE76      -0.0042
     57  CD2      -84.4650  138.7270  -63.5660 C.ar   76  PHE76      -0.0042
     58  CE1      -85.1050  140.4950  -61.5170 C.ar   76  PHE76      -0.0003
     59  CE2      -85.3790  138.3460  -62.5840 C.ar   76  PHE76      -0.0003
     60  CZ       -85.6970  139.2340  -61.5580 C.ar   76  PHE76      -0.0000
     61  N        -81.2620  142.5680  -65.8590 N.am   77  GLU77      -0.1965
     62  CA       -79.9960  142.8610  -66.5020 C.3    77  GLU77       0.1733
     63  C        -79.2060  141.5460  -66.4430 C.2    77  GLU77       0.2616
     64  O        -79.3600  140.7280  -65.5150 O.2    77  GLU77      -0.2715
     65  CB       -79.2540  143.9800  -65.7640 C.3    77  GLU77       0.0429
     66  CG       -78.3530  143.5570  -64.6460 C.3    77  GLU77       0.1163
     67  CD       -77.5690  144.7280  -64.0520 C.2    77  GLU77       0.3649
     68  OE1      -76.4140  144.9960  -64.4830 O.co2  77  GLU77      -0.2457
     69  OE2      -78.1210  145.3810  -63.1620 O.co2  77  GLU77      -0.2457
     70  N        -78.3830  141.3270  -67.4520 N.am   78  PHE78      -0.1960
     71  CA       -77.5890  140.1200  -67.5380 C.3    78  PHE78       0.1771
     72  C        -76.1570  140.2990  -67.0480 C.2    78  PHE78       0.2619
     73  O        -75.5030  141.2940  -67.3830 O.2    78  PHE78      -0.2715
     74  CB       -77.5730  139.6280  -68.9880 C.3    78  PHE78       0.0574
     75  CG       -76.7340  138.4070  -69.2080 C.ar   78  PHE78      -0.0200
     76  CD1      -75.3860  138.5210  -69.5590 C.ar   78  PHE78      -0.0042
     77  CD2      -77.2860  137.1290  -69.0540 C.ar   78  PHE78      -0.0042
     78  CE1      -74.6080  137.4000  -69.7520 C.ar   78  PHE78      -0.0003
     79  CE2      -76.5090  135.9940  -69.2440 C.ar   78  PHE78      -0.0003
     80  CZ       -75.1650  136.1250  -69.5940 C.ar   78  PHE78      -0.0000
     81  N        -75.6940  139.3580  -66.2240 N.am   79  LEU79      -0.1963
     82  CA       -74.3030  139.3660  -65.7430 C.3    79  LEU79       0.1728
     83  C        -73.7860  137.9910  -66.1210 C.2    79  LEU79       0.2616
     84  O        -74.5440  137.0260  -66.1240 O.2    79  LEU79      -0.2715
     85  CB       -74.2030  139.5840  -64.2350 C.3    79  LEU79       0.0311
     86  CG       -74.4120  141.0620  -63.9050 C.3    79  LEU79       0.0022
     87  CD1      -75.8200  141.2500  -63.4010 C.3    79  LEU79       0.0001
     88  CD2      -73.3810  141.5410  -62.8650 C.3    79  LEU79       0.0001
     89  N        -72.5000  137.8930  -66.4150 N.am   80  HIS80      -0.1959
     90  CA       -71.9800  136.6350  -66.9030 C.3    80  HIS80       0.1787
     91  C        -71.7260  135.4620  -65.9780 C.2    80  HIS80       0.2620
     92  O        -71.6490  134.3370  -66.4640 O.2    80  HIS80      -0.2715
     93  CB       -70.7330  136.9060  -67.7560 C.3    80  HIS80       0.0785
     94  CG       -71.0240  137.6250  -69.0440 C.ar   80  HIS80       0.0821
     95  ND1      -71.3090  138.9780  -69.1020 N.ar   80  HIS80      -0.2267
     96  CD2      -71.0710  137.1760  -70.3240 C.ar   80  HIS80       0.1154
     97  CE1      -71.5140  139.3280  -70.3610 C.ar   80  HIS80       0.1986
     98  NE2      -71.3730  138.2550  -71.1220 N.ar   80  HIS80      -0.2212
     99  N        -71.6370  135.6780  -64.6670 N.am   81  GLN81      -0.1963
    100  CA       -71.3640  134.5550  -63.7660 C.3    81  GLN81       0.1733
    101  C        -71.9070  134.8090  -62.3760 C.2    81  GLN81       0.2616
    102  O        -72.0910  135.9570  -62.0030 O.2    81  GLN81      -0.2715
    103  CB       -69.8520  134.3470  -63.6780 C.3    81  GLN81       0.0408
    104  CG       -69.4190  133.1920  -62.7980 C.3    81  GLN81       0.0908
    105  CD       -68.0390  132.6900  -63.1620 C.2    81  GLN81       0.2608
    106  OE1      -67.8360  132.1390  -64.2490 O.2    81  GLN81      -0.2717
    107  NE2      -67.0800  132.8880  -62.2720 N.am   81  GLN81      -0.0878
    108  N        -72.1880  133.7490  -61.6140 N.am   82  ASP82      -0.1971
    109  CA       -72.6530  133.9570  -60.2410 C.3    82  ASP82       0.1709
    110  C        -71.5020  133.6190  -59.3040 C.2    82  ASP82       0.2293
    111  O        -70.5040  132.9870  -59.7100 O.2    82  ASP82      -0.2864
    112  CB       -73.9090  133.1330  -59.9120 C.3    82  ASP82       0.1436
    113  CG       -73.6890  131.6390  -59.9850 C.2    82  ASP82       0.3671
    114  OD1      -72.7000  131.1420  -59.4160 O.co2  82  ASP82      -0.2456
    115  OD2      -74.5380  130.9520  -60.5870 O.co2  82  ASP82      -0.2456
    116  N        -70.4450  129.8150  -58.7900 N.3    85  LYS85      -0.1245
    117  CA       -69.5860  129.3070  -59.8540 C.3    85  LYS85       0.1561
    118  C        -68.1640  129.8530  -59.7320 C.2    85  LYS85       0.2260
    119  O        -67.2030  129.1370  -59.9840 O.2    85  LYS85      -0.2867
    120  CB       -70.1810  129.6820  -61.2120 C.3    85  LYS85       0.0271
    121  CG       -69.7210  128.8060  -62.3490 C.3    85  LYS85       0.0035
    122  CD       -70.4060  129.1880  -63.6580 C.3    85  LYS85       0.0206
    123  CE       -71.9160  129.4160  -63.4680 C.3    85  LYS85       0.1093
    124  NZ       -72.6280  128.2760  -62.8280 N.3    85  LYS85      -0.1314
    125  N        -75.4950  131.7580  -55.1540 N.3   127  GLN127     -0.1231
    126  CA       -76.1990  131.5680  -56.4210 C.3   127  GLN127      0.1698
    127  C        -76.8950  132.8370  -56.9210 C.2   127  GLN127      0.2592
    128  O        -77.0730  132.9870  -58.1340 O.2   127  GLN127     -0.2718
    129  CB       -77.2210  130.4170  -56.2710 C.3   127  GLN127      0.0381
    130  CG       -77.7810  129.8410  -57.5550 C.3   127  GLN127      0.0905
    131  CD       -78.7320  128.6800  -57.2860 C.2   127  GLN127      0.2608
    132  OE1      -78.4500  127.8130  -56.4610 O.2   127  GLN127     -0.2717
    133  NE2      -79.8600  128.6610  -57.9860 N.am  127  GLN127     -0.0878
    134  N        -77.3210  133.7320  -56.0230 N.am  128  ASN128     -0.1974
    135  CA       -77.9580  134.9550  -56.5030 C.3   128  ASN128      0.1688
    136  C        -77.1160  136.2210  -56.3890 C.2   128  ASN128      0.2292
    137  O        -77.6380  137.3350  -56.4000 O.2   128  ASN128     -0.2864
    138  CB       -79.3650  135.1800  -55.9120 C.3   128  ASN128      0.1181
    139  CG       -79.4310  135.0540  -54.4230 C.2   128  ASN128      0.2629
    140  OD1      -78.5160  135.4500  -53.7120 O.2   128  ASN128     -0.2716
    141  ND2      -80.5550  134.5320  -53.9270 N.am  128  ASN128     -0.0877
    142  N        -74.3010  138.0310  -58.4420 N.3   130  LEU130     -0.1245
    143  CA       -73.7310  137.9820  -59.7800 C.3   130  LEU130      0.1561
    144  C        -72.5430  138.9100  -59.9560 C.2   130  LEU130      0.2260
    145  O        -72.5300  140.0430  -59.4620 O.2   130  LEU130     -0.2867
    146  CB       -74.8140  138.3280  -60.8020 C.3   130  LEU130      0.0270
    147  CG       -76.1150  137.5300  -60.6630 C.3   130  LEU130      0.0019
    148  CD1      -77.0560  138.0570  -61.6710 C.3   130  LEU130      0.0001
    149  CD2      -75.9020  136.0380  -60.8510 C.3   130  LEU130      0.0001
    150  N        -79.1010  139.6390  -56.8200 N.3   140  ALA140     -0.1231
    151  CA       -80.2460  139.3310  -57.6890 C.3   140  ALA140      0.1694
    152  C        -81.4050  138.7620  -56.8650 C.2   140  ALA140      0.2592
    153  O        -81.1890  138.2080  -55.7890 O.2   140  ALA140     -0.2718
    154  CB       -79.8360  138.3120  -58.7630 C.3   140  ALA140      0.0304
    155  N        -82.6240  138.8830  -57.3830 N.am  141  ASP141     -0.1974
    156  CA       -83.8340  138.3590  -56.7210 C.3   141  ASP141      0.1709
    157  C        -84.2640  139.1080  -55.4670 C.2   141  ASP141      0.2293
    158  O        -85.0270  138.5900  -54.6620 O.2   141  ASP141     -0.2864
    159  CB       -83.6690  136.8590  -56.3800 C.3   141  ASP141      0.1436
    160  CG       -83.9690  135.9430  -57.5540 C.2   141  ASP141      0.3671
    161  OD1      -84.2700  136.4420  -58.6580 O.co2 141  ASP141     -0.2456
    162  OD2      -83.9120  134.6980  -57.3690 O.co2 141  ASP141     -0.2456
@<TRIPOS>BOND
     1    98    97   ar
     2    98    96   ar
     3    97    95   ar
     4    96    94   ar
     5    78    80   ar
     6    78    76   ar
     7    80    79   ar
     8    76    75   ar
     9    79    77   ar
    10    75    77   ar
    11    75    74    1
    12    95    94   ar
    13    94    93    1
    14    74    71    1
    15     1     2    1
    16    29    30    1
    17     6     8    1
    18     6     5    1
    19    30    31    1
    20    30    33    1
    21    31    32    2
    22     2     5    1
    23     2     3    1
    24    25    24    2
    25    93    90    1
    26    24    23    1
    27    71    70    1
    28    71    72    1
    29    53    52    2
    30    70    63   am
    31     5     7    1
    32    73    72    2
    33    72    81   am
    34    90    89    1
    35    90    91    1
    36     3     4    2
    37    34    35    1
    38    62    63    1
    39    62    61    1
    40    62    65    1
    41    92    91    2
    42    63    64    2
    43    89    83   am
    44    52    61   am
    45    52    51    1
    46    50    51    1
    47    23    22    1
    48    23    26    1
    49    81    82    1
    50    84    83    2
    51    83    82    1
    52    37    36    2
    53    36    35    1
    54    91    99   am
    55    27    26    1
    56    65    66    1
    57    82    85    1
    58    35    38    1
    59    51    54    1
    60    26    28    1
    61    99   100    1
    62    66    67    1
    63    54    55    1
    64    68    67   ar
    65    17    15   ar
    66    38    39    1
    67   106   105    2
    68    85    86    1
    69    67    69   ar
    70    86    87    1
    71    86    88    1
    72   100   103    1
    73   100   101    1
    74    14    15    1
    75    14    13    1
    76   103   104    1
    77   122   123    1
    78   122   121    1
    79    15    16   ar
    80    57    55   ar
    81    57    59   ar
    82    55    56   ar
    83   123   124    1
    84    39    40    1
    85     9    10    1
    86   105   104    1
    87   105   107   am
    88    10    13    1
    89    10    11    1
    90    59    60   ar
    91    56    58   ar
    92   101   102    2
    93   101   108   am
    94   121   120    1
    95    48    47    1
    96    40    41    1
    97   148   147    1
    98   108   109    1
    99    41    42    1
   100    60    58   ar
   101    11    18   am
   102    11    12    2
   103    18    19    1
   104   120   117    1
   105    45    44    1
   106    45    46    2
   107   149   147    1
   108   146   147    1
   109   146   143    1
   110    47    44    1
   111    47    49    1
   112   115   113   ar
   113    44    43    1
   114   109   112    1
   115   109   110    1
   116    19    20    1
   117   113   112    1
   118   113   114   ar
   119   119   118    2
   120   144   143    1
   121   144   145    2
   122   117   118    1
   123   117   116    1
   124   143   142    1
   125   111   110    2
   126    21    20    2
   127   154   151    1
   128   161   160   ar
   129   128   127    2
   130   133   131   am
   131   151   152    1
   132   151   150    1
   133   130   131    1
   134   130   129    1
   135   160   162   ar
   136   160   159    1
   137   155   152   am
   138   155   156    1
   139   131   132    2
   140   127   126    1
   141   127   134   am
   142   152   153    2
   143   156   159    1
   144   156   157    1
   145   135   136    1
   146   135   134    1
   147   135   138    1
   148   126   129    1
   149   126   125    1
   150   137   136    2
   151   138   139    1
   152   157   158    2
   153   139   141   am
   154   139   140    2
