@<TRIPOS>MOLECULE
tmp/3r8uA00.pdb
 182 174 0 0 0
SMALL
GASTEIGER

@<TRIPOS>ATOM
      1  N        -68.1260 -122.0070  -42.6730 N.3    10  ILE10      -0.1231
      2  CA       -67.0140 -121.1020  -42.9060 C.3    10  ILE10       0.1692
      3  C        -67.0630 -119.9850  -41.8810 C.2    10  ILE10       0.2593
      4  O        -66.0400 -119.4210  -41.5160 O.2    10  ILE10      -0.2718
      5  CB       -67.0820 -120.4910  -44.3200 C.3    10  ILE10       0.0266
      6  CG1      -66.7240 -121.5490  -45.3600 C.3    10  ILE10       0.0019
      7  CG2      -66.1510 -119.2830  -44.4160 C.3    10  ILE10       0.0020
      8  CD1      -66.8550 -121.0600  -46.7720 C.3    10  ILE10       0.0001
      9  N        -68.2700 -119.6690  -41.4270 N.am   11  GLY11      -0.1942
     10  CA       -68.4410 -118.6160  -40.4460 C.3    11  GLY11       0.2014
     11  C        -69.8040 -117.9690  -40.5920 C.2    11  GLY11       0.2639
     12  O        -70.7250 -118.5580  -41.1700 O.2    11  GLY11      -0.2714
     13  N        -69.9380 -116.7540  -40.0780 N.am   12  GLU12      -0.1963
     14  CA       -71.2020 -116.0480  -40.1640 C.3    12  GLU12       0.1733
     15  C        -71.0890 -114.7460  -40.9470 C.2    12  GLU12       0.2617
     16  O        -70.3510 -113.8420  -40.5810 O.2    12  GLU12      -0.2715
     17  CB       -71.7380 -115.8070  -38.7560 C.3    12  GLU12       0.0429
     18  CG       -71.9250 -117.1200  -37.9970 C.3    12  GLU12       0.1163
     19  CD       -72.6210 -116.9500  -36.6600 C.2    12  GLU12       0.3649
     20  OE1      -72.0140 -116.3500  -35.7370 O.co2  12  GLU12      -0.2457
     21  OE2      -73.7790 -117.4170  -36.5360 O.co2  12  GLU12      -0.2457
     22  N        -71.8290 -114.6640  -42.0430 N.am   13  GLY13      -0.1940
     23  CA       -71.7730 -113.4740  -42.8610 C.3    13  GLY13       0.2014
     24  C        -72.7660 -112.4080  -42.4590 C.2    13  GLY13       0.2639
     25  O        -73.4470 -112.5140  -41.4370 O.2    13  GLY13      -0.2714
     26  N        -72.8460 -111.3700  -43.2810 N.am   14  THR14      -0.1950
     27  CA       -73.7610 -110.2720  -43.0360 C.3    14  THR14       0.1897
     28  C        -75.1940 -110.7900  -42.9910 C.2    14  THR14       0.2313
     29  O        -75.9470 -110.4550  -42.0850 O.2    14  THR14      -0.2863
     30  CB       -73.6910 -109.2150  -44.1610 C.3    14  THR14       0.1794
     31  OG1      -72.3530 -108.7150  -44.2860 O.3    14  THR14      -0.2208
     32  CG2      -74.6310 -108.0680  -43.8600 C.3    14  THR14       0.0378
     33  N        -72.4790 -119.1140  -43.5820 N.3    18  VAL18      -0.1245
     34  CA       -71.8610 -119.4320  -44.8690 C.3    18  VAL18       0.1561
     35  C        -71.1620 -120.7690  -44.7120 C.2    18  VAL18       0.2260
     36  O        -70.4180 -120.9660  -43.7650 O.2    18  VAL18      -0.2867
     37  CB       -70.8090 -118.3740  -45.2750 C.3    18  VAL18       0.0252
     38  CG1      -70.2030 -118.7400  -46.6280 C.3    18  VAL18       0.0019
     39  CG2      -71.4530 -116.9910  -45.3320 C.3    18  VAL18       0.0019
     40  N        -69.1490 -121.9590  -51.9300 N.3    31  ALA31      -0.1245
     41  CA       -69.4270 -121.2220  -50.7050 C.3    31  ALA31       0.1562
     42  C        -70.9440 -121.0480  -50.7370 C.2    31  ALA31       0.2260
     43  O        -71.4740 -120.3770  -51.6080 O.2    31  ALA31      -0.2867
     44  CB       -68.7310 -119.8700  -50.7370 C.3    31  ALA31       0.0290
     45  N        -74.2360 -119.5670  -49.0710 N.3    33  LYS33      -0.1245
     46  CA       -74.6830 -118.5890  -48.1000 C.3    33  LYS33       0.1561
     47  C        -76.1900 -118.6240  -47.9020 C.2    33  LYS33       0.2260
     48  O        -76.9570 -118.5040  -48.8510 O.2    33  LYS33      -0.2867
     49  CB       -74.2400 -117.1870  -48.5400 C.3    33  LYS33       0.0271
     50  CG       -72.7940 -117.1370  -49.0240 C.3    33  LYS33       0.0035
     51  CD       -72.2890 -115.7030  -49.1970 C.3    33  LYS33       0.0206
     52  CE       -70.7920 -115.6670  -49.4960 C.3    33  LYS33       0.1093
     53  NZ       -70.2190 -114.2780  -49.3810 N.3    33  LYS33      -0.1314
     54  N        -66.1170 -112.2990  -57.2910 N.3    60  VAL60      -0.1245
     55  CA       -66.4610 -113.6740  -56.9290 C.3    60  VAL60       0.1561
     56  C        -67.7460 -114.0560  -57.6870 C.2    60  VAL60       0.2260
     57  O        -68.7940 -113.3840  -57.5600 O.2    60  VAL60      -0.2867
     58  CB       -66.7210 -113.8070  -55.4160 C.3    60  VAL60       0.0252
     59  CG1      -67.1380 -115.2420  -55.0880 C.3    60  VAL60       0.0019
     60  CG2      -65.4430 -113.4760  -54.6410 C.3    60  VAL60       0.0019
     61  N        -71.8100 -119.3870  -54.3150 N.3    76  PHE76      -0.1227
     62  CA       -70.6780 -118.6260  -54.8380 C.3    76  PHE76       0.1736
     63  C        -69.4730 -119.5000  -55.1480 C.2    76  PHE76       0.2595
     64  O        -69.2660 -120.5000  -54.4860 O.2    76  PHE76      -0.2718
     65  CB       -70.2540 -117.6060  -53.7880 C.3    76  PHE76       0.0547
     66  CG       -71.1460 -116.4080  -53.6970 C.ar   76  PHE76      -0.0202
     67  CD1      -70.9380 -115.3090  -54.5290 C.ar   76  PHE76      -0.0042
     68  CD2      -72.1690 -116.3530  -52.7570 C.ar   76  PHE76      -0.0042
     69  CE1      -71.7420 -114.1640  -54.4130 C.ar   76  PHE76      -0.0003
     70  CE2      -72.9730 -115.2170  -52.6380 C.ar   76  PHE76      -0.0003
     71  CZ       -72.7610 -114.1240  -53.4610 C.ar   76  PHE76      -0.0000
     72  N        -68.6580 -119.1100  -56.1290 N.am   77  GLU77      -0.1965
     73  CA       -67.4480 -119.8850  -56.4220 C.3    77  GLU77       0.1733
     74  C        -66.6500 -119.8210  -55.1320 C.2    77  GLU77       0.2616
     75  O        -66.6850 -118.8200  -54.4210 O.2    77  GLU77      -0.2715
     76  CB       -66.6240 -119.2700  -57.5650 C.3    77  GLU77       0.0429
     77  CG       -66.0150 -117.9470  -57.2380 C.3    77  GLU77       0.1163
     78  CD       -64.9920 -117.4790  -58.2630 C.2    77  GLU77       0.3649
     79  OE1      -63.9600 -118.1550  -58.4450 O.co2  77  GLU77      -0.2457
     80  OE2      -65.2170 -116.4230  -58.8750 O.co2  77  GLU77      -0.2457
     81  N        -65.9380 -120.8860  -54.8170 N.am   78  PHE78      -0.1960
     82  CA       -65.1850 -120.9340  -53.5750 C.3    78  PHE78       0.1771
     83  C        -63.7500 -120.4600  -53.7650 C.2    78  PHE78       0.2619
     84  O        -63.0870 -120.8280  -54.7290 O.2    78  PHE78      -0.2715
     85  CB       -65.2240 -122.3740  -53.0350 C.3    78  PHE78       0.0574
     86  CG       -64.4470 -122.5840  -51.7660 C.ar   78  PHE78      -0.0200
     87  CD1      -63.1160 -122.9480  -51.8110 C.ar   78  PHE78      -0.0042
     88  CD2      -65.0520 -122.3980  -50.5210 C.ar   78  PHE78      -0.0042
     89  CE1      -62.3890 -123.1190  -50.6510 C.ar   78  PHE78      -0.0003
     90  CE2      -64.3330 -122.5680  -49.3540 C.ar   78  PHE78      -0.0003
     91  CZ       -62.9910 -122.9300  -49.4160 C.ar   78  PHE78      -0.0000
     92  N        -63.2790 -119.6160  -52.8570 N.am   79  LEU79      -0.1963
     93  CA       -61.9140 -119.1620  -52.9630 C.3    79  LEU79       0.1728
     94  C        -61.1460 -119.6170  -51.7520 C.2    79  LEU79       0.2616
     95  O        -61.6990 -119.8840  -50.7000 O.2    79  LEU79      -0.2715
     96  CB       -61.8220 -117.6420  -53.1680 C.3    79  LEU79       0.0311
     97  CG       -61.8230 -117.3020  -54.6710 C.3    79  LEU79       0.0022
     98  CD1      -63.1900 -116.7850  -55.0690 C.3    79  LEU79       0.0001
     99  CD2      -60.7420 -116.2740  -55.0000 C.3    79  LEU79       0.0001
    100  N        -59.8430 -119.6750  -51.9470 N.am   80  HIS80      -0.1959
    101  CA       -58.8520 -120.1360  -51.0010 C.3    80  HIS80       0.1787
    102  C        -58.7280 -119.4860  -49.6190 C.2    80  HIS80       0.2620
    103  O        -58.7160 -120.1830  -48.6020 O.2    80  HIS80      -0.2715
    104  CB       -57.4880 -120.0830  -51.7250 C.3    80  HIS80       0.0785
    105  CG       -57.5170 -120.6490  -53.1250 C.ar   80  HIS80       0.0821
    106  ND1      -56.3920 -120.7280  -53.9230 N.ar   80  HIS80      -0.2267
    107  CD2      -58.5300 -121.1790  -53.8540 C.ar   80  HIS80       0.1154
    108  CE1      -56.7070 -121.2810  -55.0810 C.ar   80  HIS80       0.1986
    109  NE2      -58.0000 -121.5650  -55.0670 N.ar   80  HIS80      -0.2212
    110  N        -58.6170 -118.1690  -49.5630 N.am   81  GLN81      -0.1963
    111  CA       -58.4170 -117.4860  -48.2760 C.3    81  GLN81       0.1733
    112  C        -58.9740 -116.0690  -48.3660 C.2    81  GLN81       0.2616
    113  O        -59.1860 -115.5770  -49.4730 O.2    81  GLN81      -0.2715
    114  CB       -56.9100 -117.4310  -48.0060 C.3    81  GLN81       0.0408
    115  CG       -56.4730 -116.8170  -46.6770 C.3    81  GLN81       0.0908
    116  CD       -55.0910 -117.3000  -46.3110 C.2    81  GLN81       0.2608
    117  OE1      -54.8610 -118.5020  -46.2330 O.2    81  GLN81      -0.2717
    118  NE2      -54.1640 -116.3810  -46.1030 N.am   81  GLN81      -0.0878
    119  N        -59.2320 -115.4220  -47.2250 N.am   82  ASP82      -0.1971
    120  CA       -59.7280 -114.0500  -47.2620 C.3    82  ASP82       0.1709
    121  C        -58.5850 -113.1030  -46.9050 C.2    82  ASP82       0.2293
    122  O        -57.5880 -113.5240  -46.3260 O.2    82  ASP82      -0.2864
    123  CB       -60.9540 -113.8340  -46.3590 C.3    82  ASP82       0.1436
    124  CG       -60.6580 -113.9750  -44.8640 C.2    82  ASP82       0.3671
    125  OD1      -59.8820 -113.1930  -44.3020 O.co2  82  ASP82      -0.2456
    126  OD2      -61.2310 -114.8720  -44.2390 O.co2  82  ASP82      -0.2456
    127  N        -57.5020 -112.8460  -43.0710 N.3    85  LYS85      -0.1245
    128  CA       -56.6350 -113.9140  -42.5800 C.3    85  LYS85       0.1561
    129  C        -55.2260 -113.8030  -43.1860 C.2    85  LYS85       0.2260
    130  O        -54.2280 -114.1270  -42.5400 O.2    85  LYS85      -0.2867
    131  CB       -57.2220 -115.2870  -42.9100 C.3    85  LYS85       0.0271
    132  CG       -56.3710 -116.4220  -42.3660 C.3    85  LYS85       0.0035
    133  CD       -56.8920 -117.7880  -42.7900 C.3    85  LYS85       0.0206
    134  CE       -56.1300 -118.8930  -42.0780 C.3    85  LYS85       0.1093
    135  NZ       -54.6580 -118.7290  -42.3110 N.3    85  LYS85      -0.1314
    136  N        -64.8520 -104.9220  -47.0440 N.3   125  LYS125     -0.1245
    137  CA       -64.0270 -105.1150  -45.8710 C.3   125  LYS125      0.1561
    138  C        -63.0930 -106.2760  -46.1470 C.2   125  LYS125      0.2260
    139  O        -63.3560 -107.0890  -47.0330 O.2   125  LYS125     -0.2867
    140  CB       -64.8800 -105.3490  -44.6070 C.3   125  LYS125      0.0271
    141  CG       -65.7920 -106.5510  -44.6450 C.3   125  LYS125      0.0035
    142  CD       -66.9590 -106.3330  -43.6790 C.3   125  LYS125      0.0206
    143  CE       -67.9410 -107.4710  -43.7370 C.3   125  LYS125      0.1093
    144  NZ       -69.1670 -107.1620  -42.9500 N.3   125  LYS125     -0.1314
    145  N        -62.6650 -109.0760  -44.8550 N.3   127  GLN127     -0.1231
    146  CA       -63.3550 -110.3540  -44.7710 C.3   127  GLN127      0.1698
    147  C        -64.0430 -110.7550  -46.0830 C.2   127  GLN127      0.2592
    148  O        -64.1670 -111.9480  -46.3570 O.2   127  GLN127     -0.2718
    149  CB       -64.3760 -110.2990  -43.6150 C.3   127  GLN127      0.0381
    150  CG       -64.9500 -111.6110  -43.1350 C.3   127  GLN127      0.0905
    151  CD       -65.8700 -111.4030  -41.9370 C.2   127  GLN127      0.2608
    152  OE1      -66.8150 -110.6150  -41.9980 O.2   127  GLN127     -0.2717
    153  NE2      -65.5910 -112.1010  -40.8420 N.am  127  GLN127     -0.0878
    154  N        -64.4960 -109.7970  -46.8980 N.am  128  ASN128     -0.1974
    155  CA       -65.1190 -110.1990  -48.1640 C.3   128  ASN128      0.1688
    156  C        -64.2740 -109.9890  -49.4200 C.2   128  ASN128      0.2292
    157  O        -64.8160 -109.9600  -50.5330 O.2   128  ASN128     -0.2864
    158  CB       -66.5270 -109.5980  -48.3750 C.3   128  ASN128      0.1181
    159  CG       -66.5650 -108.0850  -48.2990 C.2   128  ASN128      0.2629
    160  OD1      -65.6590 -107.3750  -48.7800 O.2   128  ASN128     -0.2716
    161  ND2      -67.6480 -107.5730  -47.7230 N.am  128  ASN128     -0.0877
    162  N        -61.4140 -111.8530  -51.3720 N.3   130  LEU130     -0.1245
    163  CA       -60.8590 -113.2050  -51.4010 C.3   130  LEU130      0.1561
    164  C        -59.6940 -113.4030  -52.3590 C.2   130  LEU130      0.2260
    165  O        -59.7040 -112.8980  -53.4850 O.2   130  LEU130     -0.2867
    166  CB       -61.9790 -114.1840  -51.7470 C.3   130  LEU130      0.0270
    167  CG       -63.2380 -113.9010  -50.9170 C.3   130  LEU130      0.0019
    168  CD1      -64.2630 -114.9600  -51.2340 C.3   130  LEU130      0.0001
    169  CD2      -62.9110 -113.9010  -49.4220 C.3   130  LEU130      0.0001
    170  N        -66.2430 -110.1610  -52.9770 N.3   140  ALA140     -0.1231
    171  CA       -67.4300 -110.9870  -52.7770 C.3   140  ALA140      0.1694
    172  C        -68.5640 -110.1180  -52.2190 C.2   140  ALA140      0.2592
    173  O        -68.3100 -109.2000  -51.4370 O.2   140  ALA140     -0.2718
    174  CB       -67.1260 -112.0930  -51.8060 C.3   140  ALA140      0.0304
    175  N        -69.7900 -110.4100  -52.6560 N.am  141  ASP141     -0.1974
    176  CA       -71.0250 -109.7430  -52.2250 C.3   141  ASP141      0.1709
    177  C        -71.4330 -108.4130  -52.8290 C.2   141  ASP141      0.2293
    178  O        -72.2290 -107.6870  -52.2370 O.2   141  ASP141     -0.2864
    179  CB       -71.0570 -109.6410  -50.7030 C.3   141  ASP141      0.1436
    180  CG       -71.1140 -111.0060  -50.0460 C.2   141  ASP141      0.3671
    181  OD1      -71.3240 -112.0100  -50.7860 O.co2 141  ASP141     -0.2456
    182  OD2      -70.9670 -111.0820  -48.8050 O.co2 141  ASP141     -0.2456
@<TRIPOS>BOND
     1    80    78   ar
     2    79    78   ar
     3    78    77    1
     4    56    57    2
     5    56    55    1
     6    76    77    1
     7    76    73    1
     8    54    55    1
     9    55    58    1
    10    73    72    1
    11    73    74    1
    12    72    63   am
    13    58    59    1
    14    58    60    1
    15    63    62    1
    16    63    64    2
    17    74    81   am
    18    74    75    2
    19   108   109   ar
    20   108   106   ar
    21    98    97    1
    22   109   107   ar
    23    99    97    1
    24    62    61    1
    25    62    65    1
    26    81    82    1
    27    84    83    2
    28    97    96    1
    29    67    69   ar
    30    67    66   ar
    31    69    71   ar
    32   106   105   ar
    33   107   105   ar
    34    65    66    1
    35    83    82    1
    36    83    92   am
    37    66    68   ar
    38    82    85    1
    39   165   164    2
    40    71    70   ar
    41    96    93    1
    42   105   104    1
    43    85    86    1
    44   170   171    1
    45    93    92    1
    46    93    94    1
    47   177   178    2
    48   177   176    1
    49   171   172    1
    50   171   174    1
    51    68    70   ar
    52   175   176    1
    53   175   172   am
    54   164   163    1
    55   176   179    1
    56   172   173    2
    57   100    94   am
    58   100   101    1
    59    40    41    1
    60    87    86   ar
    61    87    89   ar
    62    86    88   ar
    63    94    95    2
    64   166   163    1
    65   166   167    1
    66   104   101    1
    67    43    42    2
    68   163   162    1
    69   168   167    1
    70   101   102    1
    71   167   169    1
    72   181   180   ar
    73    44    41    1
    74    42    41    1
    75   179   180    1
    76    89    91   ar
    77   157   156    2
    78    88    90   ar
    79   180   182   ar
    80   102   110   am
    81   102   103    2
    82   110   111    1
    83    52    53    1
    84    52    51    1
    85   113   112    2
    86   156   155    1
    87    91    90   ar
    88    51    50    1
    89    45    46    1
    90    50    49    1
    91    48    47    2
    92   160   159    2
    93    49    46    1
    94   158   159    1
    95   158   155    1
    96   112   111    1
    97   112   119   am
    98   159   161   am
    99   111   114    1
   100   155   154    1
   101    46    47    1
   102   114   115    1
   103   120   119    1
   104   120   121    1
   105   120   123    1
   106   136   137    1
   107   139   138    2
   108   121   122    2
   109   154   147   am
   110     8     6    1
   111   115   116    1
   112    38    37    1
   113   123   124    1
   114   148   147    2
   115   116   117    2
   116   116   118   am
   117   138   137    1
   118   147   146    1
   119   137   140    1
   120     6     5    1
   121    39    37    1
   122    37    34    1
   123    34    35    1
   124    34    33    1
   125   124   125   ar
   126   124   126   ar
   127   145   146    1
   128   146   149    1
   129    35    36    2
   130   141   140    1
   131   141   142    1
   132     7     5    1
   133     5     2    1
   134    31    30    1
   135    30    32    1
   136    30    27    1
   137   143   142    1
   138   143   144    1
   139   149   150    1
   140    26    27    1
   141    26    24   am
   142   129   128    1
   143   129   130    2
   144   150   151    1
   145   127   128    1
   146    27    28    1
   147    28    29    2
   148   131   128    1
   149   131   132    1
   150     2     1    1
   151     2     3    1
   152    23    24    1
   153    23    22    1
   154   133   132    1
   155   133   134    1
   156    24    25    2
   157   135   134    1
   158    22    15   am
   159   152   151    2
   160   151   153   am
   161     3     4    2
   162     3     9   am
   163     9    10    1
   164    12    11    2
   165    15    16    2
   166    15    14    1
   167    11    10    1
   168    11    13   am
   169    14    13    1
   170    14    17    1
   171    17    18    1
   172    18    19    1
   173    19    21   ar
   174    19    20   ar
