@<TRIPOS>MOLECULE
tmp/3r8vA00.pdb
 175 167 0 0 0
SMALL
GASTEIGER

@<TRIPOS>ATOM
      1  N        -68.0580  -85.4860  -79.0530 N.3    10  ILE10      -0.1231
      2  CA       -66.9000  -84.6460  -79.3170 C.3    10  ILE10       0.1692
      3  C        -66.9200  -83.4670  -78.3630 C.2    10  ILE10       0.2593
      4  O        -65.8950  -83.0920  -77.8080 O.2    10  ILE10      -0.2718
      5  CB       -66.8960  -84.0800  -80.7650 C.3    10  ILE10       0.0266
      6  CG1      -66.6990  -85.1980  -81.7830 C.3    10  ILE10       0.0019
      7  CG2      -65.7690  -83.0620  -80.9210 C.3    10  ILE10       0.0020
      8  CD1      -66.7530  -84.7060  -83.2150 C.3    10  ILE10       0.0001
      9  N        -68.0960  -82.8770  -78.1880 N.am   11  GLY11      -0.1942
     10  CA       -68.2200  -81.7350  -77.3070 C.3    11  GLY11       0.2014
     11  C        -69.6050  -81.1150  -77.2990 C.2    11  GLY11       0.2639
     12  O        -70.5800  -81.6880  -77.7970 O.2    11  GLY11      -0.2714
     13  N        -69.6860  -79.9280  -76.7110 N.am   12  GLU12      -0.1963
     14  CA       -70.9370  -79.1940  -76.6170 C.3    12  GLU12       0.1733
     15  C        -70.8500  -78.0090  -77.5520 C.2    12  GLU12       0.2616
     16  O        -69.9460  -77.1880  -77.4380 O.2    12  GLU12      -0.2715
     17  CB       -71.1630  -78.7060  -75.1840 C.3    12  GLU12       0.0429
     18  CG       -71.4760  -79.8070  -74.1810 C.3    12  GLU12       0.1163
     19  CD       -72.9030  -80.3280  -74.3060 C.2    12  GLU12       0.3649
     20  OE1      -73.7080  -79.7050  -75.0350 O.co2  12  GLU12      -0.2457
     21  OE2      -73.2230  -81.3550  -73.6650 O.co2  12  GLU12      -0.2457
     22  N        -71.7870  -77.9260  -78.4850 N.am   13  GLY13      -0.1955
     23  CA       -71.7790  -76.8210  -79.4210 C.3    13  GLY13       0.1869
     24  C        -72.7500  -75.7390  -79.0090 C.2    13  GLY13       0.2309
     25  O        -73.4790  -75.8920  -78.0320 O.2    13  GLY13      -0.2863
     26  N        -72.4210  -82.3650  -80.0330 N.3    18  VAL18      -0.1245
     27  CA       -71.7840  -82.7770  -81.2880 C.3    18  VAL18       0.1561
     28  C        -71.1210  -84.1320  -81.0720 C.2    18  VAL18       0.2260
     29  O        -70.4180  -84.3360  -80.0800 O.2    18  VAL18      -0.2867
     30  CB       -70.6970  -81.7790  -81.7340 C.3    18  VAL18       0.0252
     31  CG1      -70.0780  -82.2430  -83.0480 C.3    18  VAL18       0.0019
     32  CG2      -71.3020  -80.3860  -81.8840 C.3    18  VAL18       0.0019
     33  N        -69.1010  -85.3580  -88.3280 N.3    31  ALA31      -0.1245
     34  CA       -69.3800  -84.6240  -87.0970 C.3    31  ALA31       0.1562
     35  C        -70.8870  -84.4510  -87.1410 C.2    31  ALA31       0.2260
     36  O        -71.4190  -83.7500  -88.0120 O.2    31  ALA31      -0.2867
     37  CB       -68.6880  -83.2720  -87.1060 C.3    31  ALA31       0.0290
     38  N        -74.2340  -83.0530  -85.4560 N.3    33  LYS33      -0.1245
     39  CA       -74.6810  -82.0800  -84.4750 C.3    33  LYS33       0.1561
     40  C        -76.1830  -82.1110  -84.2650 C.2    33  LYS33       0.2260
     41  O        -76.9510  -81.8740  -85.1940 O.2    33  LYS33      -0.2867
     42  CB       -74.2580  -80.6740  -84.9010 C.3    33  LYS33       0.0271
     43  CG       -72.8000  -80.5900  -85.3290 C.3    33  LYS33       0.0035
     44  CD       -72.3380  -79.1300  -85.4870 C.3    33  LYS33       0.0206
     45  CE       -70.8890  -79.0700  -85.9380 C.3    33  LYS33       0.1093
     46  NZ       -70.3120  -77.6890  -85.9300 N.3    33  LYS33      -0.1314
     47  N        -65.8750  -75.7910  -93.6010 N.3    60  VAL60      -0.1245
     48  CA       -66.2200  -77.1820  -93.2740 C.3    60  VAL60       0.1561
     49  C        -67.5230  -77.5070  -93.9910 C.2    60  VAL60       0.2260
     50  O        -68.5440  -76.8630  -93.7680 O.2    60  VAL60      -0.2867
     51  CB       -66.4160  -77.3610  -91.7470 C.3    60  VAL60       0.0252
     52  CG1      -66.8900  -78.7920  -91.4270 C.3    60  VAL60       0.0019
     53  CG2      -65.1000  -77.0830  -91.0430 C.3    60  VAL60       0.0019
     54  N        -71.7540  -82.7200  -90.6690 N.3    76  PHE76      -0.1227
     55  CA       -70.5910  -81.9880  -91.1510 C.3    76  PHE76       0.1736
     56  C        -69.4210  -82.9090  -91.4550 C.2    76  PHE76       0.2595
     57  O        -69.3210  -83.9860  -90.8770 O.2    76  PHE76      -0.2718
     58  CB       -70.1470  -80.9930  -90.0670 C.3    76  PHE76       0.0547
     59  CG       -70.9790  -79.7450  -89.9920 C.ar   76  PHE76      -0.0202
     60  CD1      -70.6440  -78.6220  -90.7500 C.ar   76  PHE76      -0.0042
     61  CD2      -72.0830  -79.6760  -89.1420 C.ar   76  PHE76      -0.0042
     62  CE1      -71.3960  -77.4480  -90.6590 C.ar   76  PHE76      -0.0003
     63  CE2      -72.8410  -78.5060  -89.0480 C.ar   76  PHE76      -0.0003
     64  CZ       -72.5020  -77.3950  -89.8040 C.ar   76  PHE76      -0.0000
     65  N        -68.5320  -82.4890  -92.3580 N.am   77  GLU77      -0.1965
     66  CA       -67.3490  -83.2940  -92.6460 C.3    77  GLU77       0.1733
     67  C        -66.5410  -83.2670  -91.3510 C.2    77  GLU77       0.2616
     68  O        -66.5410  -82.2640  -90.6260 O.2    77  GLU77      -0.2715
     69  CB       -66.5210  -82.7200  -93.8030 C.3    77  GLU77       0.0429
     70  CG       -65.8700  -81.3850  -93.5410 C.3    77  GLU77       0.1163
     71  CD       -64.9500  -80.9400  -94.6820 C.2    77  GLU77       0.3649
     72  OE1      -63.9960  -81.6720  -95.0170 O.co2  77  GLU77      -0.2457
     73  OE2      -65.1760  -79.8580  -95.2380 O.co2  77  GLU77      -0.2457
     74  N        -65.8780  -84.3730  -91.0430 N.am   78  PHE78      -0.1960
     75  CA       -65.1190  -84.4550  -89.8090 C.3    78  PHE78       0.1771
     76  C        -63.6690  -84.0310  -90.0090 C.2    78  PHE78       0.2619
     77  O        -62.9800  -84.5240  -90.9120 O.2    78  PHE78      -0.2715
     78  CB       -65.2050  -85.8870  -89.2610 C.3    78  PHE78       0.0574
     79  CG       -64.4340  -86.1160  -87.9860 C.ar   78  PHE78      -0.0200
     80  CD1      -63.1310  -86.6050  -88.0240 C.ar   78  PHE78      -0.0042
     81  CD2      -65.0220  -85.8760  -86.7460 C.ar   78  PHE78      -0.0042
     82  CE1      -62.4200  -86.8580  -86.8440 C.ar   78  PHE78      -0.0003
     83  CE2      -64.3240  -86.1240  -85.5620 C.ar   78  PHE78      -0.0003
     84  CZ       -63.0200  -86.6160  -85.6110 C.ar   78  PHE78      -0.0000
     85  N        -63.2240  -83.0770  -89.1970 N.am   79  LEU79      -0.1963
     86  CA       -61.8380  -82.6400  -89.2730 C.3    79  LEU79       0.1728
     87  C        -61.0780  -83.1550  -88.0670 C.2    79  LEU79       0.2616
     88  O        -61.6650  -83.5090  -87.0500 O.2    79  LEU79      -0.2715
     89  CB       -61.7260  -81.1220  -89.4250 C.3    79  LEU79       0.0311
     90  CG       -61.6590  -80.8850  -90.9380 C.3    79  LEU79       0.0022
     91  CD1      -63.0060  -80.4430  -91.4450 C.3    79  LEU79       0.0001
     92  CD2      -60.5840  -79.8920  -91.2770 C.3    79  LEU79       0.0001
     93  N        -59.7590  -83.1680  -88.2150 N.am   80  HIS80      -0.1959
     94  CA       -58.8000  -83.7110  -87.2610 C.3    80  HIS80       0.1787
     95  C        -58.6460  -83.0830  -85.8700 C.2    80  HIS80       0.2620
     96  O        -58.5950  -83.7990  -84.8710 O.2    80  HIS80      -0.2715
     97  CB       -57.4370  -83.7760  -87.9820 C.3    80  HIS80       0.0785
     98  CG       -57.5090  -84.3630  -89.3690 C.ar   80  HIS80       0.0821
     99  ND1      -56.4160  -84.4300  -90.2130 N.ar   80  HIS80      -0.2267
    100  CD2      -58.5470  -84.8980  -90.0600 C.ar   80  HIS80       0.1154
    101  CE1      -56.7780  -84.9760  -91.3620 C.ar   80  HIS80       0.1986
    102  NE2      -58.0670  -85.2710  -91.2950 N.ar   80  HIS80      -0.2212
    103  N        -58.5980  -81.7610  -85.7850 N.am   81  GLN81      -0.1963
    104  CA       -58.4100  -81.1050  -84.4800 C.3    81  GLN81       0.1733
    105  C        -58.9320  -79.6800  -84.5670 C.2    81  GLN81       0.2616
    106  O        -59.0550  -79.1730  -85.6710 O.2    81  GLN81      -0.2715
    107  CB       -56.9110  -81.0990  -84.1640 C.3    81  GLN81       0.0408
    108  CG       -56.5040  -80.5240  -82.8010 C.3    81  GLN81       0.0908
    109  CD       -55.0980  -80.9840  -82.4260 C.2    81  GLN81       0.2608
    110  OE1      -54.8830  -82.1580  -82.1090 O.2    81  GLN81      -0.2717
    111  NE2      -54.1400  -80.0820  -82.5000 N.am   81  GLN81      -0.0878
    112  N        -59.2910  -79.0490  -83.4420 N.am   82  ASP82      -0.1971
    113  CA       -59.7360  -77.6560  -83.5280 C.3    82  ASP82       0.1709
    114  C        -58.5910  -76.7300  -83.1430 C.2    82  ASP82       0.2293
    115  O        -57.5890  -77.1670  -82.5810 O.2    82  ASP82      -0.2864
    116  CB       -61.0020  -77.3530  -82.6930 C.3    82  ASP82       0.1436
    117  CG       -60.7990  -77.4660  -81.1790 C.2    82  ASP82       0.3671
    118  OD1      -59.7480  -77.0790  -80.6350 O.co2  82  ASP82      -0.2456
    119  OD2      -61.7490  -77.9190  -80.5200 O.co2  82  ASP82      -0.2456
    120  N        -57.5690  -76.5390  -79.2860 N.3    85  LYS85      -0.1245
    121  CA       -56.6860  -77.6060  -78.8320 C.3    85  LYS85       0.1561
    122  C        -55.2940  -77.4580  -79.4090 C.2    85  LYS85       0.2260
    123  O        -54.3110  -77.6680  -78.7010 O.2    85  LYS85      -0.2867
    124  CB       -57.2690  -78.9780  -79.1900 C.3    85  LYS85       0.0271
    125  CG       -58.6530  -79.1790  -78.6160 C.3    85  LYS85       0.0035
    126  CD       -59.0460  -80.6500  -78.5390 C.3    85  LYS85       0.0206
    127  CE       -60.5590  -80.8110  -78.3600 C.3    85  LYS85       0.1093
    128  NZ       -61.0460  -80.2760  -77.0530 N.3    85  LYS85      -0.1314
    129  N        -64.8580  -68.5760  -83.3530 N.3   125  LYS125     -0.1245
    130  CA       -64.0430  -68.7830  -82.1780 C.3   125  LYS125      0.1561
    131  C        -63.1270  -69.9680  -82.4540 C.2   125  LYS125      0.2260
    132  O        -63.3800  -70.7640  -83.3600 O.2   125  LYS125     -0.2867
    133  CB       -64.9040  -69.0240  -80.9330 C.3   125  LYS125      0.0271
    134  CG       -65.9410  -70.1180  -81.0580 C.3   125  LYS125      0.0035
    135  CD       -67.0500  -69.9240  -80.0130 C.3   125  LYS125      0.0206
    136  CE       -68.1770  -70.9100  -80.2530 C.3   125  LYS125      0.1093
    137  NZ       -69.3280  -70.6890  -79.3340 N.3   125  LYS125     -0.1314
    138  N        -62.8310  -72.7590  -81.2340 N.3   127  GLN127     -0.1231
    139  CA       -63.5350  -74.0400  -81.2530 C.3   127  GLN127      0.1698
    140  C        -64.1740  -74.4140  -82.5880 C.2   127  GLN127      0.2592
    141  O        -64.3410  -75.6110  -82.8760 O.2   127  GLN127     -0.2718
    142  CB       -64.6100  -74.0760  -80.1580 C.3   127  GLN127      0.0381
    143  CG       -64.0900  -73.7970  -78.7520 C.3   127  GLN127      0.0905
    144  CD       -64.1510  -72.3260  -78.3740 C.2   127  GLN127      0.2608
    145  OE1      -63.4010  -71.4970  -78.8940 O.2   127  GLN127     -0.2717
    146  NE2      -65.0550  -71.9960  -77.4570 N.am  127  GLN127     -0.0878
    147  N        -64.5630  -73.4340  -83.4010 N.am  128  ASN128     -0.1974
    148  CA       -65.1420  -73.8080  -84.6870 C.3   128  ASN128      0.1688
    149  C        -64.2260  -73.5760  -85.8800 C.2   128  ASN128      0.2292
    150  O        -64.6990  -73.4580  -87.0100 O.2   128  ASN128     -0.2864
    151  CB       -66.5300  -73.1840  -84.9280 C.3   128  ASN128      0.1181
    152  CG       -66.5700  -71.7080  -84.6790 C.2   128  ASN128      0.2629
    153  OD1      -65.6570  -70.9660  -85.0650 O.2   128  ASN128     -0.2716
    154  ND2      -67.6540  -71.2560  -84.0500 N.am  128  ASN128     -0.0877
    155  N        -61.2710  -75.5230  -87.6160 N.3   130  LEU130     -0.1245
    156  CA       -60.7580  -76.8940  -87.6160 C.3   130  LEU130      0.1561
    157  C        -59.5870  -77.0770  -88.5670 C.2   130  LEU130      0.2260
    158  O        -59.6220  -76.5730  -89.6620 O.2   130  LEU130     -0.2867
    159  CB       -61.9040  -77.8140  -88.0110 C.3   130  LEU130      0.0270
    160  CG       -63.1000  -77.5070  -87.0920 C.3   130  LEU130      0.0019
    161  CD1      -64.3310  -78.1900  -87.5900 C.3   130  LEU130      0.0001
    162  CD2      -62.7610  -77.9600  -85.6620 C.3   130  LEU130      0.0001
    163  N        -66.2110  -73.7240  -89.4610 N.3   140  ALA140     -0.1231
    164  CA       -67.4440  -74.4750  -89.3450 C.3   140  ALA140      0.1694
    165  C        -68.5460  -73.5720  -88.7930 C.2   140  ALA140      0.2592
    166  O        -68.2680  -72.6120  -88.0690 O.2   140  ALA140     -0.2718
    167  CB       -67.2450  -75.6640  -88.3950 C.3   140  ALA140      0.0304
    168  N        -69.7850  -73.8980  -89.1560 N.am  141  ASP141     -0.1974
    169  CA       -70.9920  -73.2300  -88.6700 C.3   141  ASP141      0.1709
    170  C        -71.3770  -71.8760  -89.2340 C.2   141  ASP141      0.2293
    171  O        -72.1830  -71.1690  -88.6290 O.2   141  ASP141     -0.2864
    172  CB       -70.9640  -73.1690  -87.1410 C.3   141  ASP141      0.1436
    173  CG       -70.9460  -74.5620  -86.5030 C.2   141  ASP141      0.3671
    174  OD1      -71.1880  -75.5750  -87.2210 O.co2 141  ASP141     -0.2456
    175  OD2      -70.6950  -74.6460  -85.2780 O.co2 141  ASP141     -0.2456
@<TRIPOS>BOND
     1    73    71   ar
     2    72    71   ar
     3    71    70    1
     4    49    50    2
     5    49    48    1
     6    69    70    1
     7    69    66    1
     8    47    48    1
     9    48    51    1
    10    66    65    1
    11    66    67    1
    12    65    56   am
    13    51    52    1
    14    51    53    1
    15    56    55    1
    16    56    57    2
    17    91    90    1
    18   101   102   ar
    19   101    99   ar
    20    67    74   am
    21    67    68    2
    22   102   100   ar
    23    92    90    1
    24    55    54    1
    25    55    58    1
    26    74    75    1
    27    90    89    1
    28    77    76    2
    29    60    62   ar
    30    60    59   ar
    31    62    64   ar
    32    99    98   ar
    33    58    59    1
    34   100    98   ar
    35    76    75    1
    36    76    85   am
    37    59    61   ar
    38    75    78    1
    39    64    63   ar
    40   158   157    2
    41   163   164    1
    42    89    86    1
    43    98    97    1
    44   164   165    1
    45   164   167    1
    46    86    85    1
    47    86    87    1
    48    78    79    1
    49   170   169    1
    50   170   171    2
    51   168   165   am
    52   168   169    1
    53    61    63   ar
    54   165   166    2
    55   169   172    1
    56   157   156    1
    57    33    34    1
    58    93    87   am
    59    93    94    1
    60    87    88    2
    61    80    79   ar
    62    80    82   ar
    63    36    35    2
    64   159   156    1
    65   159   160    1
    66    79    81   ar
    67    97    94    1
    68   155   156    1
    69   161   160    1
    70    94    95    1
    71   174   173   ar
    72    35    34    1
    73   172   173    1
    74    37    34    1
    75   160   162    1
    76   150   149    2
    77    82    84   ar
    78    81    83   ar
    79   173   175   ar
    80    45    46    1
    81    45    44    1
    82   149   148    1
    83    95   103   am
    84    95    96    2
    85   103   104    1
    86   106   105    2
    87    84    83   ar
    88    44    43    1
    89    38    39    1
    90    43    42    1
    91    41    40    2
    92   153   152    2
    93   151   148    1
    94   151   152    1
    95    42    39    1
    96   148   147    1
    97   152   154   am
    98   105   104    1
    99   105   112   am
   100   104   107    1
   101    39    40    1
   102   107   108    1
   103   113   112    1
   104   113   114    1
   105   113   116    1
   106   147   140   am
   107   132   131    2
   108   129   130    1
   109     8     6    1
   110   114   115    2
   111    31    30    1
   112   141   140    2
   113   108   109    1
   114   116   117    1
   115   140   139    1
   116   111   109   am
   117   131   130    1
   118   109   110    2
   119   130   133    1
   120    32    30    1
   121     6     5    1
   122    30    27    1
   123    27    28    1
   124    27    26    1
   125   139   138    1
   126   139   142    1
   127   117   118   ar
   128   117   119   ar
   129    28    29    2
   130   134   133    1
   131   134   135    1
   132     7     5    1
   133     5     2    1
   134   136   135    1
   135   136   137    1
   136   142   143    1
   137    23    24    1
   138    23    22    1
   139   122   121    1
   140   122   123    2
   141     2     1    1
   142     2     3    1
   143   120   121    1
   144   124   121    1
   145   124   125    1
   146    24    25    2
   147   145   144    2
   148   143   144    1
   149   125   126    1
   150   126   127    1
   151    22    15   am
   152   144   146   am
   153     3     9   am
   154     3     4    2
   155   127   128    1
   156     9    10    1
   157    12    11    2
   158    15    16    2
   159    15    14    1
   160    10    11    1
   161    11    13   am
   162    13    14    1
   163    14    17    1
   164    17    18    1
   165    20    19   ar
   166    19    18    1
   167    19    21   ar
