@<TRIPOS>MOLECULE
tmp/3r8xA01.pdb
 88 86 0 0 0
SMALL
GASTEIGER

@<TRIPOS>ATOM
      1  N        -24.2470  -21.0400  -23.2130 N.3   156  PRO156     -0.2102
      2  CA       -23.4150  -20.3070  -24.1740 C.3   156  PRO156      0.1504
      3  C        -22.8400  -19.0020  -23.6200 C.2   156  PRO156      0.2575
      4  O        -21.7730  -18.6020  -24.0530 O.2   156  PRO156     -0.2718
      5  CB       -24.3930  -20.0160  -25.3300 C.3   156  PRO156      0.0282
      6  CG       -25.4160  -21.1150  -25.2310 C.3   156  PRO156      0.0208
      7  CD       -25.5570  -21.4220  -23.7870 C.3   156  PRO156      0.0893
      8  N        -23.5760  -18.3120  -22.7560 N.am  157  GLU157     -0.1980
      9  CA       -23.0800  -17.1020  -22.1080 C.3   157  GLU157      0.1602
     10  C        -22.5480  -17.2680  -20.6800 C.2   157  GLU157      0.2287
     11  O        -22.2290  -16.2730  -20.0380 O.2   157  GLU157     -0.2864
     12  CB       -24.1400  -16.0050  -22.1310 C.3   157  GLU157      0.0415
     13  CG       -24.5860  -15.6480  -23.4960 C.3   157  GLU157      0.1163
     14  CD       -23.6120  -14.7110  -24.2040 C.2   157  GLU157      0.3649
     15  OE1      -23.7080  -14.6080  -25.4410 O.co2 157  GLU157     -0.2457
     16  OE2      -22.7630  -14.0730  -23.5370 O.co2 157  GLU157     -0.2457
     17  N        -12.8780  -17.6470  -27.3980 N.3   220  GLU220     -0.1245
     18  CA       -14.1310  -17.1580  -26.8580 C.3   220  GLU220      0.1567
     19  C        -14.4010  -17.8220  -25.5100 C.2   220  GLU220      0.2260
     20  O        -14.9390  -17.1910  -24.6010 O.2   220  GLU220     -0.2867
     21  CB       -15.2920  -17.3920  -27.8150 C.3   220  GLU220      0.0388
     22  CG       -16.5180  -16.5700  -27.4790 C.3   220  GLU220      0.1160
     23  CD       -17.4670  -17.2590  -26.5020 C.2   220  GLU220      0.3649
     24  OE1      -17.4020  -18.5070  -26.3790 O.co2 220  GLU220     -0.2457
     25  OE2      -18.2920  -16.5520  -25.8750 O.co2 220  GLU220     -0.2457
     26  N        -12.3710  -15.8880  -22.9690 N.3   223  ILE223     -0.1231
     27  CA       -13.0280  -14.6460  -22.5930 C.3   223  ILE223      0.1692
     28  C        -14.1220  -14.8660  -21.5280 C.2   223  ILE223      0.2591
     29  O        -14.3240  -14.0270  -20.6610 O.2   223  ILE223     -0.2718
     30  CB       -13.5910  -13.9560  -23.8230 C.3   223  ILE223      0.0266
     31  CG1      -12.4330  -13.3280  -24.6110 C.3   223  ILE223      0.0019
     32  CG2      -14.6880  -12.9400  -23.4220 C.3   223  ILE223      0.0020
     33  CD1      -12.6700  -13.1920  -26.1010 C.3   223  ILE223      0.0001
     34  N        -14.8290  -15.9870  -21.5900 N.am  224  ARG224     -0.1980
     35  CA       -15.8360  -16.2750  -20.5670 C.3   224  ARG224      0.1597
     36  C        -15.2190  -16.8230  -19.2910 C.2   224  ARG224      0.2287
     37  O        -15.6130  -16.4330  -18.1920 O.2   224  ARG224     -0.2864
     38  CB       -16.9460  -17.1860  -21.1150 C.3   224  ARG224      0.0334
     39  CG       -17.8100  -16.4460  -22.1510 C.3   224  ARG224      0.0492
     40  CD       -19.0460  -17.2000  -22.5640 C.3   224  ARG224      0.2205
     41  NE       -18.6810  -18.2110  -23.5320 N.pl3 224  ARG224     -0.0865
     42  CZ       -18.6590  -19.5110  -23.2810 C.cat 224  ARG224      0.5346
     43  NH1      -19.0160  -19.9700  -22.0750 N.pl3 224  ARG224      0.1354
     44  NH2      -18.2990  -20.3500  -24.2520 N.pl3 224  ARG224      0.1354
     45  N        -14.3210   -8.2840  -22.8580 N.3   244  TRP244     -0.1227
     46  CA       -15.4980   -8.8280  -22.1690 C.3   244  TRP244      0.1737
     47  C        -16.4280   -9.8060  -22.9140 C.2   244  TRP244      0.2595
     48  O        -16.9880  -10.7250  -22.2970 O.2   244  TRP244     -0.2718
     49  CB       -16.3080   -7.6920  -21.5510 C.3   244  TRP244      0.0564
     50  CG       -15.5360   -6.9920  -20.5190 C.ar  244  TRP244      0.0003
     51  CD1      -14.8450   -5.8250  -20.6620 C.ar  244  TRP244      0.0946
     52  CD2      -15.3310   -7.4240  -19.1670 C.ar  244  TRP244      0.0152
     53  NE1      -14.2390   -5.4900  -19.4720 N.ar  244  TRP244     -0.2442
     54  CE2      -14.5250   -6.4540  -18.5390 C.ar  244  TRP244      0.0810
     55  CE3      -15.7700   -8.5250  -18.4250 C.ar  244  TRP244      0.0012
     56  CZ2      -14.1350   -6.5580  -17.2100 C.ar  244  TRP244      0.0191
     57  CZ3      -15.3870   -8.6310  -17.1030 C.ar  244  TRP244      0.0001
     58  CH2      -14.5730   -7.6540  -16.5050 C.ar  244  TRP244      0.0015
     59  N        -16.6550   -9.5550  -24.2050 N.am  245  GLN245     -0.1965
     60  CA       -17.5340  -10.3980  -25.0110 C.3   245  GLN245      0.1733
     61  C        -17.0000  -10.5310  -26.4310 C.2   245  GLN245      0.2616
     62  O        -16.3910   -9.6050  -26.9670 O.2   245  GLN245     -0.2715
     63  CB       -18.9520   -9.8190  -25.0620 C.3   245  GLN245      0.0408
     64  CG       -19.6660   -9.7180  -23.7150 C.3   245  GLN245      0.0908
     65  CD       -21.0540   -9.1160  -23.8360 C.2   245  GLN245      0.2608
     66  OE1      -21.7140   -9.2470  -24.8640 O.2   245  GLN245     -0.2717
     67  NE2      -21.5060   -8.4530  -22.7850 N.am  245  GLN245     -0.0878
     68  N        -17.2410  -11.6940  -27.0260 N.am  246  ALA246     -0.1963
     69  CA       -16.8570  -11.9550  -28.3970 C.3   246  ALA246      0.1728
     70  C        -17.8080  -12.9700  -28.9980 C.2   246  ALA246      0.2616
     71  O        -18.6610  -13.5350  -28.3020 O.2   246  ALA246     -0.2715
     72  CB       -15.4360  -12.4930  -28.4390 C.3   246  ALA246      0.0334
     73  N        -17.6330  -13.2440  -30.2850 N.am  247  GLN247     -0.1977
     74  CA       -18.3720  -14.3300  -30.9060 C.3   247  GLN247      0.1601
     75  C        -17.4620  -15.0850  -31.8500 C.2   247  GLN247      0.2287
     76  O        -16.3830  -14.6110  -32.1730 O.2   247  GLN247     -0.2864
     77  CB       -19.6880  -13.8540  -31.5600 C.3   247  GLN247      0.0394
     78  CG       -19.5430  -12.8450  -32.6070 C.3   247  GLN247      0.0908
     79  CD       -20.8430  -12.1190  -32.9450 C.2   247  GLN247      0.2608
     80  OE1      -21.9400  -12.4500  -32.4640 O.2   247  GLN247     -0.2717
     81  NE2      -20.7110  -11.0970  -33.7740 N.am  247  GLN247     -0.0878
     82  N        -16.6680   -8.1770  -29.5240 N.3   280  THR280     -0.1218
     83  CA       -17.7700   -7.2190  -29.4220 C.3   280  THR280      0.1862
     84  C        -17.8230   -6.2090  -28.2560 C.2   280  THR280      0.2287
     85  O        -18.4880   -5.1760  -28.3600 O.2   280  THR280     -0.2866
     86  CB       -19.1280   -7.9900  -29.4700 C.3   280  THR280      0.1770
     87  OG1      -19.2130   -8.8640  -28.3590 O.3   280  THR280     -0.2211
     88  CG2      -19.2320   -8.8550  -30.7360 C.3   280  THR280      0.0375
@<TRIPOS>BOND
     1    81    79   am
     2    79    78    1
     3    79    80    2
     4    78    77    1
     5    76    75    2
     6    75    74    1
     7    77    74    1
     8    74    73    1
     9    88    86    1
    10    73    70   am
    11    82    83    1
    12    86    83    1
    13    86    87    1
    14    83    84    1
    15    70    69    1
    16    70    71    2
    17    72    69    1
    18    69    68    1
    19    85    84    2
    20    21    22    1
    21    21    18    1
    22    22    23    1
    23    17    18    1
    24    68    61   am
    25    62    61    2
    26    18    19    1
    27    23    24   ar
    28    23    25   ar
    29    61    60    1
    30    33    31    1
    31    19    20    2
    32    15    14   ar
    33     5     6    1
    34     5     2    1
    35     6     7    1
    36    63    60    1
    37    63    64    1
    38    60    59    1
    39    66    65    2
    40    31    30    1
    41    44    42    1
    42    59    47   am
    43    14    16   ar
    44    14    13    1
    45     2     3    1
    46     2     1    1
    47     4     3    2
    48    65    64    1
    49    65    67   am
    50    30    32    1
    51    30    27    1
    52     7     1    1
    53     3     8   am
    54    41    42    2
    55    41    40    1
    56    13    12    1
    57    42    43    1
    58    26    27    1
    59    47    48    2
    60    47    46    1
    61    45    46    1
    62     8     9    1
    63    27    28    1
    64    40    39    1
    65    46    49    1
    66    39    38    1
    67    12     9    1
    68     9    10    1
    69    34    28   am
    70    34    35    1
    71    49    50    1
    72    28    29    2
    73    38    35    1
    74    10    11    2
    75    51    50   ar
    76    51    53   ar
    77    35    36    1
    78    50    52   ar
    79    53    54   ar
    80    36    37    2
    81    52    54   ar
    82    52    55   ar
    83    54    56   ar
    84    55    57   ar
    85    56    58   ar
    86    57    58   ar
