@<TRIPOS>MOLECULE
tmp/3r8xA00.pdb
 106 101 0 0 0
SMALL
GASTEIGER

@<TRIPOS>ATOM
      1  N        -16.1050  -29.8710    4.7010 N.3    83  VAL83      -0.1245
      2  CA       -15.0310  -29.0000    4.2370 C.3    83  VAL83       0.1561
      3  C        -15.3760  -28.4100    2.8850 C.2    83  VAL83       0.2260
      4  O        -15.6310  -29.1490    1.9240 O.2    83  VAL83      -0.2867
      5  CB       -13.7010  -29.7650    4.1460 C.3    83  VAL83       0.0252
      6  CG1      -12.6170  -28.8660    3.5760 C.3    83  VAL83       0.0019
      7  CG2      -13.3080  -30.2850    5.5340 C.3    83  VAL83       0.0019
      8  N        -13.9660  -25.3110    0.3340 N.3    85  ALA85      -0.1231
      9  CA       -13.0290  -24.2170    0.0460 C.3    85  ALA85       0.1694
     10  C        -12.3660  -23.6750    1.3090 C.2    85  ALA85       0.2592
     11  O        -12.3460  -22.4630    1.5390 O.2    85  ALA85      -0.2718
     12  CB       -13.7350  -23.0850   -0.7070 C.3    85  ALA85       0.0304
     13  N        -11.8540  -24.5730    2.1370 N.am   86  TYR86      -0.1962
     14  CA       -11.2140  -24.2020    3.3860 C.3    86  TYR86       0.1771
     15  C         -9.8600  -23.5900    3.1120 C.2    86  TYR86       0.2620
     16  O         -9.5450  -22.5120    3.6120 O.2    86  TYR86      -0.2715
     17  CB       -11.0630  -25.4300    4.2850 C.3    86  TYR86       0.0574
     18  CG       -10.4280  -25.1730    5.6400 C.ar   86  TYR86      -0.0198
     19  CD1      -10.6000  -23.9620    6.3090 C.ar   86  TYR86      -0.0009
     20  CD2       -9.6650  -26.1550    6.2590 C.ar   86  TYR86      -0.0009
     21  CE1      -10.0220  -23.7450    7.5620 C.ar   86  TYR86       0.0417
     22  CE2       -9.0820  -25.9510    7.4980 C.ar   86  TYR86       0.0417
     23  CZ        -9.2590  -24.7510    8.1530 C.ar   86  TYR86       0.1957
     24  OH        -8.6650  -24.5690    9.3990 O.3    86  TYR86      -0.2866
     25  N         -9.0380  -24.2730    2.3300 N.am   87  GLY87      -0.1940
     26  CA        -7.7630  -23.6730    1.9720 C.3    87  GLY87       0.2014
     27  C         -6.5740  -24.0540    2.8350 C.2    87  GLY87       0.2638
     28  O         -5.4460  -23.6480    2.5620 O.2    87  GLY87      -0.2714
     29  N         -6.8120  -24.8300    3.8830 N.am   88  LEU88      -0.1977
     30  CA        -5.7170  -25.4050    4.6560 C.3    88  LEU88       0.1596
     31  C         -5.8340  -26.9060    4.5190 C.2    88  LEU88       0.2287
     32  O         -6.9120  -27.4300    4.2200 O.2    88  LEU88      -0.2864
     33  CB        -5.7780  -25.0140    6.1340 C.3    88  LEU88       0.0297
     34  CG        -5.2640  -23.6420    6.5630 C.3    88  LEU88       0.0022
     35  CD1       -6.1160  -22.5490    5.9840 C.3    88  LEU88       0.0001
     36  CD2       -5.2870  -23.5460    8.0690 C.3    88  LEU88       0.0001
     37  N         -5.9840  -30.8050    5.6850 N.3    90  LEU90      -0.1245
     38  CA        -6.3040  -31.6330    6.8370 C.3    90  LEU90       0.1561
     39  C         -5.3200  -32.7760    6.8980 C.2    90  LEU90       0.2260
     40  O         -5.3840  -33.6900    6.0850 O.2    90  LEU90      -0.2867
     41  CB        -7.7200  -32.1850    6.7440 C.3    90  LEU90       0.0270
     42  CG        -8.7950  -31.2090    7.2040 C.3    90  LEU90       0.0019
     43  CD1       -8.7370  -29.9210    6.3870 C.3    90  LEU90       0.0001
     44  CD2      -10.1690  -31.8500    7.0980 C.3    90  LEU90       0.0001
     45  N        -15.9790  -33.3310    1.5690 N.3   104  ASN104     -0.1225
     46  CA       -15.6870  -32.0980    0.8850 C.3   104  ASN104      0.1785
     47  C        -16.6840  -31.8960   -0.2860 C.2   104  ASN104      0.2597
     48  O        -17.0900  -32.8480   -0.9480 O.2   104  ASN104     -0.2718
     49  CB       -14.2320  -32.1750    0.4070 C.3   104  ASN104      0.1169
     50  CG       -13.8130  -30.9840   -0.4300 C.2   104  ASN104      0.2627
     51  OD1      -13.6510  -31.1060   -1.6220 O.2   104  ASN104     -0.2716
     52  ND2      -13.5990  -29.8440    0.2050 N.am  104  ASN104     -0.0877
     53  N        -17.1180  -30.6580   -0.4820 N.am  105  VAL105     -0.1966
     54  CA       -17.8940  -30.2790   -1.6560 C.3   105  VAL105      0.1727
     55  C        -16.9470  -29.6500   -2.6680 C.2   105  VAL105      0.2616
     56  O        -16.3790  -28.5910   -2.4250 O.2   105  VAL105     -0.2715
     57  CB       -19.0050  -29.2650   -1.3310 C.3   105  VAL105      0.0290
     58  CG1      -19.8990  -29.0630   -2.5380 C.3   105  VAL105      0.0023
     59  CG2      -19.8280  -29.7330   -0.1280 C.3   105  VAL105      0.0023
     60  N        -16.7750  -30.3230   -3.7980 N.am  106  HIS106     -0.1959
     61  CA       -15.8620  -29.8800   -4.8530 C.3   106  HIS106      0.1787
     62  C        -16.6360  -29.4360   -6.0960 C.2   106  HIS106      0.2620
     63  O        -17.6190  -30.0600   -6.4790 O.2   106  HIS106     -0.2715
     64  CB       -14.9300  -31.0210   -5.2370 C.3   106  HIS106      0.0785
     65  CG       -13.8890  -30.6400   -6.2410 C.ar  106  HIS106      0.0821
     66  ND1      -12.7380  -29.9610   -5.8980 N.ar  106  HIS106     -0.2267
     67  CD2      -13.8060  -30.8760   -7.5730 C.ar  106  HIS106      0.1154
     68  CE1      -12.0050  -29.7700   -6.9810 C.ar  106  HIS106      0.1986
     69  NE2      -12.6270  -30.3220   -8.0090 N.ar  106  HIS106     -0.2212
     70  N        -16.1170  -28.4170   -6.7680 N.am  107  GLY107     -0.1954
     71  CA       -16.8010  -27.6600   -7.8130 C.3   107  GLY107      0.1869
     72  C        -16.6920  -28.1880   -9.2390 C.2   107  GLY107      0.2309
     73  O        -16.6300  -27.4080  -10.1780 O.2   107  GLY107     -0.2863
     74  N         -8.2330  -29.9730   -8.1200 N.3   115  GLY115     -0.1210
     75  CA        -7.3960  -28.7980   -7.9610 C.3   115  GLY115      0.1956
     76  C         -8.0260  -27.4370   -7.7800 C.2   115  GLY115      0.2611
     77  O         -9.1240  -27.3170   -7.2380 O.2   115  GLY115     -0.2717
     78  N         -7.2580  -26.4020   -8.1050 N.am  116  ALA116     -0.1979
     79  CA        -7.5670  -25.0300   -7.6820 C.3   116  ALA116      0.1597
     80  C         -8.7400  -24.3170   -8.3920 C.2   116  ALA116      0.2287
     81  O         -9.4980  -23.5570   -7.7660 O.2   116  ALA116     -0.2864
     82  CB        -6.3000  -24.1750   -7.7640 C.3   116  ALA116      0.0319
     83  N        -13.1810  -37.4230    2.0220 N.3   137  MET137     -0.1245
     84  CA       -11.8130  -36.9430    1.9540 C.3   137  MET137      0.1570
     85  C        -10.7790  -37.9850    2.3480 C.2   137  MET137      0.2261
     86  O        -10.9960  -38.7610    3.2720 O.2   137  MET137     -0.2867
     87  CB       -11.6400  -35.7060    2.8320 C.3   137  MET137      0.0387
     88  CG       -12.4500  -34.5430    2.3370 C.3   137  MET137      0.0595
     89  SD       -12.1560  -33.0920    3.3420 S.3   137  MET137     -0.1393
     90  CE       -10.4660  -32.7140    2.8690 C.3   137  MET137      0.0692
     91  N         -4.8640  -35.2930   -3.1700 N.3   141  LEU141     -0.1231
     92  CA        -5.5430  -34.0600   -3.5520 C.3   141  LEU141      0.1693
     93  C         -6.7600  -34.3910   -4.4120 C.2   141  LEU141      0.2592
     94  O         -6.6170  -34.8470   -5.5420 O.2   141  LEU141     -0.2718
     95  CB        -4.5930  -33.1670   -4.3530 C.3   141  LEU141      0.0284
     96  CG        -5.2190  -31.9180   -4.9760 C.3   141  LEU141      0.0019
     97  CD1       -5.5320  -30.8750   -3.9000 C.3   141  LEU141      0.0001
     98  CD2       -4.3040  -31.3380   -6.0390 C.3   141  LEU141      0.0001
     99  N         -7.9500  -34.1510   -3.8620 N.am  142  ASP142     -0.1974
    100  CA        -9.2170  -34.4450   -4.5250 C.3   142  ASP142      0.1709
    101  C         -9.2570  -35.8460   -5.1320 C.2   142  ASP142      0.2293
    102  O         -9.8550  -36.0480   -6.1830 O.2   142  ASP142     -0.2864
    103  CB        -9.5400  -33.3740   -5.5720 C.3   142  ASP142      0.1436
    104  CG        -9.5600  -31.9750   -4.9740 C.2   142  ASP142      0.3671
    105  OD1       -9.9510  -31.8650   -3.7970 O.co2 142  ASP142     -0.2456
    106  OD2       -9.1780  -30.9890   -5.6490 O.co2 142  ASP142     -0.2456
@<TRIPOS>BOND
     1    73    72    2
     2    72    71    1
     3    80    81    2
     4    80    79    1
     5    74    75    1
     6    78    76   am
     7    78    79    1
     8    69    67   ar
     9    69    68   ar
    10    75    76    1
    11    71    70    1
    12    76    77    2
    13    82    79    1
    14    67    65   ar
    15    68    66   ar
    16    70    62   am
    17    63    62    2
    18    65    66   ar
    19    65    64    1
    20   102   101    2
    21    62    61    1
    22    98    96    1
    23   106   104   ar
    24   103   104    1
    25   103   100    1
    26    94    93    2
    27    64    61    1
    28   101   100    1
    29    96    95    1
    30    96    97    1
    31   104   105   ar
    32    61    60    1
    33   100    99    1
    34    93    99   am
    35    93    92    1
    36    95    92    1
    37    60    55   am
    38    92    91    1
    39    55    56    2
    40    55    54    1
    41    58    57    1
    42    54    57    1
    43    54    53    1
    44    51    50    2
    45    57    59    1
    46    48    47    2
    47    12     9    1
    48    53    47   am
    49    50    52   am
    50    50    49    1
    51    47    46    1
    52     9     8    1
    53     9    10    1
    54    49    46    1
    55    46    45    1
    56    10    11    2
    57    10    13   am
    58     4     3    2
    59    84    83    1
    60    84    85    1
    61    84    87    1
    62    26    25    1
    63    26    27    1
    64    13    14    1
    65    25    15   am
    66    88    87    1
    67    88    89    1
    68    85    86    2
    69    28    27    2
    70    27    29   am
    71    90    89    1
    72     3     2    1
    73    15    14    1
    74    15    16    2
    75    14    17    1
    76     6     5    1
    77    29    30    1
    78     5     2    1
    79     5     7    1
    80    32    31    2
    81     2     1    1
    82    17    18    1
    83    31    30    1
    84    30    33    1
    85    18    20   ar
    86    18    19   ar
    87    37    38    1
    88    35    34    1
    89    40    39    2
    90    33    34    1
    91    20    22   ar
    92    19    21   ar
    93    43    42    1
    94    34    36    1
    95    41    38    1
    96    41    42    1
    97    38    39    1
    98    44    42    1
    99    22    23   ar
   100    21    23   ar
   101    23    24    1
