@<TRIPOS>MOLECULE
tmp/3r8zA00.pdb
 144 138 0 0 0
SMALL
GASTEIGER

@<TRIPOS>ATOM
      1  N        -66.9420  -49.6360  -41.0690 N.3    10  ILE10      -0.1231
      2  CA       -65.8620  -48.7280  -41.4040 C.3    10  ILE10       0.1696
      3  C        -66.1560  -47.2520  -41.1820 C.2    10  ILE10       0.2631
      4  O        -65.3190  -46.3980  -41.4760 O.2    10  ILE10      -0.2714
      5  CB       -65.4290  -48.9440  -42.8590 C.3    10  ILE10       0.0266
      6  CG1      -66.6170  -48.7250  -43.7910 C.3    10  ILE10       0.0019
      7  CG2      -64.8850  -50.3630  -43.0240 C.3    10  ILE10       0.0020
      8  CD1      -66.3120  -48.9950  -45.2410 C.3    10  ILE10       0.0001
      9  N        -67.3370  -46.9420  -40.6620 N.am   11  GLY11      -0.1732
     10  CA       -67.6550  -45.5470  -40.4360 C.2    11  GLY11       0.1340
     11  C        -68.9840  -45.2790  -39.7630 C.2    11  GLY11       0.2521
     12  O        -69.8670  -46.1310  -39.7200 O.2    11  GLY11      -0.2816
     13  N        -71.6310  -46.9200  -41.9710 N.3    18  VAL18      -0.1245
     14  CA       -70.9750  -47.3950  -43.1930 C.3    18  VAL18       0.1561
     15  C        -70.2430  -48.6970  -42.9420 C.2    18  VAL18       0.2260
     16  O        -69.4730  -48.8150  -41.9780 O.2    18  VAL18      -0.2867
     17  CB       -69.9640  -46.3530  -43.7090 C.3    18  VAL18       0.0252
     18  CG1      -69.4470  -46.7560  -45.0790 C.3    18  VAL18       0.0019
     19  CG2      -70.6290  -44.9970  -43.7980 C.3    18  VAL18       0.0019
     20  N        -68.4410  -50.2890  -50.2330 N.3    31  ALA31      -0.1245
     21  CA       -68.6980  -49.6060  -48.9630 C.3    31  ALA31       0.1562
     22  C        -70.2030  -49.5010  -49.0170 C.2    31  ALA31       0.2260
     23  O        -70.7580  -49.1500  -50.0550 O.2    31  ALA31      -0.2867
     24  CB       -68.1000  -48.2170  -48.9310 C.3    31  ALA31       0.0290
     25  N        -73.5520  -47.7680  -47.2270 N.3    33  LYS33      -0.1245
     26  CA       -74.0520  -46.8180  -46.2430 C.3    33  LYS33       0.1561
     27  C        -75.5320  -47.1120  -45.9740 C.2    33  LYS33       0.2260
     28  O        -76.3250  -47.2500  -46.9080 O.2    33  LYS33      -0.2867
     29  CB       -73.8750  -45.3860  -46.7480 C.3    33  LYS33       0.0271
     30  CG       -74.3330  -44.3090  -45.7540 C.3    33  LYS33       0.0035
     31  CD       -73.9930  -42.9150  -46.2640 C.3    33  LYS33       0.0206
     32  CE       -74.4690  -41.8160  -45.3150 C.3    33  LYS33       0.1093
     33  NZ       -74.0550  -40.4500  -45.7780 N.3    33  LYS33      -0.1314
     34  N        -65.8560  -40.7960  -55.7860 N.3    60  VAL60      -0.1245
     35  CA       -66.1600  -42.1710  -55.4370 C.3    60  VAL60       0.1561
     36  C        -67.4540  -42.5780  -56.1600 C.2    60  VAL60       0.2260
     37  O        -68.4850  -41.9240  -56.0360 O.2    60  VAL60      -0.2867
     38  CB       -66.3240  -42.3360  -53.8810 C.3    60  VAL60       0.0252
     39  CG1      -66.6160  -43.7810  -53.5170 C.3    60  VAL60       0.0019
     40  CG2      -65.0280  -41.9140  -53.2030 C.3    60  VAL60       0.0019
     41  N        -71.2970  -47.8840  -52.6420 N.3    76  PHE76      -0.1227
     42  CA       -70.1930  -47.1480  -53.2640 C.3    76  PHE76       0.1736
     43  C        -69.0010  -48.0280  -53.5590 C.2    76  PHE76       0.2595
     44  O        -68.8500  -49.0650  -52.9410 O.2    76  PHE76      -0.2718
     45  CB       -69.7060  -46.0530  -52.3070 C.3    76  PHE76       0.0547
     46  CG       -70.6800  -44.9490  -52.0940 C.ar   76  PHE76      -0.0202
     47  CD1      -70.7580  -43.8940  -52.9980 C.ar   76  PHE76      -0.0042
     48  CD2      -71.5020  -44.9380  -50.9690 C.ar   76  PHE76      -0.0042
     49  CE1      -71.6390  -42.8350  -52.7890 C.ar   76  PHE76      -0.0003
     50  CE2      -72.3860  -43.8840  -50.7470 C.ar   76  PHE76      -0.0003
     51  CZ       -72.4520  -42.8290  -51.6610 C.ar   76  PHE76      -0.0000
     52  N        -68.1350  -47.5960  -54.4790 N.am   77  GLU77      -0.1965
     53  CA       -66.9080  -48.3390  -54.7510 C.3    77  GLU77       0.1733
     54  C        -66.0990  -48.1700  -53.4570 C.2    77  GLU77       0.2616
     55  O        -66.1170  -47.1000  -52.8330 O.2    77  GLU77      -0.2715
     56  CB       -66.1160  -47.7280  -55.9250 C.3    77  GLU77       0.0429
     57  CG       -65.5280  -46.3590  -55.6230 C.3    77  GLU77       0.1163
     58  CD       -64.5220  -45.8370  -56.6760 C.2    77  GLU77       0.3649
     59  OE1      -63.3900  -46.3670  -56.8070 O.co2  77  GLU77      -0.2457
     60  OE2      -64.8660  -44.8710  -57.3630 O.co2  77  GLU77      -0.2457
     61  N        -65.4110  -49.2220  -53.0510 N.am   78  PHE78      -0.1960
     62  CA       -64.6140  -49.2130  -51.8290 C.3    78  PHE78       0.1771
     63  C        -63.1680  -48.7490  -52.0420 C.2    78  PHE78       0.2619
     64  O        -62.5140  -49.1720  -53.0100 O.2    78  PHE78      -0.2715
     65  CB       -64.5920  -50.6370  -51.2610 C.3    78  PHE78       0.0574
     66  CG       -63.7410  -50.8020  -50.0340 C.ar   78  PHE78      -0.0200
     67  CD1      -62.4050  -51.2130  -50.1320 C.ar   78  PHE78      -0.0042
     68  CD2      -64.2790  -50.5470  -48.7740 C.ar   78  PHE78      -0.0042
     69  CE1      -61.6150  -51.3690  -48.9860 C.ar   78  PHE78      -0.0003
     70  CE2      -63.5050  -50.6980  -47.6270 C.ar   78  PHE78      -0.0003
     71  CZ       -62.1700  -51.1100  -47.7260 C.ar   78  PHE78      -0.0000
     72  N        -62.6830  -47.8610  -51.1630 N.am   79  LEU79      -0.1963
     73  CA       -61.2750  -47.4480  -51.2000 C.3    79  LEU79       0.1728
     74  C        -60.7200  -47.8620  -49.8620 C.2    79  LEU79       0.2616
     75  O        -61.4560  -47.9240  -48.8910 O.2    79  LEU79      -0.2715
     76  CB       -61.0780  -45.9560  -51.4170 C.3    79  LEU79       0.0311
     77  CG       -61.1420  -45.7200  -52.9310 C.3    79  LEU79       0.0022
     78  CD1      -62.6060  -45.5730  -53.3360 C.3    79  LEU79       0.0001
     79  CD2      -60.3230  -44.4680  -53.3330 C.3    79  LEU79       0.0001
     80  N        -59.4200  -48.1060  -49.7930 N.am   80  HIS80      -0.1959
     81  CA       -58.8640  -48.6070  -48.5490 C.3    80  HIS80       0.1787
     82  C        -58.5000  -47.6560  -47.4440 C.2    80  HIS80       0.2620
     83  O        -58.3770  -48.0690  -46.3060 O.2    80  HIS80      -0.2715
     84  CB       -57.6580  -49.4900  -48.8550 C.3    80  HIS80       0.0785
     85  CG       -58.0220  -50.8150  -49.4390 C.ar   80  HIS80       0.0821
     86  ND1      -58.3610  -50.9800  -50.7660 N.ar   80  HIS80      -0.2267
     87  CD2      -58.1270  -52.0380  -48.8650 C.ar   80  HIS80       0.1154
     88  CE1      -58.6570  -52.2520  -50.9830 C.ar   80  HIS80       0.1986
     89  NE2      -58.5230  -52.9130  -49.8450 N.ar   80  HIS80      -0.2212
     90  N        -58.3300  -46.3800  -47.7370 N.am   81  GLN81      -0.1963
     91  CA       -57.9390  -45.4820  -46.6530 C.3    81  GLN81       0.1733
     92  C        -58.4580  -44.0900  -46.9160 C.2    81  GLN81       0.2616
     93  O        -58.6940  -43.7400  -48.0590 O.2    81  GLN81      -0.2715
     94  CB       -56.4270  -45.4710  -46.5610 C.3    81  GLN81       0.0408
     95  CG       -55.8500  -44.8080  -45.3040 C.3    81  GLN81       0.0908
     96  CD       -54.4490  -45.2950  -45.0380 C.2    81  GLN81       0.2608
     97  OE1      -54.2320  -46.4960  -44.7710 O.2    81  GLN81      -0.2717
     98  NE2      -53.4770  -44.3930  -45.1270 N.am   81  GLN81      -0.0878
     99  N        -58.6720  -43.3120  -45.8540 N.am   82  ASP82      -0.1971
    100  CA       -59.1210  -41.9340  -46.0250 C.3    82  ASP82       0.1709
    101  C        -57.9350  -41.0320  -45.6680 C.2    82  ASP82       0.2293
    102  O        -56.9540  -41.4780  -45.0500 O.2    82  ASP82      -0.2864
    103  CB       -60.3460  -41.6250  -45.1680 C.3    82  ASP82       0.1436
    104  CG       -60.0620  -41.7260  -43.6740 C.2    82  ASP82       0.3671
    105  OD1      -59.1140  -41.0740  -43.1750 O.co2  82  ASP82      -0.2456
    106  OD2      -60.8030  -42.4620  -43.0070 O.co2  82  ASP82      -0.2456
    107  N        -61.8190  -37.0360  -43.6570 N.3   127  GLN127     -0.1231
    108  CA       -62.4860  -38.3390  -43.4910 C.3   127  GLN127      0.1698
    109  C        -63.2700  -38.7710  -44.7400 C.2   127  GLN127      0.2592
    110  O        -63.4890  -39.9640  -44.9430 O.2   127  GLN127     -0.2718
    111  CB       -63.4480  -38.3000  -42.2880 C.3   127  GLN127      0.0381
    112  CG       -64.1690  -39.6180  -42.0260 C.3   127  GLN127      0.0905
    113  CD       -65.4910  -39.4210  -41.3100 C.2   127  GLN127      0.2608
    114  OE1      -65.5600  -38.7430  -40.2870 O.2   127  GLN127     -0.2717
    115  NE2      -66.5510  -40.0170  -41.8500 N.am  127  GLN127     -0.0878
    116  N        -63.7230  -37.8300  -45.5590 N.am  128  ASN128     -0.1974
    117  CA       -64.4330  -38.2620  -46.7620 C.3   128  ASN128      0.1688
    118  C        -63.6750  -38.0700  -48.0670 C.2   128  ASN128      0.2292
    119  O        -64.2670  -38.0130  -49.1530 O.2   128  ASN128     -0.2864
    120  CB       -65.8650  -37.7020  -46.8580 C.3   128  ASN128      0.1181
    121  CG       -65.9460  -36.1880  -46.7710 C.2   128  ASN128      0.2629
    122  OD1      -65.1690  -35.4620  -47.3910 O.2   128  ASN128     -0.2716
    123  ND2      -66.9510  -35.7030  -46.0140 N.am  128  ASN128     -0.0877
    124  N        -60.9790  -40.1230  -50.0320 N.3   130  LEU130     -0.1245
    125  CA       -60.4480  -41.4770  -49.9900 C.3   130  LEU130      0.1561
    126  C        -59.3160  -41.6700  -50.9410 C.2   130  LEU130      0.2260
    127  O        -59.3430  -41.1590  -52.0780 O.2   130  LEU130     -0.2867
    128  CB       -61.5770  -42.4750  -50.2990 C.3   130  LEU130      0.0270
    129  CG       -62.8430  -42.1880  -49.4780 C.3   130  LEU130      0.0019
    130  CD1      -63.9190  -43.1800  -49.8760 C.3   130  LEU130      0.0001
    131  CD2      -62.5370  -42.2640  -47.9720 C.3   130  LEU130      0.0001
    132  N        -65.8590  -38.3480  -51.4300 N.3   140  ALA140     -0.1231
    133  CA       -66.8990  -39.2950  -51.0240 C.3   140  ALA140      0.1694
    134  C        -67.9190  -38.6500  -50.0890 C.2   140  ALA140      0.2592
    135  O        -67.7240  -37.5300  -49.6170 O.2   140  ALA140     -0.2718
    136  CB       -66.2840  -40.4770  -50.3060 C.3   140  ALA140      0.0304
    137  N        -68.9850  -39.3980  -49.8200 N.am  141  ASP141     -0.1974
    138  CA       -70.0370  -38.9860  -48.8890 C.3   141  ASP141      0.1709
    139  C        -70.5040  -37.5510  -49.1120 C.2   141  ASP141      0.2293
    140  O        -70.3930  -36.7030  -48.2230 O.2   141  ASP141     -0.2864
    141  CB       -69.5020  -39.1450  -47.4650 C.3   141  ASP141      0.1436
    142  CG       -70.5940  -39.1650  -46.4350 C.2   141  ASP141      0.3671
    143  OD1      -71.6440  -39.7640  -46.7200 O.co2 141  ASP141     -0.2456
    144  OD2      -70.3980  -38.6000  -45.3340 O.co2 141  ASP141     -0.2456
@<TRIPOS>BOND
     1    60    58   ar
     2    59    58   ar
     3    58    57    1
     4    36    37    2
     5    36    35    1
     6    56    57    1
     7    56    53    1
     8    34    35    1
     9    35    38    1
    10    53    52    1
    11    53    54    1
    12    52    43   am
    13    38    39    1
    14    38    40    1
    15    43    42    1
    16    43    44    2
    17    54    61   am
    18    54    55    2
    19    78    77    1
    20    79    77    1
    21    42    41    1
    22    42    45    1
    23    61    62    1
    24    64    63    2
    25    47    49   ar
    26    47    46   ar
    27    77    76    1
    28    49    51   ar
    29    45    46    1
    30    46    48   ar
    31   127   126    2
    32    63    62    1
    33    63    72   am
    34    62    65    1
    35    51    50   ar
    36   132   133    1
    37    76    73    1
    38    65    66    1
    39    73    72    1
    40    73    74    1
    41   133   136    1
    42   133   134    1
    43    88    86   ar
    44    88    89   ar
    45    48    50   ar
    46   126   125    1
    47    86    85   ar
    48   128   125    1
    49   128   129    1
    50    20    21    1
    51    67    66   ar
    52    67    69   ar
    53   134   137   am
    54   134   135    2
    55    23    22    2
    56    66    68   ar
    57   124   125    1
    58   130   129    1
    59    74    80   am
    60    74    75    2
    61    89    87   ar
    62   137   138    1
    63    80    81    1
    64   129   131    1
    65    85    87   ar
    66    85    84    1
    67   119   118    2
    68   139   138    1
    69   139   140    2
    70    22    21    1
    71    69    71   ar
    72    21    24    1
    73   138   141    1
    74    84    81    1
    75    68    70   ar
    76    81    82    1
    77   118   117    1
    78    93    92    2
    79    90    82   am
    80    90    91    1
    81    71    70   ar
    82   141   142    1
    83    82    83    2
    84   122   121    2
    85    25    26    1
    86    92    91    1
    87    92    99   am
    88    28    27    2
    89   120   121    1
    90   120   117    1
    91   121   123   am
    92   117   116    1
    93    29    26    1
    94    29    30    1
    95   143   142   ar
    96    91    94    1
    97    94    95    1
    98   142   144   ar
    99    31    30    1
   100    31    32    1
   101    26    27    1
   102   100    99    1
   103   100   101    1
   104   100   103    1
   105    33    32    1
   106   101   102    2
   107   116   109   am
   108    95    96    1
   109     8     6    1
   110   103   104    1
   111    98    96   am
   112    18    17    1
   113    96    97    2
   114   110   109    2
   115   109   108    1
   116    19    17    1
   117     6     5    1
   118    17    14    1
   119   104   105   ar
   120   104   106   ar
   121   107   108    1
   122   108   111    1
   123    14    15    1
   124    14    13    1
   125     7     5    1
   126    15    16    2
   127     5     2    1
   128   111   112    1
   129   112   113    1
   130   115   113   am
   131     4     3    2
   132     2     3    1
   133     2     1    1
   134   113   114    2
   135     3     9    1
   136     9    10    2
   137    10    11    1
   138    11    12    2
