@<TRIPOS>MOLECULE
tmp/3r91A00.pdb
 182 171 0 0 0
SMALL
GASTEIGER

@<TRIPOS>ATOM
      1  N         32.7290   11.5910   16.2700 N.3    32  LEU32      -0.1245
      2  CA        32.2100   12.1490   17.5230 C.3    32  LEU32       0.1561
      3  C         30.9310   11.4350   17.9730 C.2    32  LEU32       0.2260
      4  O         30.7200   11.2060   19.1630 O.2    32  LEU32      -0.2867
      5  CB        31.9770   13.6600   17.4060 C.3    32  LEU32       0.0270
      6  CG        33.2090   14.4490   16.9630 C.3    32  LEU32       0.0019
      7  CD1       32.8870   15.9400   16.9340 C.3    32  LEU32       0.0001
      8  CD2       34.4110   14.1830   17.8540 C.3    32  LEU32       0.0001
      9  N         32.0250    8.2390   19.5910 N.3    35  ASN35      -0.1225
     10  CA        32.4340    8.4930   20.9730 C.3    35  ASN35       0.1785
     11  C         31.2110    8.5530   21.8790 C.2    35  ASN35       0.2597
     12  O         31.2060    7.9750   22.9700 O.2    35  ASN35      -0.2718
     13  CB        33.1830    9.8230   21.1010 C.3    35  ASN35       0.1169
     14  CG        34.6000    9.7800   20.5200 C.2    35  ASN35       0.2627
     15  OD1       35.2170    8.7140   20.3790 O.2    35  ASN35      -0.2716
     16  ND2       35.1330   10.9590   20.2150 N.am   35  ASN35      -0.0877
     17  N         30.1860    9.2910   21.4460 N.am   36  SER36      -0.1952
     18  CA        28.9530    9.4180   22.2290 C.3    36  SER36       0.1924
     19  C         28.2610    8.0720   22.4030 C.2    36  SER36       0.2314
     20  O         27.8310    7.7230   23.4970 O.2    36  SER36      -0.2863
     21  CB        27.9830   10.3900   21.5580 C.3    36  SER36       0.2116
     22  OG        28.4690   11.7270   21.6040 O.3    36  SER36      -0.2180
     23  N         29.5780    5.1280   22.3270 N.3    38  ASP38      -0.1225
     24  CA        30.3630    4.3360   23.2720 C.3    38  ASP38       0.1805
     25  C         30.0680    4.7420   24.7210 C.2    38  ASP38       0.2597
     26  O         29.9490    3.8900   25.6020 O.2    38  ASP38      -0.2718
     27  CB        31.8550    4.4780   22.9900 C.3    38  ASP38       0.1424
     28  CG        32.2970    3.7010   21.7640 C.2    38  ASP38       0.3668
     29  OD1       31.4550    2.9830   21.1630 O.co2  38  ASP38      -0.2456
     30  OD2       33.4920    3.8040   21.4110 O.co2  38  ASP38      -0.2456
     31  N         29.9590    6.0500   24.9610 N.am   39  ALA39      -0.1979
     32  CA        29.7030    6.5650   26.3020 C.3    39  ALA39       0.1597
     33  C         28.3050    6.1640   26.7770 C.2    39  ALA39       0.2287
     34  O         28.0850    5.9030   27.9650 O.2    39  ALA39      -0.2864
     35  CB        29.8500    8.0700   26.3050 C.3    39  ALA39       0.0319
     36  N         28.3050    2.5270   27.7330 N.3    42  LYS42      -0.1245
     37  CA        28.9340    2.3760   29.0440 C.3    42  LYS42       0.1561
     38  C         27.9670    2.6240   30.1960 C.2    42  LYS42       0.2260
     39  O         27.8930    1.8250   31.1280 O.2    42  LYS42      -0.2867
     40  CB        30.1590    3.2980   29.1770 C.3    42  LYS42       0.0271
     41  CG        31.3250    2.9820   28.2260 C.3    42  LYS42       0.0035
     42  CD        32.4200    4.0700   28.2860 C.3    42  LYS42       0.0206
     43  CE        33.3700    4.0280   27.0770 C.3    42  LYS42       0.1093
     44  NZ        34.3100    2.8700   27.0900 N.3    42  LYS42      -0.1314
     45  N         25.4750   14.3580   24.4140 N.3    77  ASP77      -0.1239
     46  CA        24.9820   13.0300   24.7580 C.3    77  ASP77       0.1674
     47  C         24.7470   12.9180   26.2540 C.2    77  ASP77       0.2266
     48  O         25.2640   13.7170   27.0430 O.2    77  ASP77      -0.2867
     49  CB        25.9250   11.9330   24.2510 C.3    77  ASP77       0.1410
     50  CG        27.2430   11.9050   24.9880 C.2    77  ASP77       0.3668
     51  OD1       27.2440   11.5900   26.2000 O.co2  77  ASP77      -0.2456
     52  OD2       28.2810   12.1940   24.3550 O.co2  77  ASP77      -0.2456
     53  N         28.0540    8.2640   29.7830 N.3    80  ILE80      -0.1231
     54  CA        28.6430    8.1210   31.1130 C.3    80  ILE80       0.1692
     55  C         29.4350    9.3560   31.5470 C.2    80  ILE80       0.2593
     56  O         29.6230    9.5900   32.7350 O.2    80  ILE80      -0.2718
     57  CB        29.5330    6.8760   31.1920 C.3    80  ILE80       0.0266
     58  CG1       29.8710    6.5460   32.6520 C.3    80  ILE80       0.0019
     59  CG2       30.7910    7.0700   30.3330 C.3    80  ILE80       0.0020
     60  CD1       30.3680    5.1380   32.8590 C.3    80  ILE80       0.0001
     61  N         29.8980   10.1470   30.5830 N.am   81  GLY81      -0.1942
     62  CA        30.6890   11.3280   30.8920 C.3    81  GLY81       0.2014
     63  C         32.1090   10.9840   31.2870 C.2    81  GLY81       0.2638
     64  O         32.5090    9.8180   31.2390 O.2    81  GLY81      -0.2714
     65  N         32.8800   11.9980   31.6740 N.am   82  MET82      -0.1976
     66  CA        34.2890   11.8180   31.9870 C.3    82  MET82       0.1605
     67  C         34.6700   12.5170   33.2820 C.2    82  MET82       0.2287
     68  O         34.2040   13.6150   33.5680 O.2    82  MET82      -0.2864
     69  CB        35.1610   12.3500   30.8510 C.3    82  MET82       0.0413
     70  CG        35.1740   11.4450   29.6380 C.3    82  MET82       0.0598
     71  SD        35.8960   12.2280   28.2050 S.3    82  MET82      -0.1393
     72  CE        34.6040   13.3710   27.7300 C.3    82  MET82       0.0692
     73  N         40.1070   11.2870   33.7270 N.3    86  ASP86      -0.1225
     74  CA        39.9080   10.9610   32.3110 C.3    86  ASP86       0.1805
     75  C         40.4220   12.0740   31.4040 C.2    86  ASP86       0.2597
     76  O         41.1780   11.8230   30.4680 O.2    86  ASP86      -0.2718
     77  CB        38.4250   10.7740   32.0060 C.3    86  ASP86       0.1424
     78  CG        37.8680    9.4570   32.5120 C.2    86  ASP86       0.3668
     79  OD1       38.6340    8.4800   32.6600 O.co2  86  ASP86      -0.2456
     80  OD2       36.6380    9.4020   32.7420 O.co2  86  ASP86      -0.2456
     81  N         39.9840   13.3030   31.6730 N.am   87  LEU87      -0.1979
     82  CA        40.2870   14.4530   30.8150 C.3    87  LEU87       0.1596
     83  C         41.7580   14.8170   30.7720 C.2    87  LEU87       0.2287
     84  O         42.2780   15.2170   29.7320 O.2    87  LEU87      -0.2864
     85  CB        39.5290   15.6870   31.2960 C.3    87  LEU87       0.0297
     86  CG        38.0300   15.7260   31.0590 C.3    87  LEU87       0.0022
     87  CD1       37.4410   16.9570   31.7450 C.3    87  LEU87       0.0001
     88  CD2       37.7590   15.7460   29.5600 C.3    87  LEU87       0.0001
     89  N         42.6690    9.2400   29.4320 N.3    91  LEU91      -0.1231
     90  CA        42.3560    9.0730   28.0170 C.3    91  LEU91       0.1693
     91  C         43.5430    9.4090   27.1200 C.2    91  LEU91       0.2592
     92  O         43.7480    8.7640   26.0950 O.2    91  LEU91      -0.2718
     93  CB        41.1040    9.8750   27.6340 C.3    91  LEU91       0.0284
     94  CG        39.8440    9.3520   28.3330 C.3    91  LEU91       0.0019
     95  CD1       38.6010   10.0430   27.8110 C.3    91  LEU91       0.0001
     96  CD2       39.7330    7.8480   28.1600 C.3    91  LEU91       0.0001
     97  N         44.3380   10.3970   27.5190 N.am   92  GLY92      -0.1957
     98  CA        45.5360   10.7490   26.7730 C.3    92  GLY92       0.1869
     99  C         46.5860    9.6490   26.7910 C.2    92  GLY92       0.2309
    100  O         47.2960    9.4420   25.8110 O.2    92  GLY92      -0.2863
    101  N         45.9010    6.4080   27.0380 N.3    94  ILE94      -0.1231
    102  CA        45.3510    5.4510   26.0820 C.3    94  ILE94       0.1692
    103  C         45.5660    5.9280   24.6470 C.2    94  ILE94       0.2591
    104  O         45.9680    5.1510   23.7800 O.2    94  ILE94      -0.2718
    105  CB        43.8390    5.1920   26.3340 C.3    94  ILE94       0.0266
    106  CG1       43.5860    4.8650   27.8080 C.3    94  ILE94       0.0019
    107  CG2       43.3420    4.0470   25.4770 C.3    94  ILE94       0.0020
    108  CD1       44.2300    3.5900   28.2670 C.3    94  ILE94       0.0001
    109  N         45.3300    7.2140   24.4060 N.am   95  ALA95      -0.1980
    110  CA        45.4620    7.7890   23.0790 C.3    95  ALA95       0.1597
    111  C         46.8880    7.6850   22.5280 C.2    95  ALA95       0.2287
    112  O         47.0770    7.6640   21.3170 O.2    95  ALA95      -0.2864
    113  CB        44.9960    9.2420   23.0740 C.3    95  ALA95       0.0319
    114  N         41.2210    4.3920   17.8370 N.3   119  GLY119     -0.1210
    115  CA        40.7000    4.8990   19.0940 C.3   119  GLY119      0.1956
    116  C         40.8920    6.3880   19.3250 C.2   119  GLY119      0.2611
    117  O         40.5580    6.8920   20.3960 O.2   119  GLY119     -0.2717
    118  N         41.4050    7.1000   18.3250 N.am  120  VAL120     -0.1979
    119  CA        41.6700    8.5360   18.4800 C.3   120  VAL120      0.1595
    120  C         40.7930    9.4300   17.5820 C.2   120  VAL120      0.2287
    121  O         41.1610   10.5720   17.2580 O.2   120  VAL120     -0.2864
    122  CB        43.1680    8.8670   18.3000 C.3   120  VAL120      0.0276
    123  CG1       43.9700    8.2710   19.4430 C.3   120  VAL120      0.0022
    124  CG2       43.6990    8.3640   16.9460 C.3   120  VAL120      0.0022
    125  N         38.2850   11.1860   18.1840 N.3   122  PHE122     -0.1227
    126  CA        37.9440   12.4910   18.7490 C.3   122  PHE122      0.1736
    127  C         38.7260   13.6090   18.0650 C.2   122  PHE122      0.2595
    128  O         38.1870   14.6810   17.7910 O.2   122  PHE122     -0.2718
    129  CB        38.2260   12.5330   20.2590 C.3   122  PHE122      0.0547
    130  CG        38.1790   13.9280   20.8400 C.ar  122  PHE122     -0.0202
    131  CD1       36.9630   14.5390   21.1040 C.ar  122  PHE122     -0.0042
    132  CD2       39.3500   14.6280   21.0970 C.ar  122  PHE122     -0.0042
    133  CE1       36.9180   15.8330   21.6250 C.ar  122  PHE122     -0.0003
    134  CE2       39.3000   15.9260   21.6230 C.ar  122  PHE122     -0.0003
    135  CZ        38.0830   16.5160   21.8700 C.ar  122  PHE122     -0.0000
    136  N         40.0030   13.3540   17.8010 N.am  123  TYR123     -0.1976
    137  CA        40.8880   14.3980   17.3040 C.3   123  TYR123      0.1639
    138  C         40.5860   14.8000   15.8650 C.2   123  TYR123      0.2290
    139  O         41.0660   15.8340   15.3940 O.2   123  TYR123     -0.2864
    140  CB        42.3590   14.0200   17.5150 C.3   123  TYR123      0.0560
    141  CG        42.7260   13.9810   18.9830 C.ar  123  TYR123     -0.0198
    142  CD1       43.0140   15.1590   19.6780 C.ar  123  TYR123     -0.0009
    143  CD2       42.7560   12.7750   19.6880 C.ar  123  TYR123     -0.0009
    144  CE1       43.3380   15.1280   21.0420 C.ar  123  TYR123      0.0417
    145  CE2       43.0780   12.7390   21.0450 C.ar  123  TYR123      0.0417
    146  CZ        43.3700   13.9200   21.7100 C.ar  123  TYR123      0.1957
    147  OH        43.6790   13.8790   23.0600 O.3   123  TYR123     -0.2866
    148  N         35.0030   20.7340   25.4550 N.3   134  VAL134     -0.1245
    149  CA        34.3130   19.5400   25.9130 C.3   134  VAL134      0.1561
    150  C         33.8240   19.7720   27.3330 C.2   134  VAL134      0.2260
    151  O         34.6250   19.9240   28.2550 O.2   134  VAL134     -0.2867
    152  CB        35.2320   18.3030   25.8620 C.3   134  VAL134      0.0252
    153  CG1       34.5170   17.0710   26.4410 C.3   134  VAL134      0.0019
    154  CG2       35.7030   18.0360   24.4230 C.3   134  VAL134      0.0019
    155  N         36.8840   21.0690   29.3340 N.3   146  TRP146     -0.1241
    156  CA        38.1930   20.8790   28.7000 C.3   146  TRP146      0.1605
    157  C         38.1720   21.7220   27.4310 C.2   146  TRP146      0.2264
    158  O         37.1150   21.9030   26.8190 O.2   146  TRP146     -0.2867
    159  CB        38.3650   19.3870   28.3700 C.3   146  TRP146      0.0550
    160  CG        39.5920   18.9530   27.5720 C.ar  146  TRP146      0.0003
    161  CD1       40.7000   18.3080   28.0610 C.ar  146  TRP146      0.0946
    162  CD2       39.7890   19.0620   26.1540 C.ar  146  TRP146      0.0152
    163  NE1       41.5790   18.0280   27.0380 N.ar  146  TRP146     -0.2442
    164  CE2       41.0490   18.4910   25.8580 C.ar  146  TRP146      0.0810
    165  CE3       39.0370   19.6100   25.1050 C.ar  146  TRP146      0.0012
    166  CZ2       41.5670   18.4420   24.5630 C.ar  146  TRP146      0.0191
    167  CZ3       39.5600   19.5600   23.8060 C.ar  146  TRP146      0.0001
    168  CH2       40.8070   18.9780   23.5550 C.ar  146  TRP146      0.0015
    169  N         28.0990   14.3590   28.0540 N.3   168  THR168     -0.1218
    170  CA        29.1660   15.1480   27.4560 C.3   168  THR168      0.1862
    171  C         28.6340   16.0170   26.3290 C.2   168  THR168      0.2287
    172  O         27.7480   15.5960   25.5780 O.2   168  THR168     -0.2866
    173  CB        30.2790   14.2300   26.9350 C.3   168  THR168      0.1770
    174  OG1       30.7770   13.4460   28.0270 O.3   168  THR168     -0.2211
    175  CG2       31.4270   15.0490   26.3160 C.3   168  THR168      0.0375
    176  N         30.3190   18.2100   23.1960 N.3   170  VAL170     -0.1245
    177  CA        31.4990   18.5920   22.4250 C.3   170  VAL170      0.1561
    178  C         31.1120   19.7710   21.5480 C.2   170  VAL170      0.2260
    179  O         30.2830   19.6410   20.6410 O.2   170  VAL170     -0.2867
    180  CB        31.9940   17.4240   21.5630 C.3   170  VAL170      0.0252
    181  CG1       33.1670   17.8350   20.6780 C.3   170  VAL170      0.0019
    182  CG2       32.3700   16.2310   22.4590 C.3   170  VAL170      0.0019
@<TRIPOS>BOND
     1   139   138    2
     2   138   137    1
     3     1     2    1
     4     7     6    1
     5   124   122    1
     6     6     5    1
     7     6     8    1
     8   121   120    2
     9   137   140    1
    10   137   136    1
    11     5     2    1
    12   140   141    1
    13     2     3    1
    14   120   119    1
    15   128   127    2
    16   136   127   am
    17   114   115    1
    18     3     4    2
    19   127   126    1
    20   125   126    1
    21   122   119    1
    22   122   123    1
    23   118   119    1
    24   118   116   am
    25   126   129    1
    26   141   142   ar
    27   141   143   ar
    28   115   116    1
    29   116   117    2
    30     9    10    1
    31   142   144   ar
    32   143   145   ar
    33    16    14   am
    34   129   130    1
    35    15    14    2
    36    14    13    1
    37   179   178    2
    38   181   180    1
    39   130   132   ar
    40   130   131   ar
    41    10    13    1
    42    10    11    1
    43   144   146   ar
    44   145   146   ar
    45   132   134   ar
    46   131   133   ar
    47    29    28   ar
    48   112   111    2
    49    30    28   ar
    50    17    11   am
    51    17    18    1
    52   178   177    1
    53    21    22    1
    54    21    18    1
    55   180   177    1
    56   180   182    1
    57   134   135   ar
    58   133   135   ar
    59   146   147    1
    60    28    27    1
    61    11    12    2
    62    18    19    1
    63    23    24    1
    64    19    20    2
    65   177   176    1
    66   111   110    1
    67    27    24    1
    68   113   110    1
    69   110   109    1
    70    24    25    1
    71   168   167   ar
    72   168   166   ar
    73   104   103    2
    74   167   165   ar
    75    49    46    1
    76    49    50    1
    77    52    50   ar
    78   109   103   am
    79    45    46    1
    80   154   152    1
    81   166   164   ar
    82   103   102    1
    83    25    31   am
    84    25    26    2
    85    46    47    1
    86    31    32    1
    87    50    51   ar
    88   165   162   ar
    89   148   149    1
    90   107   105    1
    91   172   171    2
    92   100    99    2
    93   164   162   ar
    94   164   163   ar
    95   152   149    1
    96   152   153    1
    97   149   150    1
    98   102   105    1
    99   102   101    1
   100    92    91    2
   101   162   160   ar
   102    47    48    2
   103    32    35    1
   104    32    33    1
   105   175   173    1
   106   171   170    1
   107   105   106    1
   108    98    99    1
   109    98    97    1
   110    33    34    2
   111   158   157    2
   112   173   170    1
   113   173   174    1
   114   163   161   ar
   115    43    44    1
   116    43    42    1
   117    91    97   am
   118    91    90    1
   119   150   151    2
   120   157   156    1
   121   170   169    1
   122   160   161   ar
   123   160   159    1
   124    93    90    1
   125    93    94    1
   126    72    71    1
   127    36    37    1
   128   106   108    1
   129    95    94    1
   130    90    89    1
   131    96    94    1
   132    71    70    1
   133    41    42    1
   134    41    40    1
   135   159   156    1
   136   156   155    1
   137    37    40    1
   138    37    38    1
   139    88    86    1
   140    70    69    1
   141    84    83    2
   142    53    54    1
   143    38    39    2
   144    59    57    1
   145    76    75    2
   146    61    62    1
   147    61    55   am
   148    83    82    1
   149    82    85    1
   150    82    81    1
   151    69    66    1
   152    62    63    1
   153    86    85    1
   154    86    87    1
   155    54    57    1
   156    54    55    1
   157    57    58    1
   158    64    63    2
   159    63    65   am
   160    75    81   am
   161    75    74    1
   162    55    56    2
   163    65    66    1
   164    66    67    1
   165    77    74    1
   166    77    78    1
   167    74    73    1
   168    78    79   ar
   169    78    80   ar
   170    58    60    1
   171    67    68    2
