@<TRIPOS>MOLECULE
tmp/3r92A00.pdb
 182 171 0 0 0
SMALL
GASTEIGER

@<TRIPOS>ATOM
      1  N         -0.7800   11.5870   16.2270 N.3    32  LEU32      -0.1245
      2  CA        -1.2860   12.1760   17.4650 C.3    32  LEU32       0.1561
      3  C         -2.5800   11.5030   17.9220 C.2    32  LEU32       0.2260
      4  O         -2.7660   11.2440   19.1090 O.2    32  LEU32      -0.2867
      5  CB        -1.4950   13.6840   17.3010 C.3    32  LEU32       0.0270
      6  CG        -0.2300   14.4640   16.9300 C.3    32  LEU32       0.0019
      7  CD1       -0.4940   15.9600   16.9180 C.3    32  LEU32       0.0001
      8  CD2        0.9120   14.1380   17.8770 C.3    32  LEU32       0.0001
      9  N         -1.6140    8.3010   19.4750 N.3    35  ASN35      -0.1225
     10  CA        -1.1360    8.5270   20.8340 C.3    35  ASN35       0.1785
     11  C         -2.3110    8.6180   21.8040 C.2    35  ASN35       0.2597
     12  O         -2.2760    8.0550   22.9000 O.2    35  ASN35      -0.2718
     13  CB        -0.3100    9.8130   20.9100 C.3    35  ASN35       0.1169
     14  CG         1.0650    9.6750   20.2800 C.2    35  ASN35       0.2627
     15  OD1        1.5520    8.5690   20.0400 O.2    35  ASN35      -0.2716
     16  ND2        1.7020   10.8080   20.0210 N.am   35  ASN35      -0.0877
     17  N         -3.3500    9.3420   21.3950 N.am   36  SER36      -0.1952
     18  CA        -4.5500    9.4980   22.2090 C.3    36  SER36       0.1924
     19  C         -5.2560    8.1610   22.3960 C.2    36  SER36       0.2314
     20  O         -5.6560    7.8080   23.5070 O.2    36  SER36      -0.2863
     21  CB        -5.5070   10.5090   21.5730 C.3    36  SER36       0.2116
     22  OG        -4.9640   11.8170   21.6060 O.3    36  SER36      -0.2180
     23  N         -3.9820    5.2050   22.2680 N.3    38  ASP38      -0.1225
     24  CA        -3.1800    4.3870   23.1740 C.3    38  ASP38       0.1805
     25  C         -3.4190    4.7870   24.6300 C.2    38  ASP38       0.2597
     26  O         -3.5060    3.9340   25.5120 O.2    38  ASP38      -0.2718
     27  CB        -1.6890    4.5050   22.8430 C.3    38  ASP38       0.1424
     28  CG        -1.3070    3.7750   21.5630 C.2    38  ASP38       0.3668
     29  OD1       -2.1500    3.0410   21.0010 O.co2  38  ASP38      -0.2456
     30  OD2       -0.1500    3.9340   21.1220 O.co2  38  ASP38      -0.2456
     31  N         -3.5200    6.0900   24.8760 N.am   39  ALA39      -0.1979
     32  CA        -3.7370    6.5960   26.2310 C.3    39  ALA39       0.1597
     33  C         -5.1230    6.2180   26.7410 C.2    39  ALA39       0.2287
     34  O         -5.3180    5.9680   27.9280 O.2    39  ALA39      -0.2864
     35  CB        -3.5560    8.1020   26.2620 C.3    39  ALA39       0.0319
     36  N         -5.2270    2.6080   27.6960 N.3    42  LYS42      -0.1245
     37  CA        -4.5730    2.3720   28.9750 C.3    42  LYS42       0.1561
     38  C         -5.4840    2.6440   30.1660 C.2    42  LYS42       0.2260
     39  O         -5.5590    1.8320   31.0880 O.2    42  LYS42      -0.2867
     40  CB        -3.2800    3.1820   29.0960 C.3    42  LYS42       0.0271
     41  CG        -2.4270    2.7660   30.2830 C.3    42  LYS42       0.0035
     42  CD        -0.9880    3.2290   30.1390 C.3    42  LYS42       0.0206
     43  CE        -0.1100    2.6090   31.2170 C.3    42  LYS42       0.1093
     44  NZ         1.3240    2.9890   31.0680 N.3    42  LYS42      -0.1314
     45  N         -7.8690   14.4360   24.4000 N.3    77  ASP77      -0.1239
     46  CA        -8.3720   13.1170   24.7600 C.3    77  ASP77       0.1674
     47  C         -8.6230   13.0170   26.2600 C.2    77  ASP77       0.2266
     48  O         -8.0960   13.8060   27.0440 O.2    77  ASP77      -0.2867
     49  CB        -7.4190   12.0100   24.2920 C.3    77  ASP77       0.1410
     50  CG        -6.0960   12.0140   25.0370 C.2    77  ASP77       0.3668
     51  OD1       -6.0880   11.7550   26.2610 O.co2  77  ASP77      -0.2456
     52  OD2       -5.0540   12.2540   24.3920 O.co2  77  ASP77      -0.2456
     53  N         -5.3190    8.3410   29.7980 N.3    80  ILE80      -0.1231
     54  CA        -4.7020    8.1640   31.1090 C.3    80  ILE80       0.1692
     55  C         -3.9450    9.4050   31.5840 C.2    80  ILE80       0.2593
     56  O         -3.7720    9.6120   32.7870 O.2    80  ILE80      -0.2718
     57  CB        -3.7610    6.9430   31.1090 C.3    80  ILE80       0.0266
     58  CG1       -3.3070    6.6180   32.5350 C.3    80  ILE80       0.0019
     59  CG2       -2.5810    7.1860   30.1720 C.3    80  ILE80       0.0020
     60  CD1       -2.8030    5.2080   32.7140 C.3    80  ILE80       0.0001
     61  N         -3.5030   10.2330   30.6420 N.am   81  GLY81      -0.1942
     62  CA        -2.7270   11.4110   30.9860 C.3    81  GLY81       0.2014
     63  C         -1.2950   11.0630   31.3480 C.2    81  GLY81       0.2638
     64  O         -0.9030    9.8940   31.3300 O.2    81  GLY81      -0.2714
     65  N         -0.5080   12.0800   31.6840 N.am   82  MET82      -0.1976
     66  CA         0.9060   11.8840   31.9810 C.3    82  MET82       0.1605
     67  C          1.3130   12.5390   33.2930 C.2    82  MET82       0.2287
     68  O          0.8620   13.6330   33.6200 O.2    82  MET82      -0.2864
     69  CB         1.7720   12.4260   30.8420 C.3    82  MET82       0.0413
     70  CG         1.7520   11.5630   29.5890 C.3    82  MET82       0.0598
     71  SD         2.5200   12.3660   28.1700 S.3    82  MET82      -0.1393
     72  CE         1.2320   13.5220   27.6940 C.3    82  MET82       0.0692
     73  N          6.7040   11.2690   33.7210 N.3    86  ASP86      -0.1225
     74  CA         6.5110   10.9280   32.3110 C.3    86  ASP86       0.1805
     75  C          7.0540   12.0380   31.4220 C.2    86  ASP86       0.2597
     76  O          7.8040   11.7870   30.4730 O.2    86  ASP86      -0.2718
     77  CB         5.0230   10.7530   31.9940 C.3    86  ASP86       0.1424
     78  CG         4.4720    9.4130   32.4390 C.2    86  ASP86       0.3668
     79  OD1        5.2460    8.4340   32.5220 O.co2  86  ASP86      -0.2456
     80  OD2        3.2470    9.3400   32.6860 O.co2  86  ASP86      -0.2456
     81  N          6.6560   13.2680   31.7340 N.am   87  LEU87      -0.1979
     82  CA         6.9670   14.4280   30.9050 C.3    87  LEU87       0.1596
     83  C          8.4500   14.7620   30.8870 C.2    87  LEU87       0.2287
     84  O          9.0030   15.1110   29.8460 O.2    87  LEU87      -0.2864
     85  CB         6.1870   15.6510   31.3910 C.3    87  LEU87       0.0297
     86  CG         4.6790   15.6360   31.1710 C.3    87  LEU87       0.0022
     87  CD1        4.0390   16.8340   31.8580 C.3    87  LEU87       0.0001
     88  CD2        4.3680   15.6430   29.6810 C.3    87  LEU87       0.0001
     89  N          9.2470    9.0940   29.4700 N.3    91  LEU91      -0.1231
     90  CA         8.8980    8.9370   28.0640 C.3    91  LEU91       0.1693
     91  C         10.0890    9.2540   27.1580 C.2    91  LEU91       0.2592
     92  O         10.2850    8.6090   26.1290 O.2    91  LEU91      -0.2718
     93  CB         7.6740    9.7830   27.7120 C.3    91  LEU91       0.0284
     94  CG         6.4070    9.2980   28.4220 C.3    91  LEU91       0.0019
     95  CD1        5.1970   10.1270   28.0260 C.3    91  LEU91       0.0001
     96  CD2        6.1730    7.8260   28.1250 C.3    91  LEU91       0.0001
     97  N         10.8920   10.2350   27.5570 N.am   92  GLY92      -0.1957
     98  CA        12.0950   10.5830   26.8230 C.3    92  GLY92       0.1869
     99  C         13.0960    9.4420   26.8180 C.2    92  GLY92       0.2309
    100  O         13.7660    9.1980   25.8180 O.2    92  GLY92      -0.2863
    101  N         12.4090    6.1990   27.0030 N.3    94  ILE94      -0.1231
    102  CA        11.9050    5.2320   26.0350 C.3    94  ILE94       0.1692
    103  C         12.1210    5.7360   24.6100 C.2    94  ILE94       0.2591
    104  O         12.5490    4.9850   23.7360 O.2    94  ILE94      -0.2718
    105  CB        10.4070    4.9370   26.2520 C.3    94  ILE94       0.0266
    106  CG1       10.1700    4.3690   27.6510 C.3    94  ILE94       0.0019
    107  CG2        9.8960    3.9730   25.1930 C.3    94  ILE94       0.0020
    108  CD1       10.8930    3.0690   27.9090 C.3    94  ILE94       0.0001
    109  N         11.8330    7.0140   24.3880 N.am   95  ALA95      -0.1980
    110  CA        11.9270    7.6040   23.0570 C.3    95  ALA95       0.1597
    111  C         13.3470    7.5540   22.5030 C.2    95  ALA95       0.2287
    112  O         13.5510    7.5990   21.2930 O.2    95  ALA95      -0.2864
    113  CB        11.4180    9.0390   23.0760 C.3    95  ALA95       0.0319
    114  N          7.6710    4.3450   17.9180 N.3   119  GLY119     -0.1210
    115  CA         7.1380    4.8550   19.1680 C.3   119  GLY119      0.1956
    116  C          7.3620    6.3340   19.4160 C.2   119  GLY119      0.2611
    117  O          7.1300    6.8220   20.5240 O.2   119  GLY119     -0.2717
    118  N          7.8000    7.0580   18.3910 N.am  120  VAL120     -0.1979
    119  CA         8.1000    8.4780   18.5490 C.3   120  VAL120      0.1595
    120  C          7.2620    9.3680   17.6290 C.2   120  VAL120      0.2287
    121  O          7.6690   10.4830   17.2850 O.2   120  VAL120     -0.2864
    122  CB         9.6060    8.7700   18.3570 C.3   120  VAL120      0.0276
    123  CG1       10.4040    8.1470   19.4860 C.3   120  VAL120      0.0022
    124  CG2       10.0920    8.2510   17.0150 C.3   120  VAL120      0.0022
    125  N          4.7740   11.1700   18.2070 N.3   122  PHE122     -0.1227
    126  CA         4.4470   12.4800   18.7620 C.3   122  PHE122      0.1736
    127  C          5.2410   13.5900   18.0730 C.2   122  PHE122      0.2595
    128  O          4.7100   14.6660   17.7920 O.2   122  PHE122     -0.2718
    129  CB         4.7160   12.5310   20.2660 C.3   122  PHE122      0.0547
    130  CG         4.7330   13.9270   20.8180 C.ar  122  PHE122     -0.0202
    131  CD1        3.5490   14.5920   21.0850 C.ar  122  PHE122     -0.0042
    132  CD2        5.9330   14.5820   21.0440 C.ar  122  PHE122     -0.0042
    133  CE1        3.5600   15.8840   21.5820 C.ar  122  PHE122     -0.0003
    134  CE2        5.9480   15.8780   21.5400 C.ar  122  PHE122     -0.0003
    135  CZ         4.7620   16.5260   21.8070 C.ar  122  PHE122     -0.0000
    136  N          6.5160   13.3240   17.8090 N.am  123  TYR123     -0.1976
    137  CA         7.4030   14.3620   17.3020 C.3   123  TYR123      0.1639
    138  C          7.0950   14.7560   15.8650 C.2   123  TYR123      0.2290
    139  O          7.5970   15.7650   15.3800 O.2   123  TYR123     -0.2864
    140  CB         8.8740   13.9710   17.4900 C.3   123  TYR123      0.0560
    141  CG         9.2520   13.9100   18.9510 C.ar  123  TYR123     -0.0198
    142  CD1        9.5980   15.0660   19.6450 C.ar  123  TYR123     -0.0009
    143  CD2        9.2280   12.7100   19.6470 C.ar  123  TYR123     -0.0009
    144  CE1        9.9220   15.0200   20.9890 C.ar  123  TYR123      0.0417
    145  CE2        9.5540   12.6560   20.9960 C.ar  123  TYR123      0.0417
    146  CZ         9.9000   13.8170   21.6580 C.ar  123  TYR123      0.1957
    147  OH        10.2280   13.7750   22.9970 O.3   123  TYR123     -0.2866
    148  N          1.6520   20.8280   25.4520 N.3   134  VAL134     -0.1245
    149  CA         0.9370   19.6540   25.9240 C.3   134  VAL134      0.1561
    150  C          0.4460   19.8810   27.3460 C.2   134  VAL134      0.2260
    151  O          1.2460   20.0140   28.2720 O.2   134  VAL134     -0.2867
    152  CB         1.8260   18.4030   25.8890 C.3   134  VAL134      0.0252
    153  CG1        1.0600   17.1960   26.4140 C.3   134  VAL134      0.0019
    154  CG2        2.3320   18.1480   24.4730 C.3   134  VAL134      0.0019
    155  N          3.5810   21.1260   29.3110 N.3   146  TRP146     -0.1241
    156  CA         4.8720   20.8690   28.6840 C.3   146  TRP146      0.1605
    157  C          4.8770   21.7010   27.4160 C.2   146  TRP146      0.2264
    158  O          3.8420   21.8580   26.7760 O.2   146  TRP146     -0.2867
    159  CB         4.9680   19.3740   28.3480 C.3   146  TRP146      0.0550
    160  CG         6.1760   18.9070   27.5540 C.ar  146  TRP146      0.0003
    161  CD1        7.2560   18.2290   28.0400 C.ar  146  TRP146      0.0946
    162  CD2        6.3910   19.0360   26.1380 C.ar  146  TRP146      0.0152
    163  NE1        8.1350   17.9400   27.0230 N.ar  146  TRP146     -0.2442
    164  CE2        7.6300   18.4270   25.8460 C.ar  146  TRP146      0.0810
    165  CE3        5.6610   19.6140   25.0940 C.ar  146  TRP146      0.0012
    166  CZ2        8.1550   18.3800   24.5520 C.ar  146  TRP146      0.0191
    167  CZ3        6.1860   19.5680   23.8100 C.ar  146  TRP146      0.0001
    168  CH2        7.4190   18.9530   23.5520 C.ar  146  TRP146      0.0015
    169  N         -5.2210   14.4130   28.1020 N.3   168  THR168     -0.1218
    170  CA        -4.1550   15.1930   27.4970 C.3   168  THR168      0.1862
    171  C         -4.6830   16.0820   26.3860 C.2   168  THR168      0.2287
    172  O         -5.5920   15.7070   25.6480 O.2   168  THR168     -0.2866
    173  CB        -3.0620   14.2710   26.9400 C.3   168  THR168      0.1770
    174  OG1       -2.5120   13.5000   28.0140 O.3   168  THR168     -0.2211
    175  CG2       -1.9490   15.0720   26.2640 C.3   168  THR168      0.0375
    176  N         -3.0240   18.2550   23.2430 N.3   170  VAL170     -0.1245
    177  CA        -1.8650   18.6300   22.4430 C.3   170  VAL170      0.1561
    178  C         -2.2250   19.8170   21.5570 C.2   170  VAL170      0.2260
    179  O         -3.0480   19.7040   20.6490 O.2   170  VAL170     -0.2867
    180  CB        -1.3570   17.4610   21.5800 C.3   170  VAL170      0.0252
    181  CG1       -0.1700   17.9000   20.7280 C.3   170  VAL170      0.0019
    182  CG2       -0.9810   16.2770   22.4650 C.3   170  VAL170      0.0019
@<TRIPOS>BOND
     1   139   138    2
     2   138   137    1
     3     1     2    1
     4     7     6    1
     5     6     5    1
     6     6     8    1
     7   124   122    1
     8   121   120    2
     9     5     2    1
    10   137   140    1
    11   137   136    1
    12     2     3    1
    13   140   141    1
    14   120   119    1
    15   128   127    2
    16   136   127   am
    17   114   115    1
    18     3     4    2
    19   127   126    1
    20   125   126    1
    21   122   119    1
    22   122   123    1
    23   118   119    1
    24   118   116   am
    25   126   129    1
    26   141   142   ar
    27   141   143   ar
    28   115   116    1
    29   116   117    2
    30     9    10    1
    31   142   144   ar
    32   143   145   ar
    33    16    14   am
    34    15    14    2
    35   129   130    1
    36    14    13    1
    37   179   178    2
    38   181   180    1
    39   130   132   ar
    40   130   131   ar
    41    10    13    1
    42    10    11    1
    43   144   146   ar
    44   145   146   ar
    45    29    28   ar
    46   132   134   ar
    47   131   133   ar
    48    30    28   ar
    49   112   111    2
    50    17    11   am
    51    17    18    1
    52   134   135   ar
    53   178   177    1
    54    28    27    1
    55    21    22    1
    56    21    18    1
    57   180   177    1
    58   180   182    1
    59   133   135   ar
    60   146   147    1
    61    11    12    2
    62    18    19    1
    63    23    24    1
    64    19    20    2
    65   177   176    1
    66   111   110    1
    67    27    24    1
    68   110   113    1
    69   110   109    1
    70    24    25    1
    71   168   167   ar
    72   168   166   ar
    73   104   103    2
    74   167   165   ar
    75    49    46    1
    76    49    50    1
    77   109   103   am
    78    52    50   ar
    79    45    46    1
    80   154   152    1
    81   166   164   ar
    82   103   102    1
    83    25    31   am
    84    25    26    2
    85    46    47    1
    86    31    32    1
    87    50    51   ar
    88   165   162   ar
    89   107   105    1
    90   148   149    1
    91   172   171    2
    92   100    99    2
    93   164   162   ar
    94   164   163   ar
    95   152   149    1
    96   152   153    1
    97   149   150    1
    98   102   105    1
    99   102   101    1
   100    92    91    2
   101   162   160   ar
   102    32    35    1
   103    32    33    1
   104   105   106    1
   105    47    48    2
   106   175   173    1
   107   171   170    1
   108    33    34    2
   109   158   157    2
   110    99    98    1
   111    98    97    1
   112   173   170    1
   113   173   174    1
   114   163   161   ar
   115    91    97   am
   116    91    90    1
   117   150   151    2
   118   157   156    1
   119   170   169    1
   120   160   161   ar
   121   160   159    1
   122   106   108    1
   123    72    71    1
   124    36    37    1
   125    93    90    1
   126    93    94    1
   127    95    94    1
   128    90    89    1
   129    96    94    1
   130    71    70    1
   131   159   156    1
   132   156   155    1
   133    37    40    1
   134    37    38    1
   135    40    41    1
   136    70    69    1
   137    88    86    1
   138    53    54    1
   139    84    83    2
   140    42    41    1
   141    42    43    1
   142    38    39    2
   143    59    57    1
   144    76    75    2
   145    61    62    1
   146    61    55   am
   147    69    66    1
   148    83    82    1
   149    82    85    1
   150    82    81    1
   151    62    63    1
   152    44    43    1
   153    54    57    1
   154    54    55    1
   155    57    58    1
   156    86    85    1
   157    86    87    1
   158    64    63    2
   159    63    65   am
   160    75    81   am
   161    75    74    1
   162    55    56    2
   163    65    66    1
   164    66    67    1
   165    77    74    1
   166    77    78    1
   167    74    73    1
   168    78    79   ar
   169    78    80   ar
   170    58    60    1
   171    67    68    2
