@<TRIPOS>MOLECULE
tmp/3r93A00.pdb
 129 126 0 0 0
SMALL
GASTEIGER

@<TRIPOS>ATOM
      1  N          0.6740   22.7570    9.0890 N.3    12  LYS12      -0.1245
      2  CA        -0.6020   22.3140    8.5420 C.3    12  LYS12       0.1561
      3  C         -1.7450   22.8120    9.3840 C.2    12  LYS12       0.2260
      4  O         -1.5360   23.2330   10.5130 O.2    12  LYS12      -0.2867
      5  CB        -0.6570   20.7810    8.4970 C.3    12  LYS12       0.0271
      6  CG        -0.8450   20.1360    9.8530 C.3    12  LYS12       0.0035
      7  CD        -0.8850   18.5960    9.7610 C.3    12  LYS12       0.0206
      8  CE        -0.8340   17.9510   11.1470 C.3    12  LYS12       0.1093
      9  NZ        -1.1260   16.4540   11.1330 N.3    12  LYS12      -0.1314
     10  N         -5.5790   21.5610   10.9310 N.3    14  GLU14      -0.1245
     11  CA        -6.5710   20.5310   11.1810 C.3    14  GLU14       0.1567
     12  C         -7.5840   21.0910   12.1530 C.2    14  GLU14       0.2260
     13  O         -7.2140   21.7080   13.1540 O.2    14  GLU14      -0.2867
     14  CB        -5.9480   19.2890   11.7950 C.3    14  GLU14       0.0388
     15  CG        -4.8000   18.7000   10.9910 C.3    14  GLU14       0.1160
     16  CD        -4.4850   17.2850   11.4180 C.2    14  GLU14       0.3649
     17  OE1       -4.9480   16.9160   12.5210 O.co2  14  GLU14      -0.2457
     18  OE2       -3.8070   16.5500   10.6410 O.co2  14  GLU14      -0.2457
     19  N         -7.3690   24.6880   13.3300 N.3    17  LYS17      -0.1245
     20  CA        -6.1870   25.0690   14.1180 C.3    17  LYS17       0.1561
     21  C         -4.8920   24.8430   13.3420 C.2    17  LYS17       0.2260
     22  O         -4.8020   23.8960   12.5550 O.2    17  LYS17      -0.2867
     23  CB        -6.1220   24.2500   15.4080 C.3    17  LYS17       0.0271
     24  CG        -7.2930   24.5030   16.3340 C.3    17  LYS17       0.0035
     25  CD        -7.0890   23.8280   17.6850 C.3    17  LYS17       0.0206
     26  CE        -7.6250   22.3930   17.7210 C.3    17  LYS17       0.1093
     27  NZ        -9.1270   22.2940   17.8170 N.3    17  LYS17      -0.1314
     28  N         -0.8980   23.7810   13.2090 N.3    19  LEU19      -0.1245
     29  CA         0.1440   22.9970   13.8750 C.3    19  LEU19       0.1561
     30  C          1.4270   23.0940   13.0820 C.2    19  LEU19       0.2260
     31  O          1.3940   23.2960   11.8630 O.2    19  LEU19      -0.2867
     32  CB        -0.2370   21.5170   14.0110 C.3    19  LEU19       0.0270
     33  CG        -1.5220   21.2430   14.7960 C.3    19  LEU19       0.0019
     34  CD1       -2.6730   21.0610   13.8180 C.3    19  LEU19       0.0001
     35  CD2       -1.4020   20.0180   15.6730 C.3    19  LEU19       0.0001
     36  N          5.4170   21.3150   12.5190 N.3    21  LYS21      -0.1245
     37  CA         6.2300   20.1160   12.6660 C.3    21  LYS21       0.1561
     38  C          7.5920   20.5030   13.1770 C.2    21  LYS21       0.2260
     39  O          8.2650   21.3730   12.6230 O.2    21  LYS21      -0.2867
     40  CB         6.3430   19.3750   11.3500 C.3    21  LYS21       0.0271
     41  CG         6.8390   17.9050   11.4640 C.3    21  LYS21       0.0035
     42  CD         7.0000   17.3490   10.0560 C.3    21  LYS21       0.0206
     43  CE         7.3990   15.9020    9.9750 C.3    21  LYS21       0.1093
     44  NZ         7.7930   15.6660    8.5130 N.3    21  LYS21      -0.1314
     45  N         14.5390   12.6310   12.6600 N.3    29  SER29      -0.1202
     46  CA        13.1940   12.7220   12.1030 C.3    29  SER29       0.2020
     47  C         12.1950   11.7130   12.6560 C.2    29  SER29       0.2619
     48  O         11.0030   11.9920   12.6360 O.2    29  SER29      -0.2717
     49  CB        13.2130   12.5980   10.5750 C.3    29  SER29       0.2103
     50  OG        13.6330   11.3070   10.1770 O.3    29  SER29      -0.2182
     51  N         12.6580   10.5500   13.1140 N.am   30  ASP30      -0.1959
     52  CA        11.7790    9.5680   13.7590 C.3    30  ASP30       0.1840
     53  C         11.0930   10.1470   14.9940 C.2    30  ASP30       0.2622
     54  O         10.0480    9.6350   15.4110 O.2    30  ASP30      -0.2715
     55  CB        12.5380    8.2860   14.1770 C.3    30  ASP30       0.1450
     56  CG        13.0070    7.4400   12.9800 C.2    30  ASP30       0.3671
     57  OD1       12.5420    7.6440   11.8320 O.co2  30  ASP30      -0.2456
     58  OD2       13.8320    6.5340   13.1940 O.co2  30  ASP30      -0.2456
     59  N         11.6620   11.2100   15.5690 N.am   31  ASP31      -0.1957
     60  CA        11.0880   11.8200   16.7870 C.3    31  ASP31       0.1840
     61  C         10.2620   13.0850   16.5240 C.2    31  ASP31       0.2622
     62  O          9.7560   13.7090   17.4570 O.2    31  ASP31      -0.2715
     63  CB        12.2110   12.0990   17.7770 C.3    31  ASP31       0.1450
     64  CG        12.7070   10.8320   18.4500 C.2    31  ASP31       0.3671
     65  OD1       11.9090   10.2040   19.1660 O.co2  31  ASP31      -0.2456
     66  OD2       13.8860   10.4790   18.2830 O.co2  31  ASP31      -0.2456
     67  N         10.1180   13.4510   15.2500 N.am   32  ASP32      -0.1957
     68  CA         9.4850   14.6990   14.8660 C.3    32  ASP32       0.1840
     69  C          8.0410   14.5990   15.2840 C.2    32  ASP32       0.2623
     70  O          7.4120   13.5320   15.1420 O.2    32  ASP32      -0.2715
     71  CB         9.5220   14.9140   13.3430 C.3    32  ASP32       0.1450
     72  CG        10.8930   15.2770   12.8150 C.2    32  ASP32       0.3671
     73  OD1       11.8260   15.5900   13.6040 O.co2  32  ASP32      -0.2456
     74  OD2       11.0410   15.2350   11.5760 O.co2  32  ASP32      -0.2456
     75  N          7.5320   15.6980   15.8220 N.am   33  THR33      -0.1937
     76  CA         6.1500   15.7980   16.2630 C.3    33  THR33       0.2028
     77  C          5.4690   17.0150   15.6550 C.2    33  THR33       0.2642
     78  O          6.1230   18.0130   15.3120 O.2    33  THR33      -0.2714
     79  CB         6.0380   15.9370   17.8280 C.3    33  THR33       0.1808
     80  OG1        6.7440   17.1050   18.2550 O.3    33  THR33      -0.2208
     81  CG2        6.5700   14.7020   18.5770 C.3    33  THR33       0.0379
     82  N          4.1490   16.9270   15.5510 N.am   34  TRP34      -0.1959
     83  CA         3.3120   18.0480   15.2460 C.3    34  TRP34       0.1771
     84  C          2.9160   18.7100   16.5570 C.2    34  TRP34       0.2619
     85  O          2.4960   18.0340   17.5150 O.2    34  TRP34      -0.2715
     86  CB         2.0550   17.6030   14.5020 C.3    34  TRP34       0.0590
     87  CG         2.3430   17.2190   13.0760 C.ar   34  TRP34       0.0006
     88  CD1        2.4720   15.9510   12.5670 C.ar   34  TRP34       0.0946
     89  CD2        2.5620   18.1190   11.9760 C.ar   34  TRP34       0.0152
     90  NE1        2.7590   16.0170   11.2020 N.ar   34  TRP34      -0.2442
     91  CE2        2.8010   17.3310   10.8210 C.ar   34  TRP34       0.0810
     92  CE3        2.5380   19.5070   11.8480 C.ar   34  TRP34       0.0012
     93  CZ2        3.0260   17.8940    9.5730 C.ar   34  TRP34       0.0191
     94  CZ3        2.7610   20.0690   10.5960 C.ar   34  TRP34       0.0001
     95  CH2        3.0060   19.2670    9.4810 C.ar   34  TRP34       0.0015
     96  N          3.0330   20.0350   16.5910 N.am   35  GLU35      -0.1964
     97  CA         2.7570   20.7930   17.8120 C.3    35  GLU35       0.1718
     98  C          1.7560   21.9250   17.5870 C.2    35  GLU35       0.2458
     99  O          1.8100   22.6260   16.5760 O.2    35  GLU35      -0.2730
    100  CB         4.0530   21.3340   18.3960 C.3    35  GLU35       0.0428
    101  CG         5.0630   20.2520   18.8140 C.3    35  GLU35       0.1163
    102  CD         4.5200   19.2660   19.8490 C.2    35  GLU35       0.3649
    103  OE1        3.5400   19.5930   20.5490 O.co2  35  GLU35      -0.2457
    104  OE2        5.0710   18.1470   19.9460 O.co2  35  GLU35      -0.2457
    105  N          0.8130   22.0760   18.5160 N.am   36  PRO36      -0.2727
    106  CA        -0.0970   23.1940   18.4070 C.3    36  PRO36       0.1402
    107  C          0.6510   24.5090   18.5380 C.2    36  PRO36       0.2269
    108  O          1.5590   24.6440   19.3700 O.2    36  PRO36      -0.2865
    109  CB        -1.0870   22.9890   19.5630 C.3    36  PRO36       0.0296
    110  CG        -0.5320   21.9040   20.3960 C.3    36  PRO36       0.0237
    111  CD         0.4290   21.1340   19.5770 C.3    36  PRO36       0.0939
    112  N         -0.0830   27.0890   19.9530 N.3    38  ILE38      -0.1231
    113  CA        -0.0900   27.5330   21.3520 C.3    38  ILE38       0.1692
    114  C          1.1550   27.0800   22.1400 C.2    38  ILE38       0.2592
    115  O          1.6570   27.8370   22.9680 O.2    38  ILE38      -0.2718
    116  CB        -1.3810   27.0780   22.0880 C.3    38  ILE38       0.0266
    117  CG1       -2.5730   27.8850   21.5330 C.3    38  ILE38       0.0019
    118  CG2       -1.2420   27.2210   23.5840 C.3    38  ILE38       0.0020
    119  CD1       -3.9160   27.3630   21.9610 C.3    38  ILE38       0.0001
    120  N          1.6510   25.8700   21.8780 N.am   39  HIS39      -0.1976
    121  CA         2.8690   25.3440   22.5240 C.3    39  HIS39       0.1656
    122  C          4.1530   26.0960   22.1320 C.2    39  HIS39       0.2291
    123  O          5.2170   25.8120   22.6940 O.2    39  HIS39      -0.2864
    124  CB         3.1320   23.8770   22.0990 C.3    39  HIS39       0.0771
    125  CG         2.4060   22.8350   22.8990 C.ar   39  HIS39       0.0820
    126  ND1        2.7690   21.5000   22.8590 N.ar   39  HIS39      -0.2267
    127  CD2        1.3410   22.9130   23.7350 C.ar   39  HIS39       0.1154
    128  CE1        1.9600   20.8050   23.6470 C.ar   39  HIS39       0.1986
    129  NE2        1.0870   21.6380   24.1900 N.ar   39  HIS39      -0.2212
@<TRIPOS>BOND
     1     5     2    1
     2     5     6    1
     3    44    43    1
     4     2     1    1
     5     2     3    1
     6     3     4    2
     7    95    93   ar
     8    95    94   ar
     9    93    91   ar
    10     7     6    1
    11     7     8    1
    12    43    42    1
    13    42    41    1
    14    50    49    1
    15    49    46    1
    16    94    92   ar
    17    18    16   ar
    18    91    90   ar
    19    91    89   ar
    20    10    11    1
    21    15    16    1
    22    15    14    1
    23     9     8    1
    24    11    14    1
    25    11    12    1
    26    90    88   ar
    27    40    41    1
    28    40    37    1
    29    16    17   ar
    30    74    72   ar
    31    57    56   ar
    32    92    89   ar
    33    31    30    2
    34    89    87   ar
    35    46    47    1
    36    46    45    1
    37    12    13    2
    38    36    37    1
    39    22    21    2
    40    88    87   ar
    41    39    38    2
    42    48    47    2
    43    47    51   am
    44    37    38    1
    45    72    71    1
    46    72    73   ar
    47    56    58   ar
    48    56    55    1
    49    87    86    1
    50    30    29    1
    51    51    52    1
    52    28    29    1
    53    19    20    1
    54    21    20    1
    55    71    68    1
    56    52    55    1
    57    52    53    1
    58    34    33    1
    59    29    32    1
    60    32    33    1
    61    20    23    1
    62    86    83    1
    63    33    35    1
    64    68    67    1
    65    68    69    1
    66    53    54    2
    67    53    59   am
    68    70    69    2
    69    83    82    1
    70    83    84    1
    71    67    61   am
    72    69    75   am
    73    78    77    2
    74    23    24    1
    75    82    77   am
    76    59    60    1
    77    77    76    1
    78    75    76    1
    79    76    79    1
    80    24    25    1
    81    61    60    1
    82    61    62    2
    83    84    96   am
    84    84    85    2
    85    99    98    2
    86    96    97    1
    87    60    63    1
    88    98    97    1
    89    98   105   am
    90    25    26    1
    91    26    27    1
    92    63    64    1
    93    97   100    1
    94    79    80    1
    95    79    81    1
    96    66    64   ar
    97   100   101    1
    98   106   105    1
    99   106   107    1
   100   106   109    1
   101    64    65   ar
   102   105   111    1
   103   107   108    2
   104   101   102    1
   105   109   110    1
   106   111   110    1
   107   102   104   ar
   108   102   103   ar
   109   112   113    1
   110   113   116    1
   111   113   114    1
   112   117   119    1
   113   117   116    1
   114   120   114   am
   115   120   121    1
   116   116   118    1
   117   124   121    1
   118   124   125    1
   119   122   121    1
   120   122   123    2
   121   114   115    2
   122   126   125   ar
   123   126   128   ar
   124   125   127   ar
   125   128   129   ar
   126   127   129   ar
