@<TRIPOS>MOLECULE
tmp/3r96B01.pdb
 149 143 0 0 0
SMALL
GASTEIGER

@<TRIPOS>ATOM
      1  N         37.2950   10.8280  -32.7490 N.3    21  LEU21      -0.1245
      2  CA        36.5990   11.1530  -31.5050 C.3    21  LEU21       0.1561
      3  C         35.2570   10.4210  -31.4030 C.2    21  LEU21       0.2260
      4  O         34.9510    9.7980  -30.3890 O.2    21  LEU21      -0.2867
      5  CB        36.3920   12.6630  -31.3940 C.3    21  LEU21       0.0270
      6  CG        35.8490   13.1940  -30.0680 C.3    21  LEU21       0.0019
      7  CD1       36.9030   13.1470  -28.9720 C.3    21  LEU21       0.0001
      8  CD2       35.3720   14.6140  -30.2720 C.3    21  LEU21       0.0001
      9  N         34.1190    7.5960  -28.5870 N.3    25  ILE25      -0.1245
     10  CA        32.9230    7.7430  -27.7560 C.3    25  ILE25       0.1561
     11  C         32.0060    6.5180  -27.9080 C.2    25  ILE25       0.2260
     12  O         31.5510    5.9450  -26.9140 O.2    25  ILE25      -0.2867
     13  CB        32.1660    9.0510  -28.0770 C.3    25  ILE25       0.0252
     14  CG1       33.0300   10.2680  -27.7090 C.3    25  ILE25       0.0019
     15  CG2       30.8040    9.0870  -27.3640 C.3    25  ILE25       0.0019
     16  CD1       32.6240   11.5480  -28.4050 C.3    25  ILE25       0.0001
     17  N         28.4660    7.5730  -16.0820 N.3    35  SER35      -0.1202
     18  CA        29.2220    8.6530  -15.4350 C.3    35  SER35       0.2020
     19  C         29.0100   10.0530  -16.0210 C.2    35  SER35       0.2619
     20  O         29.3490   11.0460  -15.3800 O.2    35  SER35      -0.2717
     21  CB        30.7160    8.3190  -15.4490 C.3    35  SER35       0.2103
     22  OG        31.1910    8.1950  -16.7740 O.3    35  SER35      -0.2182
     23  N         28.4850   10.1340  -17.2400 N.am   36  MET36      -0.1965
     24  CA        28.3280   11.4130  -17.9440 C.3    36  MET36       0.1736
     25  C         27.0150   11.3950  -18.7130 C.2    36  MET36       0.2616
     26  O         26.5690   10.3350  -19.1500 O.2    36  MET36      -0.2715
     27  CB        29.5040   11.6630  -18.9020 C.3    36  MET36       0.0427
     28  CG        30.8770   11.6740  -18.2290 C.3    36  MET36       0.0599
     29  SD        32.2690   11.9680  -19.3310 S.3    36  MET36      -0.1393
     30  CE        32.2150   10.5180  -20.3830 C.3    36  MET36       0.0692
     31  N         26.4140   12.5690  -18.8930 N.am   37  ALA37      -0.1963
     32  CA        25.0780   12.6710  -19.4940 C.3    37  ALA37       0.1728
     33  C         25.0950   12.7710  -21.0190 C.2    37  ALA37       0.2616
     34  O         24.2310   12.2130  -21.7050 O.2    37  ALA37      -0.2715
     35  CB        24.3150   13.8460  -18.8960 C.3    37  ALA37       0.0334
     36  N         26.0860   13.4740  -21.5480 N.am   38  TRP38      -0.1974
     37  CA        26.1310   13.7800  -22.9800 C.3    38  TRP38       0.1640
     38  C         26.3920   12.5980  -23.9440 C.2    38  TRP38       0.2290
     39  O         25.9910   12.6860  -25.1050 O.2    38  TRP38      -0.2864
     40  CB        27.1250   14.9170  -23.2450 C.3    38  TRP38       0.0576
     41  CG        28.4910   14.5800  -22.7520 C.ar   38  TRP38       0.0006
     42  CD1       29.0220   14.8970  -21.5390 C.ar   38  TRP38       0.0946
     43  CD2       29.4870   13.8100  -23.4400 C.ar   38  TRP38       0.0152
     44  NE1       30.2930   14.3850  -21.4310 N.ar   38  TRP38      -0.2442
     45  CE2       30.6030   13.7130  -22.5850 C.ar   38  TRP38       0.0810
     46  CE3       29.5450   13.1990  -24.7040 C.ar   38  TRP38       0.0012
     47  CZ2       31.7660   13.0270  -22.9470 C.ar   38  TRP38       0.0191
     48  CZ3       30.6990   12.5160  -25.0650 C.ar   38  TRP38       0.0001
     49  CH2       31.7970   12.4390  -24.1870 C.ar   38  TRP38       0.0015
     50  N         25.4220   11.3750  -28.5700 N.3    42  VAL42      -0.1245
     51  CA        26.4280   11.3380  -29.6360 C.3    42  VAL42       0.1561
     52  C         26.1400   10.1640  -30.5710 C.2    42  VAL42       0.2260
     53  O         26.6690    9.0660  -30.4020 O.2    42  VAL42      -0.2867
     54  CB        27.8780   11.2840  -29.0860 C.3    42  VAL42       0.0252
     55  CG1       28.8860   11.3840  -30.2310 C.3    42  VAL42       0.0019
     56  CG2       28.1110   12.4050  -28.0800 C.3    42  VAL42       0.0019
     57  N         27.4560   14.8820  -34.9670 N.3    47  ASP47      -0.1225
     58  CA        27.3810   15.3130  -33.5640 C.3    47  ASP47       0.1805
     59  C         28.7550   15.6570  -32.9990 C.2    47  ASP47       0.2598
     60  O         28.8970   16.6360  -32.2670 O.2    47  ASP47      -0.2718
     61  CB        26.6950   14.2570  -32.6960 C.3    47  ASP47       0.1424
     62  CG        25.2570   14.0160  -33.1080 C.2    47  ASP47       0.3668
     63  OD1       24.5540   15.0010  -33.4190 O.co2  47  ASP47      -0.2456
     64  OD2       24.8330   12.8440  -33.1170 O.co2  47  ASP47      -0.2456
     65  N         29.7590   14.8570  -33.3510 N.am   48  SER48      -0.1952
     66  CA        31.1400   15.1530  -32.9720 C.3    48  SER48       0.1924
     67  C         31.6390   16.3920  -33.7100 C.2    48  SER48       0.2314
     68  O         32.3630   17.2040  -33.1390 O.2    48  SER48      -0.2863
     69  CB        32.0510   13.9540  -33.2360 C.3    48  SER48       0.2116
     70  OG        33.3960   14.2450  -32.9060 O.3    48  SER48      -0.2180
     71  N         30.1630   19.3400  -31.8850 N.3    51  PHE51      -0.1241
     72  CA        30.9120   19.5660  -30.6520 C.3    51  PHE51       0.1605
     73  C         32.2550   20.2570  -30.8980 C.2    51  PHE51       0.2264
     74  O         32.6240   21.1820  -30.1680 O.2    51  PHE51      -0.2867
     75  CB        31.1290   18.2510  -29.8980 C.3    51  PHE51       0.0534
     76  CG        31.9720   18.4040  -28.6660 C.ar   51  PHE51      -0.0203
     77  CD1       31.4770   19.0730  -27.5510 C.ar   51  PHE51      -0.0042
     78  CD2       33.2680   17.9030  -28.6270 C.ar   51  PHE51      -0.0042
     79  CE1       32.2560   19.2300  -26.4090 C.ar   51  PHE51      -0.0003
     80  CE2       34.0550   18.0570  -27.4820 C.ar   51  PHE51      -0.0003
     81  CZ        33.5450   18.7200  -26.3780 C.ar   51  PHE51      -0.0000
     82  N         38.8730   23.5050  -24.2450 N.3    66  ILE66      -0.1245
     83  CA        38.6020   22.1220  -24.6080 C.3    66  ILE66       0.1561
     84  C         39.7960   21.6040  -25.4090 C.2    66  ILE66       0.2260
     85  O         40.1680   22.1990  -26.4250 O.2    66  ILE66      -0.2867
     86  CB        37.3010   21.9910  -25.4480 C.3    66  ILE66       0.0252
     87  CG1       36.1030   22.6290  -24.7400 C.3    66  ILE66       0.0019
     88  CG2       36.9960   20.5330  -25.7600 C.3    66  ILE66       0.0019
     89  CD1       35.8450   24.0670  -25.1200 C.3    66  ILE66       0.0001
     90  N         39.4060   13.5750  -23.7520 N.3    78  VAL78      -0.1245
     91  CA        39.2650   15.0270  -23.6870 C.3    78  VAL78       0.1561
     92  C         39.6370   15.4900  -22.2800 C.2    78  VAL78       0.2260
     93  O         39.3190   14.8230  -21.2940 O.2    78  VAL78      -0.2867
     94  CB        37.8060   15.4730  -24.0340 C.3    78  VAL78       0.0252
     95  CG1       37.6270   16.9750  -23.8540 C.3    78  VAL78       0.0019
     96  CG2       37.4450   15.0720  -25.4560 C.3    78  VAL78       0.0019
     97  N         39.5070   19.3610  -20.1410 N.3    80  SER80      -0.1217
     98  CA        38.9280   20.6810  -20.3340 C.3    80  SER80       0.1889
     99  C         38.8980   21.5210  -19.0810 C.2    80  SER80       0.2288
    100  O         38.8630   21.0070  -17.9660 O.2    80  SER80      -0.2866
    101  CB        37.4860   20.5450  -20.8410 C.3    80  SER80       0.2089
    102  OG        36.7130   19.7940  -19.9290 O.3    80  SER80      -0.2183
    103  N         35.9010   23.2640  -18.3550 N.3    82  ASN82      -0.1240
    104  CA        34.5050   23.4090  -18.8010 C.3    82  ASN82       0.1653
    105  C         34.0240   24.8420  -18.6650 C.2    82  ASN82       0.2266
    106  O         33.2530   25.3290  -19.4850 O.2    82  ASN82      -0.2867
    107  CB        33.5540   22.5230  -17.9850 C.3    82  ASN82       0.1155
    108  CG        33.8600   21.0460  -18.0970 C.2    82  ASN82       0.2627
    109  OD1       34.2790   20.5620  -19.1450 O.2    82  ASN82      -0.2716
    110  ND2       33.6290   20.3120  -17.0070 N.am   82  ASN82      -0.0877
    111  N         37.0730   19.2910  -16.4320 N.3    94  GLY94      -0.1210
    112  CA        36.4250   18.0480  -16.8350 C.3    94  GLY94       0.1956
    113  C         37.3840   17.1450  -17.5880 C.2    94  GLY94       0.2612
    114  O         38.4160   17.5970  -18.0880 O.2    94  GLY94      -0.2717
    115  N         37.0520   15.8630  -17.6620 N.am   95  TYR95      -0.1962
    116  CA        37.9100   14.9070  -18.3510 C.3    95  TYR95       0.1771
    117  C         37.2090   13.6000  -18.6380 C.2    95  TYR95       0.2619
    118  O         36.2990   13.1880  -17.9130 O.2    95  TYR95      -0.2715
    119  CB        39.1940   14.6250  -17.5540 C.3    95  TYR95       0.0574
    120  CG        39.0110   14.4820  -16.0580 C.ar   95  TYR95      -0.0198
    121  CD1       38.5440   13.2920  -15.4910 C.ar   95  TYR95      -0.0009
    122  CD2       39.3210   15.5350  -15.2050 C.ar   95  TYR95      -0.0009
    123  CE1       38.3880   13.1730  -14.1120 C.ar   95  TYR95       0.0417
    124  CE2       39.1720   15.4210  -13.8360 C.ar   95  TYR95       0.0417
    125  CZ        38.7020   14.2470  -13.2930 C.ar   95  TYR95       0.1957
    126  OH        38.5750   14.1600  -11.9240 O.3    95  TYR95      -0.2866
    127  N         37.6720   12.9370  -19.6930 N.am   96  TRP96      -0.1974
    128  CA        37.3550   11.5330  -19.9160 C.3    96  TRP96       0.1640
    129  C         38.4290   10.8830  -20.7630 C.2    96  TRP96       0.2290
    130  O         39.0900   11.5540  -21.5610 O.2    96  TRP96      -0.2864
    131  CB        35.9660   11.3300  -20.5400 C.3    96  TRP96       0.0576
    132  CG        35.7510   11.8610  -21.9450 C.ar   96  TRP96       0.0006
    133  CD1       35.1760   13.0470  -22.2900 C.ar   96  TRP96       0.0946
    134  CD2       36.0330   11.1840  -23.1850 C.ar   96  TRP96       0.0152
    135  NE1       35.1040   13.1670  -23.6610 N.ar   96  TRP96      -0.2442
    136  CE2       35.6150   12.0340  -24.2340 C.ar   96  TRP96       0.0810
    137  CE3       36.6060    9.9460  -23.5080 C.ar   96  TRP96       0.0012
    138  CZ2       35.7530   11.6860  -25.5830 C.ar   96  TRP96       0.0191
    139  CZ3       36.7300    9.5970  -24.8530 C.ar   96  TRP96       0.0001
    140  CH2       36.3100   10.4680  -25.8700 C.ar   96  TRP96       0.0015
    141  N         24.2950   16.6640   -9.0990 N.3   157  GLU157     -0.1245
    142  CA        24.5170   16.2580  -10.4860 C.3   157  GLU157      0.1567
    143  C         23.5150   15.1980  -10.9060 C.2   157  GLU157      0.2260
    144  O         23.3890   14.1590  -10.2550 O.2   157  GLU157     -0.2867
    145  CB        25.9530   15.7730  -10.7190 C.3   157  GLU157      0.0388
    146  CG        26.2540   15.5390  -12.2120 C.3   157  GLU157      0.1160
    147  CD        27.6930   15.1700  -12.5140 C.2   157  GLU157      0.3649
    148  OE1       28.5600   15.2760  -11.6220 O.co2 157  GLU157     -0.2457
    149  OE2       27.9500   14.7630  -13.6670 O.co2 157  GLU157     -0.2457
@<TRIPOS>BOND
     1    57    58    1
     2    67    68    2
     3    67    66    1
     4    58    59    1
     5    58    61    1
     6    63    62   ar
     7    65    59   am
     8    65    66    1
     9    69    66    1
    10    69    70    1
    11    64    62   ar
    12    62    61    1
    13    59    60    2
    14     1     2    1
    15    71    72    1
    16     2     3    1
    17     2     5    1
    18     3     4    2
    19     5     6    1
    20    73    72    1
    21    73    74    2
    22    72    75    1
    23    52    53    2
    24    52    51    1
    25     8     6    1
    26    55    54    1
    27     6     7    1
    28    75    76    1
    29    51    54    1
    30    51    50    1
    31    54    56    1
    32    76    78   ar
    33    76    77   ar
    34    78    80   ar
    35     9    10    1
    36    16    14    1
    37    13    10    1
    38    13    14    1
    39    13    15    1
    40    11    10    1
    41    11    12    2
    42    77    79   ar
    43    80    81   ar
    44    85    84    2
    45    79    81   ar
    46   140   138   ar
    47   140   139   ar
    48    88    86    1
    49   138   136   ar
    50    96    94    1
    51    86    87    1
    52    86    83    1
    53    84    83    1
    54    89    87    1
    55    39    38    2
    56    48    46   ar
    57    48    49   ar
    58   139   137   ar
    59    46    43   ar
    60    83    82    1
    61   136   135   ar
    62   136   134   ar
    63    49    47   ar
    64    94    95    1
    65    94    91    1
    66    38    37    1
    67    90    91    1
    68    91    92    1
    69   135   133   ar
    70   137   134   ar
    71    43    41   ar
    72    43    45   ar
    73    40    37    1
    74    40    41    1
    75   134   132   ar
    76    37    36    1
    77    47    45   ar
    78    41    42   ar
    79    45    44   ar
    80   133   132   ar
    81    92    93    2
    82   132   131    1
    83    34    33    2
    84   130   129    2
    85    36    33   am
    86    42    44   ar
    87    33    32    1
    88   101    98    1
    89   101   102    1
    90   129   128    1
    91   131   128    1
    92    30    29    1
    93    98    97    1
    94    98    99    1
    95   128   127    1
    96   127   117   am
    97    32    35    1
    98    32    31    1
    99   106   105    2
   100    29    28    1
   101    26    25    2
   102   109   108    2
   103    99   100    2
   104    27    28    1
   105    27    24    1
   106    31    25   am
   107   104   105    1
   108   104   103    1
   109   104   107    1
   110    25    24    1
   111   117   116    1
   112   117   118    2
   113   116   115    1
   114   116   119    1
   115   108   107    1
   116   108   110   am
   117   114   113    2
   118    24    23    1
   119   115   113   am
   120   113   112    1
   121   119   120    1
   122    23    19   am
   123   112   111    1
   124    22    21    1
   125    17    18    1
   126   120   121   ar
   127   120   122   ar
   128    19    18    1
   129    19    20    2
   130   121   123   ar
   131    21    18    1
   132   122   124   ar
   133   123   125   ar
   134   124   125   ar
   135   149   147   ar
   136   125   126    1
   137   147   146    1
   138   147   148   ar
   139   146   145    1
   140   143   142    1
   141   143   144    2
   142   145   142    1
   143   142   141    1
