@<TRIPOS>MOLECULE
tmp/3r97A00.pdb
 137 126 0 0 0
SMALL
GASTEIGER

@<TRIPOS>ATOM
      1  N         16.2360    0.5950    8.2740 N.3    12  GLY12      -0.1210
      2  CA        17.2010    0.4570    9.3220 C.3    12  GLY12       0.1956
      3  C         16.5410    0.6940   10.6670 C.2    12  GLY12       0.2612
      4  O         15.3200    0.5330   10.7800 O.2    12  GLY12      -0.2717
      5  N         17.3550    1.0590   11.6830 N.am   13  GLN13      -0.1965
      6  CA        16.9430    1.2360   13.0880 C.3    13  GLN13       0.1733
      7  C         15.6560    2.0740   13.1760 C.2    13  GLN13       0.2617
      8  O         15.5500    3.0890   12.5220 O.2    13  GLN13      -0.2715
      9  CB        18.0890    1.9350   13.8780 C.3    13  GLN13       0.0408
     10  CG        17.9410    2.0570   15.4380 C.3    13  GLN13       0.0908
     11  CD        18.1680    0.7170   16.1320 C.2    13  GLN13       0.2608
     12  OE1       19.1170   -0.0210   15.7770 O.2    13  GLN13      -0.2717
     13  NE2       17.3000    0.3760   17.1360 N.am   13  GLN13      -0.0878
     14  N         14.6800    1.5980   13.9390 N.am   14  GLY14      -0.1940
     15  CA        13.4130    2.3210   14.1430 C.3    14  GLY14       0.2014
     16  C         12.2900    1.5490   13.5000 C.2    14  GLY14       0.2639
     17  O         11.1510    1.6990   13.8780 O.2    14  GLY14      -0.2714
     18  N         12.6340    0.7040   12.5260 N.am   15  SER15      -0.1949
     19  CA        11.6730   -0.0090   11.7400 C.3    15  SER15       0.1924
     20  C         11.2840   -1.3720   12.3040 C.2    15  SER15       0.2314
     21  O         10.3050   -1.9690   11.8220 O.2    15  SER15      -0.2863
     22  CB        12.2020   -0.1800   10.3190 C.3    15  SER15       0.2116
     23  OG        11.9740    0.9970    9.5920 O.3    15  SER15      -0.2180
     24  N         18.7570    2.5150    4.3910 N.3    93  HIS93      -0.1226
     25  CA        18.9930    3.6170    5.3090 C.3    93  HIS93       0.1752
     26  C         19.8500    3.1470    6.4660 C.2    93  HIS93       0.2596
     27  O         19.3730    2.3600    7.3620 O.2    93  HIS93      -0.2718
     28  CB        17.6650    4.1550    5.8330 C.3    93  HIS93       0.0759
     29  CG        17.8030    5.4180    6.6230 C.ar   93  HIS93       0.0818
     30  ND1       18.3760    5.4480    7.8820 N.ar   93  HIS93      -0.2268
     31  CD2       17.3950    6.6830    6.3630 C.ar   93  HIS93       0.1154
     32  CE1       18.3720    6.6890    8.3340 C.ar   93  HIS93       0.1986
     33  NE2       17.7560    7.4560    7.4450 N.ar   93  HIS93      -0.2212
     34  N         21.1000    3.6210    6.4440 N.am   94  SER94      -0.1952
     35  CA        22.0960    3.3660    7.5180 C.3    94  SER94       0.1924
     36  C         22.4100    1.8700    7.5890 C.2    94  SER94       0.2314
     37  O         23.0330    1.3410    6.6930 O.2    94  SER94      -0.2863
     38  CB        21.6230    3.9510    8.8730 C.3    94  SER94       0.2116
     39  OG        22.5880    3.6930    9.8960 O.3    94  SER94      -0.2180
     40  N         29.2200    0.8420   17.9740 N.3   123  MET123     -0.1245
     41  CA        28.4430    2.0650   18.1300 C.3   123  MET123      0.1570
     42  C         27.9440    2.2380   19.5590 C.2   123  MET123      0.2261
     43  O         28.0790    3.3480   20.0890 O.2   123  MET123     -0.2867
     44  CB        27.2530    2.1120   17.1710 C.3   123  MET123      0.0387
     45  CG        27.6360    2.0040   15.6570 C.3   123  MET123      0.0595
     46  SD        26.2410    1.7020   14.5740 S.3   123  MET123     -0.1393
     47  CE        25.3850    3.2710   14.7890 C.3   123  MET123      0.0692
     48  N         19.6470   11.6670   20.1280 N.3   134  MET134     -0.1245
     49  CA        19.2720   11.9400   18.7740 C.3   134  MET134      0.1570
     50  C         17.9110   12.5700   18.8660 C.2   134  MET134      0.2261
     51  O         17.1360   12.2020   19.7510 O.2   134  MET134     -0.2867
     52  CB        19.1530   10.6180   17.9690 C.3   134  MET134      0.0387
     53  CG        20.3950    9.7350   18.0130 C.3   134  MET134      0.0595
     54  SD        21.5240   10.2880   16.7520 S.3   134  MET134     -0.1393
     55  CE        20.9060    9.4260   15.3380 C.3   134  MET134      0.0692
     56  N         14.5950   14.0830   16.2650 N.3   136  ALA136     -0.1245
     57  CA        13.9670   14.4550   15.0080 C.3   136  ALA136      0.1562
     58  C         13.3940   15.9080   15.0490 C.2   136  ALA136      0.2260
     59  O         12.6370   16.2650   15.9730 O.2   136  ALA136     -0.2867
     60  CB        12.8860   13.3920   14.5840 C.3   136  ALA136      0.0290
     61  N         20.8860   12.6180   10.1080 N.3   162  ASN162     -0.1240
     62  CA        20.1020   12.0860    8.9690 C.3   162  ASN162      0.1653
     63  C         19.5410   13.2630    8.2020 C.2   162  ASN162      0.2266
     64  O         18.9020   14.1110    8.8050 O.2   162  ASN162     -0.2867
     65  CB        18.8740   11.2790    9.4070 C.3   162  ASN162      0.1155
     66  CG        19.1870    9.9140   10.0370 C.2   162  ASN162      0.2627
     67  OD1       20.3380    9.4910   10.2010 O.2   162  ASN162     -0.2716
     68  ND2       18.1180    9.2260   10.4050 N.am  162  ASN162     -0.0877
     69  N         16.6580   13.2350    5.9930 N.3   164  ASN164     -0.1240
     70  CA        15.6400   12.2150    5.7070 C.3   164  ASN164      0.1653
     71  C         14.5880   12.5810    4.6550 C.2   164  ASN164      0.2266
     72  O         14.1460   11.7250    3.8810 O.2   164  ASN164     -0.2867
     73  CB        14.9710   11.7290    7.0040 C.3   164  ASN164      0.1155
     74  CG        15.8640   10.8160    7.8220 C.2   164  ASN164      0.2627
     75  OD1       15.7490   10.7350    9.0520 O.2   164  ASN164     -0.2716
     76  ND2       16.7290   10.0760    7.1440 N.am  164  ASN164     -0.0877
     77  N         17.3580   14.5750   11.3850 N.3   170  VAL170     -0.1245
     78  CA        17.7180   14.0680   12.7090 C.3   170  VAL170      0.1561
     79  C         19.0490   14.6950   13.0890 C.2   170  VAL170      0.2260
     80  O         19.9910   14.6620   12.3210 O.2   170  VAL170     -0.2867
     81  CB        17.8080   12.5120   12.7430 C.3   170  VAL170      0.0252
     82  CG1       18.0750   11.9540   14.1820 C.3   170  VAL170      0.0019
     83  CG2       16.5010   11.9080   12.2390 C.3   170  VAL170      0.0019
     84  N         14.5510   10.9850   20.1850 N.3   196  LEU196     -0.1245
     85  CA        14.2570    9.6150   19.7980 C.3   196  LEU196      0.1561
     86  C         14.5700    8.6130   20.9630 C.2   196  LEU196      0.2260
     87  O         15.4340    8.8680   21.8080 O.2   196  LEU196     -0.2867
     88  CB        15.0080    9.2650   18.5000 C.3   196  LEU196      0.0270
     89  CG        14.8790   10.2420   17.3220 C.3   196  LEU196      0.0019
     90  CD1       15.7410    9.7890   16.2070 C.3   196  LEU196      0.0001
     91  CD2       13.4400   10.3380   16.8560 C.3   196  LEU196      0.0001
     92  N         16.0200    5.5200   20.8270 N.3   198  VAL198     -0.1245
     93  CA        17.4170    5.0930   20.7860 C.3   198  VAL198      0.1561
     94  C         18.3710    6.2740   20.8740 C.2   198  VAL198      0.2260
     95  O         18.3140    7.2000   20.0390 O.2   198  VAL198     -0.2867
     96  CB        17.7660    4.1500   19.6040 C.3   198  VAL198      0.0252
     97  CG1       19.2740    3.7640   19.6630 C.3   198  VAL198      0.0019
     98  CG2       16.9150    2.8700   19.6990 C.3   198  VAL198      0.0019
     99  N         24.5180    7.8060   16.2300 N.3   202  SER202     -0.1202
    100  CA        24.9940    7.3710   14.9110 C.3   202  SER202      0.2020
    101  C         25.2390    8.5490   14.0000 C.2   202  SER202      0.2618
    102  O         24.5780    9.5670   14.1250 O.2   202  SER202     -0.2717
    103  CB        23.9250    6.4870   14.2550 C.3   202  SER202      0.2103
    104  OG        23.3850    5.6220   15.2340 O.3   202  SER202     -0.2182
    105  N         26.1610    8.4140   13.0630 N.am  203  HIS203     -0.1975
    106  CA        26.3140    9.4650   12.0370 C.3   203  HIS203      0.1656
    107  C         26.6890   10.8570   12.5940 C.2   203  HIS203      0.2291
    108  O         26.4260   11.8540   11.9870 O.2   203  HIS203     -0.2864
    109  CB        25.0640    9.5110   11.1540 C.3   203  HIS203      0.0771
    110  CG        24.6380    8.1480   10.6750 C.ar  203  HIS203      0.0820
    111  ND1       25.3970    7.3810    9.8050 N.ar  203  HIS203     -0.2267
    112  CD2       23.5390    7.4030   10.9700 C.ar  203  HIS203      0.1154
    113  CE1       24.7970    6.2140    9.6140 C.ar  203  HIS203      0.1986
    114  NE2       23.6620    6.2100   10.2960 N.ar  203  HIS203     -0.2212
    115  N          8.6230    3.0950    7.0270 N.3   282  VAL282     -0.1231
    116  CA         9.2950    4.3620    7.2750 C.3   282  VAL282      0.1692
    117  C          9.8410    4.9860    5.9950 C.2   282  VAL282      0.2591
    118  O          9.6060    6.1700    5.7300 O.2   282  VAL282     -0.2718
    119  CB        10.3960    4.2210    8.3540 C.3   282  VAL282      0.0266
    120  CG1       11.2330    5.5080    8.4520 C.3   282  VAL282      0.0020
    121  CG2        9.7500    3.8140    9.7470 C.3   282  VAL282      0.0020
    122  N         10.5440    4.1880    5.1850 N.am  283  LEU283     -0.1980
    123  CA        11.2630    4.7530    4.0620 C.3   283  LEU283      0.1596
    124  C         10.2930    5.2310    3.0200 C.2   283  LEU283      0.2287
    125  O         10.5510    6.2300    2.3970 O.2   283  LEU283     -0.2864
    126  CB        12.2310    3.7310    3.4510 C.3   283  LEU283      0.0297
    127  CG        13.3400    3.3230    4.4250 C.3   283  LEU283      0.0022
    128  CD1       14.3130    2.3740    3.7420 C.3   283  LEU283      0.0001
    129  CD2       14.0130    4.5540    5.0100 C.3   283  LEU283      0.0001
    130  N          9.1110    8.6590    3.9270 N.3   286  LEU286     -0.1245
    131  CA        10.1490    9.6430    3.5550 C.3   286  LEU286      0.1561
    132  C         10.1570    9.8980    2.0350 C.2   286  LEU286      0.2260
    133  O         10.1630   11.0640    1.5400 O.2   286  LEU286     -0.2867
    134  CB        11.5330    9.1610    4.0350 C.3   286  LEU286      0.0270
    135  CG        11.7760    8.9490    5.5420 C.3   286  LEU286      0.0019
    136  CD1       13.2170    8.4300    5.8390 C.3   286  LEU286      0.0001
    137  CD2       11.4920   10.2450    6.3640 C.3   286  LEU286      0.0001
@<TRIPOS>BOND
     1   133   132    2
     2   132   131    1
     3   125   124    2
     4   124   123    1
     5   126   123    1
     6   126   127    1
     7   131   130    1
     8   131   134    1
     9   128   127    1
    10    72    71    2
    11   134   135    1
    12   123   122    1
    13    24    25    1
    14   127   129    1
    15    71    70    1
    16   122   117   am
    17    25    28    1
    18    25    26    1
    19   135   136    1
    20   135   137    1
    21    70    69    1
    22    70    73    1
    23   118   117    2
    24    28    29    1
    25   117   116    1
    26    31    29   ar
    27    31    33   ar
    28    34    26   am
    29    34    35    1
    30    26    27    2
    31    29    30   ar
    32    37    36    2
    33    73    74    1
    34   115   116    1
    35    76    74   am
    36   116   119    1
    37    33    32   ar
    38    35    36    1
    39    35    38    1
    40    74    75    2
    41    30    32   ar
    42    63    64    2
    43    63    62    1
    44     1     2    1
    45   119   120    1
    46   119   121    1
    47    38    39    1
    48    62    65    1
    49    62    61    1
    50     2     3    1
    51    65    66    1
    52    23    22    1
    53   113   111   ar
    54   113   114   ar
    55   111   110   ar
    56    66    67    2
    57    66    68   am
    58   114   112   ar
    59    22    19    1
    60     3     4    2
    61     3     5   am
    62   110   112   ar
    63   110   109    1
    64   109   106    1
    65    77    78    1
    66     5     6    1
    67    19    20    1
    68    19    18    1
    69    21    20    2
    70   108   107    2
    71   106   107    1
    72   106   105    1
    73    83    81    1
    74    80    79    2
    75     8     7    2
    76    18    16   am
    77    78    81    1
    78    78    79    1
    79    81    82    1
    80   105   101   am
    81     6     7    1
    82     6     9    1
    83     7    14   am
    84    16    17    2
    85    16    15    1
    86     9    10    1
    87    14    15    1
    88   101   102    2
    89   101   100    1
    90   103   100    1
    91   103   104    1
    92    46    47    1
    93    46    45    1
    94    60    57    1
    95   100    99    1
    96    57    58    1
    97    57    56    1
    98    58    59    2
    99    55    54    1
   100    10    11    1
   101    45    44    1
   102    12    11    2
   103    11    13   am
   104    90    89    1
   105    54    53    1
   106    91    89    1
   107    44    41    1
   108    89    88    1
   109    52    53    1
   110    52    49    1
   111    40    41    1
   112    41    42    1
   113    88    85    1
   114    49    50    1
   115    49    48    1
   116    50    51    2
   117    42    43    2
   118    96    97    1
   119    96    98    1
   120    96    93    1
   121    85    84    1
   122    85    86    1
   123    95    94    2
   124    93    92    1
   125    93    94    1
   126    86    87    2
