@<TRIPOS>MOLECULE
tmp/3r9bC01.pdb
 125 115 0 0 0
SMALL
GASTEIGER

@<TRIPOS>ATOM
      1  N         35.5140   53.5150   78.8100 N.3    73  SER73      -0.1217
      2  CA        36.0560   53.0800   77.5180 C.3    73  SER73       0.1889
      3  C         35.3680   51.7800   77.0910 C.2    73  SER73       0.2288
      4  O         34.7100   51.1020   77.9280 O.2    73  SER73      -0.2866
      5  CB        37.5680   52.8580   77.5980 C.3    73  SER73       0.2089
      6  OG        37.8350   51.6400   78.2990 O.3    73  SER73      -0.2183
      7  N         36.3380   48.8520   76.4940 N.3    75  LEU75      -0.1231
      8  CA        36.7180   47.6410   77.2610 C.3    75  LEU75       0.1693
      9  C         35.6200   47.3010   78.2680 C.2    75  LEU75       0.2592
     10  O         35.3550   46.1180   78.5540 O.2    75  LEU75      -0.2718
     11  CB        38.0480   47.8700   78.0090 C.3    75  LEU75       0.0284
     12  CG        38.5190   46.8570   79.0610 C.3    75  LEU75       0.0019
     13  CD1       38.7210   45.4620   78.4240 C.3    75  LEU75       0.0001
     14  CD2       39.8220   47.3730   79.7100 C.3    75  LEU75       0.0001
     15  N         34.9740   48.3380   78.8050 N.am   76  PHE76      -0.1976
     16  CA        33.9160   48.1640   79.7940 C.3    76  PHE76       0.1639
     17  C         32.5240   48.5040   79.2460 C.2    76  PHE76       0.2290
     18  O         31.6650   48.9830   79.9920 O.2    76  PHE76      -0.2864
     19  CB        34.2090   49.0120   81.0570 C.3    76  PHE76       0.0560
     20  CG        35.6270   48.8740   81.5760 C.ar   76  PHE76      -0.0200
     21  CD1       35.9860   47.8070   82.3890 C.ar   76  PHE76      -0.0042
     22  CD2       36.5910   49.8180   81.2560 C.ar   76  PHE76      -0.0042
     23  CE1       37.3050   47.6910   82.8850 C.ar   76  PHE76      -0.0003
     24  CE2       37.8980   49.7030   81.7340 C.ar   76  PHE76      -0.0003
     25  CZ        38.2480   48.6290   82.5470 C.ar   76  PHE76      -0.0000
     26  N         45.9810   53.7480   87.3750 N.3   157  LEU157     -0.1231
     27  CA        44.7970   53.2100   86.7120 C.3   157  LEU157      0.1693
     28  C         44.9630   51.7230   86.3770 C.2   157  LEU157      0.2591
     29  O         43.9820   50.9740   86.3540 O.2   157  LEU157     -0.2718
     30  CB        44.4080   54.0700   85.4950 C.3   157  LEU157      0.0284
     31  CG        44.0240   55.5080   85.9360 C.3   157  LEU157      0.0019
     32  CD1       44.0410   56.4830   84.7540 C.3   157  LEU157      0.0001
     33  CD2       42.6760   55.5580   86.6480 C.3   157  LEU157      0.0001
     34  N         46.2000   51.2770   86.1690 N.am  158  ALA158     -0.1980
     35  CA        46.4420   49.8310   85.9790 C.3   158  ALA158      0.1597
     36  C         46.1260   49.0870   87.2670 C.2   158  ALA158      0.2287
     37  O         45.5130   48.0140   87.2450 O.2   158  ALA158     -0.2864
     38  CB        47.8810   49.5620   85.5510 C.3   158  ALA158      0.0319
     39  N         42.5030   48.0900   88.3380 N.3   161  LEU161     -0.1245
     40  CA        41.8800   46.8690   87.8150 C.3   161  LEU161      0.1561
     41  C         41.8850   45.7060   88.8140 C.2   161  LEU161      0.2260
     42  O         41.3060   44.6350   88.5450 O.2   161  LEU161     -0.2867
     43  CB        42.5520   46.4320   86.5000 C.3   161  LEU161      0.0270
     44  CG        42.3380   47.3900   85.3200 C.3   161  LEU161      0.0019
     45  CD1       43.2580   46.9970   84.1940 C.3   161  LEU161      0.0001
     46  CD2       40.8990   47.3410   84.8370 C.3   161  LEU161      0.0001
     47  N         42.5390   57.1730   76.3860 N.3   228  ASN228     -0.1225
     48  CA        42.9410   56.8200   77.7430 C.3   228  ASN228      0.1785
     49  C         43.1890   55.3090   77.8340 C.2   228  ASN228      0.2597
     50  O         44.2250   54.8690   78.3300 O.2   228  ASN228     -0.2718
     51  CB        41.8540   57.2220   78.7480 C.3   228  ASN228      0.1169
     52  CG        42.3090   57.1190   80.2010 C.2   228  ASN228      0.2627
     53  OD1       43.2460   57.7930   80.6180 O.2   228  ASN228     -0.2716
     54  ND2       41.6150   56.2970   80.9850 N.am  228  ASN228     -0.0877
     55  N         42.2340   54.5320   77.3380 N.am  229  LEU229     -0.1980
     56  CA        42.3380   53.0690   77.3800 C.3   229  LEU229      0.1596
     57  C         43.6140   52.6180   76.6560 C.2   229  LEU229      0.2287
     58  O         44.4190   51.8340   77.1860 O.2   229  LEU229     -0.2864
     59  CB        41.0980   52.4410   76.7280 C.3   229  LEU229      0.0297
     60  CG        41.1920   50.9740   76.3000 C.3   229  LEU229      0.0022
     61  CD1       41.4970   50.0870   77.5010 C.3   229  LEU229      0.0001
     62  CD2       39.8800   50.5380   75.6170 C.3   229  LEU229      0.0001
     63  N         46.9820   53.6550   78.4490 N.3   232  ILE232     -0.1231
     64  CA        47.2290   52.8300   79.6290 C.3   232  ILE232      0.1692
     65  C         47.6260   51.4030   79.2360 C.2   232  ILE232      0.2591
     66  O         48.6160   50.8840   79.7500 O.2   232  ILE232     -0.2718
     67  CB        46.0430   52.8730   80.6250 C.3   232  ILE232      0.0266
     68  CG1       45.8620   54.3010   81.1440 C.3   232  ILE232      0.0019
     69  CG2       46.2760   51.9170   81.8050 C.3   232  ILE232      0.0020
     70  CD1       44.4970   54.5500   81.7760 C.3   232  ILE232      0.0001
     71  N         46.8850   50.7910   78.3100 N.am  233  ALA233     -0.1980
     72  CA        47.2580   49.4770   77.7680 C.3   233  ALA233      0.1597
     73  C         48.6920   49.4710   77.2540 C.2   233  ALA233      0.2287
     74  O         49.4540   48.5290   77.5130 O.2   233  ALA233     -0.2864
     75  CB        46.2740   49.0240   76.6530 C.3   233  ALA233      0.0319
     76  N         51.2980   46.5800   80.2000 N.3   237  THR237     -0.1161
     77  CA        50.9050   45.3050   79.6650 C.3   237  THR237      0.2171
     78  C         52.1350   44.6010   79.0690 C.2   237  THR237      0.2340
     79  O         52.6590   43.6470   79.6600 O.2   237  THR237     -0.2862
     80  CB        49.7670   45.7260   78.7090 C.2   237  THR237      0.1981
     81  OG1       48.5450   45.1400   78.9640 O.2   237  THR237     -0.2893
     82  CG2       50.0230   45.8870   77.3960 C.2   237  THR237      0.0424
     83  N         48.1130   39.6020   82.1080 N.3   280  VAL280     -0.1245
     84  CA        46.7800   39.8560   82.6350 C.3   280  VAL280      0.1561
     85  C         46.2770   38.5790   83.3070 C.2   280  VAL280      0.2260
     86  O         46.0010   37.5890   82.6290 O.2   280  VAL280     -0.2867
     87  CB        45.7940   40.3560   81.5340 C.3   280  VAL280      0.0252
     88  CG1       44.3900   40.5540   82.1420 C.3   280  VAL280      0.0019
     89  CG2       46.3040   41.6960   80.9420 C.3   280  VAL280      0.0019
     90  N         43.5860   37.9260   85.3500 N.3   282  LEU282     -0.1231
     91  CA        42.1570   37.6760   85.5030 C.3   282  LEU282      0.1693
     92  C         41.3520   38.7610   84.7890 C.2   282  LEU282      0.2591
     93  O         41.8800   39.8480   84.5170 O.2   282  LEU282     -0.2718
     94  CB        41.7660   37.6370   86.9980 C.3   282  LEU282      0.0284
     95  CG        41.9670   38.9600   87.7540 C.3   282  LEU282      0.0019
     96  CD1       40.6760   39.8300   87.7340 C.3   282  LEU282      0.0001
     97  CD2       42.4080   38.6860   89.1780 C.3   282  LEU282      0.0001
     98  N         40.0980   38.4520   84.4600 N.am  283  VAL283     -0.1980
     99  CA        39.1630   39.4540   83.9080 C.3   283  VAL283      0.1595
    100  C         37.8170   39.2710   84.5860 C.2   283  VAL283      0.2287
    101  O         37.5970   38.2340   85.2120 O.2   283  VAL283     -0.2864
    102  CB        38.9790   39.3550   82.3450 C.3   283  VAL283      0.0276
    103  CG1       40.2840   39.6600   81.6070 C.3   283  VAL283      0.0022
    104  CG2       38.4410   37.9910   81.9280 C.3   283  VAL283      0.0022
    105  N         41.8140   41.0640   72.7430 N.3   343  CYS343     -0.1235
    106  CA        42.8020   42.1520   72.7820 C.3   343  CYS343      0.1677
    107  C         43.0970   42.7780   71.4080 C.2   343  CYS343      0.2270
    108  O         43.5850   42.1110   70.4940 O.2   343  CYS343     -0.2867
    109  CB        44.1170   41.6380   73.4030 C.3   343  CYS343      0.0956
    110  SG        45.3940   42.9490   73.4740 S.3   343  CYS343     -0.0801
    111  N         45.7230   42.1370   89.0360 N.3   380  THR380     -0.1203
    112  CA        45.2110   41.9120   87.6840 C.3   380  THR380      0.1994
    113  C         46.3040   42.1180   86.6250 C.2   380  THR380      0.2617
    114  O         46.6100   41.1860   85.8680 O.2   380  THR380     -0.2717
    115  CB        43.9860   42.7760   87.4100 C.3   380  THR380      0.1784
    116  OG1       43.0150   42.4770   88.4150 O.3   380  THR380     -0.2211
    117  CG2       43.3860   42.4840   86.0160 C.3   380  THR380      0.0376
    118  N         46.8970   43.3100   86.6040 N.am  381  LEU381     -0.1979
    119  CA        48.0370   43.5920   85.7290 C.3   381  LEU381      0.1596
    120  C         49.3290   43.4580   86.5310 C.2   381  LEU381      0.2287
    121  O         50.0030   44.4400   86.8810 O.2   381  LEU381     -0.2864
    122  CB        47.9370   44.9790   85.0930 C.3   381  LEU381      0.0297
    123  CG        46.7130   45.3240   84.2650 C.3   381  LEU381      0.0022
    124  CD1       46.9460   46.5910   83.4230 C.3   381  LEU381      0.0001
    125  CD2       46.3180   44.1800   83.3630 C.3   381  LEU381      0.0001
@<TRIPOS>BOND
     1   108   107    2
     2   107   106    1
     3   105   106    1
     4   106   109    1
     5   109   110    1
     6    62    60    1
     7    60    59    1
     8    60    61    1
     9    47    48    1
    10     7     8    1
    11    75    72    1
    12    57    58    2
    13    57    56    1
    14    59    56    1
    15     3     2    1
    16     3     4    2
    17    73    74    2
    18    73    72    1
    19     8    11    1
    20     8     9    1
    21    55    56    1
    22    55    49   am
    23    82    80    2
    24     2     5    1
    25     2     1    1
    26     5     6    1
    27    48    49    1
    28    48    51    1
    29    72    71    1
    30    49    50    2
    31    11    12    1
    32     9    10    2
    33     9    15   am
    34    71    65   am
    35    13    12    1
    36    63    64    1
    37    80    81    1
    38    80    77    1
    39    51    52    1
    40    15    16    1
    41    12    14    1
    42    78    79    2
    43    78    77    1
    44    65    64    1
    45    65    66    2
    46    17    16    1
    47    17    18    2
    48    64    67    1
    49    77    76    1
    50    16    19    1
    51    52    53    2
    52    52    54   am
    53    67    68    1
    54    67    69    1
    55    89    87    1
    56    19    20    1
    57    68    70    1
    58    22    20   ar
    59    22    24   ar
    60    87    88    1
    61    87    84    1
    62    20    21   ar
    63   103   102    1
    64    24    25   ar
    65   104   102    1
    66    83    84    1
    67   102    99    1
    68    21    23   ar
    69    25    23   ar
    70    86    85    2
    71    84    85    1
    72   125   123    1
    73   124   123    1
    74    99    98    1
    75    99   100    1
    76    45    44    1
    77   123   122    1
    78    98    92   am
    79    93    92    2
    80   100   101    2
    81    32    31    1
    82    92    91    1
    83    46    44    1
    84   122   119    1
    85    44    43    1
    86    90    91    1
    87    30    31    1
    88    30    27    1
    89    91    94    1
    90    38    35    1
    91   119   120    1
    92   119   118    1
    93   114   113    2
    94    31    33    1
    95    35    34    1
    96    35    36    1
    97   117   115    1
    98    34    28   am
    99    29    28    2
   100    28    27    1
   101    43    40    1
   102   120   121    2
   103   118   113   am
   104   113   112    1
   105    27    26    1
   106    94    95    1
   107    37    36    2
   108   115   112    1
   109   115   116    1
   110   112   111    1
   111    96    95    1
   112    95    97    1
   113    40    39    1
   114    40    41    1
   115    42    41    2
