@<TRIPOS>MOLECULE
tmp/3r9cA01.pdb
 134 124 0 0 0
SMALL
GASTEIGER

@<TRIPOS>ATOM
      1  N         -1.2660    0.2360   27.0600 N.3    59  ARG59      -0.1245
      2  CA        -0.4440    0.0520   25.8580 C.3    59  ARG59       0.1563
      3  C         -1.1460   -0.6620   24.7030 C.2    59  ARG59       0.2260
      4  O         -0.7860   -0.4570   23.5430 O.2    59  ARG59      -0.2867
      5  CB         0.8570   -0.6800   26.2020 C.3    59  ARG59       0.0307
      6  CG         1.9380    0.2030   26.8110 C.3    59  ARG59       0.0489
      7  CD         3.1750   -0.6060   27.1800 C.3    59  ARG59       0.2205
      8  NE         2.9700   -1.4140   28.3830 N.pl3  59  ARG59      -0.0865
      9  CZ         3.8910   -2.2010   28.9340 C.cat  59  ARG59       0.5346
     10  NH1        5.1000   -2.3000   28.3950 N.pl3  59  ARG59       0.1354
     11  NH2        3.6030   -2.8920   30.0300 N.pl3  59  ARG59       0.1354
     12  N          4.5160   -8.3130   34.2800 N.3    80  PRO80      -0.2102
     13  CA         3.9440   -6.9890   34.0110 C.3    80  PRO80       0.1504
     14  C          4.9100   -6.0040   33.3380 C.2    80  PRO80       0.2575
     15  O          4.4590   -5.1040   32.6240 O.2    80  PRO80      -0.2718
     16  CB         3.5550   -6.4820   35.4050 C.3    80  PRO80       0.0282
     17  CG         4.3380   -7.3190   36.3610 C.3    80  PRO80       0.0208
     18  CD         4.4380   -8.6540   35.7110 C.3    80  PRO80       0.0893
     19  N          6.2130   -6.1780   33.5640 N.am   81  ALA81      -0.1980
     20  CA         7.2400   -5.3280   32.9470 C.3    81  ALA81       0.1597
     21  C          7.2060   -5.4010   31.4190 C.2    81  ALA81       0.2287
     22  O          7.4510   -4.4050   30.7340 O.2    81  ALA81      -0.2864
     23  CB         8.6250   -5.6870   33.4740 C.3    81  ALA81       0.0319
     24  N         15.5890    0.3170   33.9220 N.3   166  LEU166     -0.1245
     25  CA        14.1610    0.4130   33.6290 C.3   166  LEU166      0.1561
     26  C         13.6470    1.8560   33.6110 C.2   166  LEU166      0.2260
     27  O         12.6520    2.1520   32.9470 O.2   166  LEU166     -0.2867
     28  CB        13.3490   -0.4560   34.5950 C.3   166  LEU166      0.0270
     29  CG        13.5030   -1.9750   34.4410 C.3   166  LEU166      0.0019
     30  CD1       12.9990   -2.6910   35.6770 C.3   166  LEU166      0.0001
     31  CD2       12.7940   -2.5000   33.1970 C.3   166  LEU166      0.0001
     32  N         11.8910    4.0860   29.8130 N.3   170  LEU170     -0.1245
     33  CA        10.7050    4.9310   29.6900 C.3   170  LEU170      0.1561
     34  C         10.8910    6.0890   28.7040 C.2   170  LEU170      0.2260
     35  O          9.9440    6.8400   28.4390 O.2   170  LEU170     -0.2867
     36  CB        10.2820    5.4490   31.0700 C.3   170  LEU170      0.0270
     37  CG         9.7540    4.3660   32.0200 C.3   170  LEU170      0.0019
     38  CD1       10.2260    4.6040   33.4490 C.3   170  LEU170      0.0001
     39  CD2        8.2320    4.2400   31.9440 C.3   170  LEU170      0.0001
     40  N          7.3400   -2.9470   41.1800 N.3   237  ASN237     -0.1225
     41  CA         8.2190   -2.4510   40.1170 C.3   237  ASN237      0.1785
     42  C          8.1340   -0.9360   39.9920 C.2   237  ASN237      0.2597
     43  O          9.1550   -0.2490   39.9490 O.2   237  ASN237     -0.2718
     44  CB         7.8830   -3.0900   38.7660 C.3   237  ASN237      0.1169
     45  CG         8.7050   -4.3280   38.4810 C.2   237  ASN237      0.2627
     46  OD1        8.5340   -5.3640   39.1230 O.2   237  ASN237     -0.2716
     47  ND2        9.5960   -4.2330   37.4960 N.am  237  ASN237     -0.0877
     48  N          6.9090   -0.4250   39.9370 N.am  238  LEU238     -0.1980
     49  CA         6.6720    1.0080   39.8350 C.3   238  LEU238      0.1596
     50  C          7.2770    1.7500   41.0270 C.2   238  LEU238      0.2287
     51  O          8.0160    2.7180   40.8440 O.2   238  LEU238     -0.2864
     52  CB         5.1720    1.3030   39.7180 C.3   238  LEU238      0.0297
     53  CG         4.7700    2.7220   39.2970 C.3   238  LEU238      0.0022
     54  CD1        3.3770    2.7390   38.6820 C.3   238  LEU238      0.0001
     55  CD2        4.8520    3.6810   40.4660 C.3   238  LEU238      0.0001
     56  N         11.2840    1.7190   41.2750 N.3   241  ILE241     -0.1231
     57  CA        11.8900    2.6450   40.3100 C.3   241  ILE241      0.1692
     58  C         11.6290    4.1040   40.6950 C.2   241  ILE241      0.2591
     59  O         12.5080    4.9620   40.5490 O.2   241  ILE241     -0.2718
     60  CB        11.4240    2.3390   38.8650 C.3   241  ILE241      0.0266
     61  CG1       12.1380    1.0880   38.3550 C.3   241  ILE241      0.0019
     62  CG2       11.6980    3.5170   37.9260 C.3   241  ILE241      0.0020
     63  CD1       11.2520    0.1430   37.5880 C.3   241  ILE241      0.0001
     64  N         10.4230    4.3740   41.1910 N.am  242  ALA242     -0.1980
     65  CA        10.0880    5.6870   41.7310 C.3   242  ALA242      0.1597
     66  C         11.0110    6.0370   42.8980 C.2   242  ALA242      0.2287
     67  O         11.4710    7.1750   43.0160 O.2   242  ALA242     -0.2864
     68  CB         8.6330    5.7290   42.1670 C.3   242  ALA242      0.0319
     69  N         13.5790    9.2990   41.0880 N.3   246  THR246     -0.1218
     70  CA        12.7120   10.4830   41.0470 C.3   246  THR246      0.1862
     71  C         13.0880   11.5630   42.0550 C.2   246  THR246      0.2287
     72  O         13.5530   12.6340   41.6610 O.2   246  THR246     -0.2866
     73  CB        11.2050   10.1320   41.1940 C.3   246  THR246      0.1770
     74  OG1       10.9700    9.5190   42.4670 O.3   246  THR246     -0.2211
     75  CG2       10.7540    9.2020   40.0840 C.3   246  THR246      0.0375
     76  N         10.5140   14.6420   36.3150 N.3   289  VAL289     -0.1245
     77  CA         9.8680   13.9350   35.2080 C.3   289  VAL289      0.1561
     78  C          9.5660   14.9700   34.1320 C.2   289  VAL289      0.2260
     79  O          8.7470   15.8700   34.3380 O.2   289  VAL289     -0.2867
     80  CB         8.5630   13.2140   35.6430 C.3   289  VAL289      0.0252
     81  CG1        7.9040   12.5220   34.4510 C.3   289  VAL289      0.0019
     82  CG2        8.8430   12.2070   36.7540 C.3   289  VAL289      0.0019
     83  N          8.5220   14.5730   30.8620 N.3   291  LEU291     -0.1231
     84  CA         7.4270   14.3200   29.9380 C.3   291  LEU291      0.1693
     85  C          6.6100   13.1010   30.3580 C.2   291  LEU291      0.2592
     86  O          7.0860   12.2580   31.1240 O.2   291  LEU291     -0.2718
     87  CB         7.9640   14.1460   28.5100 C.3   291  LEU291      0.0284
     88  CG         8.9200   12.9810   28.2370 C.3   291  LEU291      0.0019
     89  CD1        8.1750   11.8270   27.5770 C.3   291  LEU291      0.0001
     90  CD2       10.0710   13.4390   27.3600 C.3   291  LEU291      0.0001
     91  N          5.3790   13.0330   29.8610 N.am  292  VAL292     -0.1966
     92  CA         4.5360   11.8460   29.9820 C.3   292  VAL292      0.1727
     93  C          3.9310   11.5260   28.6170 C.2   292  VAL292      0.2616
     94  O          4.0080   12.3410   27.6940 O.2   292  VAL292     -0.2715
     95  CB         3.4030   12.0200   31.0350 C.3   292  VAL292      0.0290
     96  CG1        3.9760   12.0830   32.4390 C.3   292  VAL292      0.0023
     97  CG2        2.5380   13.2550   30.7290 C.3   292  VAL292      0.0023
     98  N          3.3450   10.3400   28.4850 N.am  293  SER293     -0.1950
     99  CA         2.6600    9.9660   27.2530 C.3   293  SER293      0.1924
    100  C          1.2540    9.4360   27.5210 C.2   293  SER293      0.2314
    101  O          0.9660    8.9150   28.5980 O.2   293  SER293     -0.2863
    102  CB         3.4840    8.9550   26.4430 C.3   293  SER293      0.2116
    103  OG         3.6720    7.7450   27.1580 O.3   293  SER293     -0.2180
    104  N         -4.3000    9.7280   37.1460 N.3   350  HIS350     -0.1241
    105  CA        -2.9510    9.1710   37.2460 C.3   350  HIS350      0.1621
    106  C         -1.9940    9.9950   38.1180 C.2   350  HIS350      0.2264
    107  O         -0.7800    9.7760   38.0770 O.2   350  HIS350     -0.2867
    108  CB        -2.3590    8.9700   35.8470 C.3   350  HIS350      0.0745
    109  CG        -3.2510    8.2030   34.9230 C.ar  350  HIS350      0.0817
    110  ND1       -3.3010    6.8280   34.9100 N.ar  350  HIS350     -0.2268
    111  CD2       -4.1350    8.6190   33.9850 C.ar  350  HIS350      0.1154
    112  CE1       -4.1750    6.4260   34.0050 C.ar  350  HIS350      0.1986
    113  NE2       -4.6940    7.4940   33.4280 N.ar  350  HIS350     -0.2212
    114  N          0.4400   11.5230   40.8180 N.3   352  CYS352     -0.1235
    115  CA         1.4870   10.8490   41.5880 C.3   352  CYS352      0.1677
    116  C          1.0990   10.5820   43.0390 C.2   352  CYS352      0.2270
    117  O          0.9230   11.5140   43.8280 O.2   352  CYS352     -0.2867
    118  CB         2.7900   11.6510   41.5550 C.3   352  CYS352      0.0956
    119  SG         4.1520   10.8110   42.4120 S.3   352  CYS352     -0.0801
    120  N         13.3370   11.3060   29.9700 N.3   389  THR389     -0.1203
    121  CA        12.0920   11.3680   30.7400 C.3   389  THR389      0.1994
    122  C         12.3580   11.5390   32.2370 C.2   389  THR389      0.2617
    123  O         11.9180   12.5190   32.8380 O.2   389  THR389     -0.2717
    124  CB        11.2110   10.1200   30.5020 C.3   389  THR389      0.1784
    125  OG1       10.9680    9.9710   29.1000 O.3   389  THR389     -0.2211
    126  CG2        9.8770   10.2460   31.2340 C.3   389  THR389      0.0376
    127  N         13.0650   10.5780   32.8290 N.am  390  LEU390     -0.1979
    128  CA        13.4870   10.6740   34.2250 C.3   390  LEU390      0.1596
    129  C         14.8930   11.2600   34.2780 C.2   390  LEU390      0.2287
    130  O         15.8510   10.5900   34.6700 O.2   390  LEU390     -0.2864
    131  CB        13.4130    9.3070   34.9250 C.3   390  LEU390      0.0297
    132  CG        12.0290    8.6510   35.0180 C.3   390  LEU390      0.0022
    133  CD1       12.0690    7.3820   35.8600 C.3   390  LEU390      0.0001
    134  CD2       10.9900    9.6130   35.5750 C.3   390  LEU390      0.0001
@<TRIPOS>BOND
     1     4     3    2
     2     3     2    1
     3     2     5    1
     4     2     1    1
     5     5     6    1
     6   102   103    1
     7   102    99    1
     8     6     7    1
     9     7     8    1
    10    99   100    1
    11    99    98    1
    12    90    88    1
    13   100   101    2
    14    89    88    1
    15    94    93    2
    16    88    87    1
    17     8     9    2
    18    10     9    1
    19    35    34    2
    20    98    93   am
    21    87    84    1
    22    93    92    1
    23    34    33    1
    24     9    11    1
    25   125   124    1
    26    33    32    1
    27    33    36    1
    28    91    92    1
    29    91    85   am
    30    84    85    1
    31    84    83    1
    32   120   121    1
    33    92    95    1
    34    85    86    2
    35   124   121    1
    36   124   126    1
    37    97    95    1
    38    22    21    2
    39   121   122    1
    40    95    96    1
    41    36    37    1
    42    21    20    1
    43    39    37    1
    44    37    38    1
    45   122   127   am
    46   122   123    2
    47    15    14    2
    48   127   128    1
    49    20    23    1
    50    20    19    1
    51    27    26    2
    52    31    29    1
    53    14    19   am
    54    14    13    1
    55   113   111   ar
    56   113   112   ar
    57    26    25    1
    58    25    24    1
    59    25    28    1
    60   111   109   ar
    61   112   110   ar
    62    13    12    1
    63    13    16    1
    64    78    79    2
    65    78    77    1
    66   128   129    1
    67   128   131    1
    68   129   130    2
    69    12    18    1
    70    29    28    1
    71    29    30    1
    72    81    80    1
    73   110   109   ar
    74   109   108    1
    75   131   132    1
    76   132   134    1
    77   132   133    1
    78    77    80    1
    79    77    76    1
    80    16    17    1
    81    80    82    1
    82    18    17    1
    83   108   105    1
    84   104   105    1
    85   105   106    1
    86    47    45   am
    87    63    61    1
    88    62    60    1
    89   107   106    2
    90    61    60    1
    91    45    44    1
    92    45    46    2
    93    54    53    1
    94    44    41    1
    95    60    57    1
    96    53    52    1
    97    53    55    1
    98    52    49    1
    99    49    48    1
   100    49    50    1
   101    48    42   am
   102    43    42    2
   103    42    41    1
   104    75    73    1
   105    41    40    1
   106    57    58    1
   107    57    56    1
   108    59    58    2
   109    58    64   am
   110   114   115    1
   111    51    50    2
   112    70    69    1
   113    70    73    1
   114    70    71    1
   115    64    65    1
   116    73    74    1
   117   118   115    1
   118   118   119    1
   119   115   116    1
   120    72    71    2
   121    65    68    1
   122    65    66    1
   123    66    67    2
   124   116   117    2
