@<TRIPOS>MOLECULE
tmp/3r9cA02.pdb
 143 135 0 0 0
SMALL
GASTEIGER

@<TRIPOS>ATOM
      1  N         -3.8230    5.1980   29.0200 N.3    57  SER57      -0.1202
      2  CA        -2.4810    4.8660   29.4850 C.3    57  SER57       0.2020
      3  C         -2.1250    3.4210   29.1390 C.2    57  SER57       0.2619
      4  O         -0.9520    3.0430   29.1620 O.2    57  SER57      -0.2717
      5  CB        -2.3670    5.0890   30.9930 C.3    57  SER57       0.2103
      6  OG        -2.6030    6.4440   31.3230 O.3    57  SER57      -0.2182
      7  N         -3.1460    2.6240   28.8170 N.am   58  ASP58      -0.1959
      8  CA        -2.9700    1.2090   28.4820 C.3    58  ASP58       0.1840
      9  C         -2.3240    1.0430   27.1060 C.2    58  ASP58       0.2621
     10  O         -2.7820    1.6260   26.1190 O.2    58  ASP58      -0.2715
     11  CB        -4.3120    0.4690   28.5470 C.3    58  ASP58       0.1450
     12  CG        -4.1490   -1.0400   28.6570 C.2    58  ASP58       0.3671
     13  OD1       -3.6830   -1.6700   27.6840 O.co2  58  ASP58      -0.2456
     14  OD2       -4.4980   -1.6020   29.7160 O.co2  58  ASP58      -0.2456
     15  N         -1.2660    0.2360   27.0600 N.am   59  ARG59      -0.1977
     16  CA        -0.4440    0.0520   25.8580 C.3    59  ARG59       0.1597
     17  C         -1.1460   -0.6620   24.7030 C.2    59  ARG59       0.2287
     18  O         -0.7860   -0.4570   23.5430 O.2    59  ARG59      -0.2864
     19  CB         0.8570   -0.6800   26.2020 C.3    59  ARG59       0.0334
     20  CG         1.9380    0.2030   26.8110 C.3    59  ARG59       0.0492
     21  CD         3.1750   -0.6060   27.1800 C.3    59  ARG59       0.2205
     22  NE         2.9700   -1.4140   28.3830 N.pl3  59  ARG59      -0.0865
     23  CZ         3.8910   -2.2010   28.9340 C.cat  59  ARG59       0.5346
     24  NH1        5.1000   -2.3000   28.3950 N.pl3  59  ARG59       0.1354
     25  NH2        3.6030   -2.8920   30.0300 N.pl3  59  ARG59       0.1354
     26  N          4.5160   -8.3130   34.2800 N.3    80  PRO80      -0.2102
     27  CA         3.9440   -6.9890   34.0110 C.3    80  PRO80       0.1504
     28  C          4.9100   -6.0040   33.3380 C.2    80  PRO80       0.2575
     29  O          4.4590   -5.1040   32.6240 O.2    80  PRO80      -0.2718
     30  CB         3.5550   -6.4820   35.4050 C.3    80  PRO80       0.0282
     31  CG         4.3380   -7.3190   36.3610 C.3    80  PRO80       0.0208
     32  CD         4.4380   -8.6540   35.7110 C.3    80  PRO80       0.0893
     33  N          6.2130   -6.1780   33.5640 N.am   81  ALA81      -0.1980
     34  CA         7.2400   -5.3280   32.9470 C.3    81  ALA81       0.1597
     35  C          7.2060   -5.4010   31.4190 C.2    81  ALA81       0.2287
     36  O          7.4510   -4.4050   30.7340 O.2    81  ALA81      -0.2864
     37  CB         8.6250   -5.6870   33.4740 C.3    81  ALA81       0.0319
     38  N          1.0640   -6.0560   31.0410 N.3    84  LEU84      -0.1245
     39  CA        -0.0620   -6.2790   31.9580 C.3    84  LEU84       0.1561
     40  C         -1.2420   -5.3850   31.5880 C.2    84  LEU84       0.2260
     41  O         -1.1620   -4.1560   31.6970 O.2    84  LEU84      -0.2867
     42  CB         0.3310   -6.0550   33.4270 C.3    84  LEU84       0.0270
     43  CG        -0.7920   -6.1360   34.4780 C.3    84  LEU84       0.0019
     44  CD1       -1.3490   -7.5480   34.6250 C.3    84  LEU84       0.0001
     45  CD2       -0.3240   -5.6130   35.8280 C.3    84  LEU84       0.0001
     46  N         -4.7490   -3.6590   32.1760 N.3    86  LEU86      -0.1245
     47  CA        -5.6030   -3.1690   33.2530 C.3    86  LEU86       0.1561
     48  C         -6.6910   -2.2730   32.6670 C.2    86  LEU86       0.2260
     49  O         -6.3880   -1.2660   32.0230 O.2    86  LEU86      -0.2867
     50  CB        -4.7890   -2.3860   34.2910 C.3    86  LEU86       0.0270
     51  CG        -3.6100   -3.0510   35.0130 C.3    86  LEU86       0.0019
     52  CD1       -2.7120   -1.9920   35.6320 C.3    86  LEU86       0.0001
     53  CD2       -4.0760   -4.0480   36.0670 C.3    86  LEU86       0.0001
     54  N         -7.4060   -0.3460   37.4560 N.3    91  HIS91      -0.1241
     55  CA        -6.5360    0.7680   37.7780 C.3    91  HIS91       0.1621
     56  C         -7.0110    1.5510   39.0080 C.2    91  HIS91       0.2264
     57  O         -6.2080    1.8790   39.8840 O.2    91  HIS91      -0.2867
     58  CB        -6.4160    1.6760   36.5570 C.3    91  HIS91       0.0745
     59  CG        -5.6610    2.9330   36.8210 C.ar   91  HIS91       0.0817
     60  ND1       -6.2780    4.1570   36.9430 N.ar   91  HIS91      -0.2268
     61  CD2       -4.3420    3.1520   37.0150 C.ar   91  HIS91       0.1154
     62  CE1       -5.3690    5.0820   37.1880 C.ar   91  HIS91       0.1986
     63  NE2       -4.1840    4.4990   37.2330 N.ar   91  HIS91      -0.2212
     64  N         -6.4150   -0.5710   42.1590 N.3    94  LEU94      -0.1231
     65  CA        -5.0030   -0.5520   42.5550 C.3    94  LEU94       0.1693
     66  C         -4.5940    0.7650   43.2130 C.2    94  LEU94       0.2591
     67  O         -3.9030    0.7600   44.2310 O.2    94  LEU94      -0.2718
     68  CB        -4.0850   -0.8570   41.3640 C.3    94  LEU94       0.0284
     69  CG        -4.0830   -2.2700   40.7720 C.3    94  LEU94       0.0019
     70  CD1       -3.2720   -2.2990   39.4900 C.3    94  LEU94       0.0001
     71  CD2       -3.5450   -3.2940   41.7610 C.3    94  LEU94       0.0001
     72  N         -5.0200    1.8840   42.6280 N.am   95  ARG95      -0.1980
     73  CA        -4.7680    3.2060   43.1990 C.3    95  ARG95       0.1597
     74  C         -5.3520    3.3500   44.5960 C.2    95  ARG95       0.2287
     75  O         -4.7050    3.9040   45.4830 O.2    95  ARG95      -0.2864
     76  CB        -5.3360    4.3050   42.3050 C.3    95  ARG95       0.0334
     77  CG        -4.3610    4.8330   41.2880 C.3    95  ARG95       0.0492
     78  CD        -4.9850    5.9570   40.4860 C.3    95  ARG95       0.2205
     79  NE        -5.0720    7.2220   41.2170 N.pl3  95  ARG95      -0.0865
     80  CZ        -4.0710    8.0920   41.3500 C.cat  95  ARG95       0.5346
     81  NH1       -2.8820    7.8390   40.8210 N.pl3  95  ARG95       0.1354
     82  NH2       -4.2580    9.2180   42.0230 N.pl3  95  ARG95       0.1354
     83  N         -3.1310    1.4540   47.1260 N.3    98  VAL98      -0.1245
     84  CA        -1.8300    2.1130   47.2760 C.3    98  VAL98       0.1561
     85  C         -1.9380    3.4940   47.9390 C.2    98  VAL98       0.2260
     86  O         -1.0750    3.8690   48.7400 O.2    98  VAL98      -0.2867
     87  CB        -1.0880    2.2100   45.9080 C.3    98  VAL98       0.0252
     88  CG1        0.1810    3.0630   46.0090 C.3    98  VAL98       0.0019
     89  CG2       -0.7410    0.8250   45.3950 C.3    98  VAL98       0.0019
     90  N          3.8030   -5.7020   39.6290 N.3   234  ALA234     -0.1231
     91  CA         3.6940   -4.4710   38.8420 C.3   234  ALA234      0.1694
     92  C          3.7720   -3.2320   39.7310 C.2   234  ALA234      0.2592
     93  O          4.4920   -2.2760   39.4210 O.2   234  ALA234     -0.2718
     94  CB         2.4000   -4.4650   38.0440 C.3   234  ALA234      0.0304
     95  N          3.0340   -3.2630   40.8370 N.am  235  THR235     -0.1953
     96  CA         3.0170   -2.1640   41.7970 C.3   235  THR235      0.1897
     97  C          4.4090   -1.9440   42.3930 C.2   235  THR235      0.2313
     98  O          4.8880   -0.8130   42.4500 O.2   235  THR235     -0.2863
     99  CB         1.9690   -2.4130   42.9080 C.3   235  THR235      0.1794
    100  OG1        0.6690   -2.5160   42.3140 O.3   235  THR235     -0.2208
    101  CG2        1.9650   -1.2850   43.9430 C.3   235  THR235      0.0378
    102  N          7.3400   -2.9470   41.1800 N.3   237  ASN237     -0.1225
    103  CA         8.2190   -2.4510   40.1170 C.3   237  ASN237      0.1785
    104  C          8.1340   -0.9360   39.9920 C.2   237  ASN237      0.2597
    105  O          9.1550   -0.2490   39.9490 O.2   237  ASN237     -0.2718
    106  CB         7.8830   -3.0900   38.7660 C.3   237  ASN237      0.1169
    107  CG         8.7050   -4.3280   38.4810 C.2   237  ASN237      0.2627
    108  OD1        8.5340   -5.3640   39.1230 O.2   237  ASN237     -0.2716
    109  ND2        9.5960   -4.2330   37.4960 N.am  237  ASN237     -0.0877
    110  N          6.9090   -0.4250   39.9370 N.am  238  LEU238     -0.1966
    111  CA         6.6720    1.0080   39.8350 C.3   238  LEU238      0.1728
    112  C          7.2770    1.7500   41.0270 C.2   238  LEU238      0.2616
    113  O          8.0160    2.7180   40.8440 O.2   238  LEU238     -0.2715
    114  CB         5.1720    1.3030   39.7180 C.3   238  LEU238      0.0311
    115  CG         4.7700    2.7220   39.2970 C.3   238  LEU238      0.0022
    116  CD1        3.3770    2.7390   38.6820 C.3   238  LEU238      0.0001
    117  CD2        4.8520    3.6810   40.4660 C.3   238  LEU238      0.0001
    118  N          6.9650    1.2810   42.2340 N.am  239  LEU239     -0.1977
    119  CA         7.4090    1.9290   43.4700 C.3   239  LEU239      0.1596
    120  C          8.9250    1.9100   43.6510 C.2   239  LEU239      0.2287
    121  O          9.5090    2.8860   44.1240 O.2   239  LEU239     -0.2864
    122  CB         6.7380    1.2940   44.6910 C.3   239  LEU239      0.0297
    123  CG         5.2160    1.3740   44.8410 C.3   239  LEU239      0.0022
    124  CD1        4.7890    0.6600   46.1150 C.3   239  LEU239      0.0001
    125  CD2        4.6990    2.8150   44.8340 C.3   239  LEU239      0.0001
    126  N         -4.3000    9.7280   37.1460 N.3   350  HIS350     -0.1241
    127  CA        -2.9510    9.1710   37.2460 C.3   350  HIS350      0.1621
    128  C         -1.9940    9.9950   38.1180 C.2   350  HIS350      0.2264
    129  O         -0.7800    9.7760   38.0770 O.2   350  HIS350     -0.2867
    130  CB        -2.3590    8.9700   35.8470 C.3   350  HIS350      0.0745
    131  CG        -3.2510    8.2030   34.9230 C.ar  350  HIS350      0.0817
    132  ND1       -3.3010    6.8280   34.9100 N.ar  350  HIS350     -0.2268
    133  CD2       -4.1350    8.6190   33.9850 C.ar  350  HIS350      0.1154
    134  CE1       -4.1750    6.4260   34.0050 C.ar  350  HIS350      0.1986
    135  NE2       -4.6940    7.4940   33.4280 N.ar  350  HIS350     -0.2212
    136  N          0.9820    9.3040   43.3880 N.3   353  LEU353     -0.1245
    137  CA         0.6790    8.9200   44.7660 C.3   353  LEU353      0.1561
    138  C          1.8830    9.0860   45.6920 C.2   353  LEU353      0.2260
    139  O          1.7310    9.1360   46.9110 O.2   353  LEU353     -0.2867
    140  CB         0.1350    7.4870   44.8290 C.3   353  LEU353      0.0270
    141  CG        -1.2280    7.2400   44.1680 C.3   353  LEU353      0.0019
    142  CD1       -1.6940    5.8120   44.3970 C.3   353  LEU353      0.0001
    143  CD2       -2.2830    8.2290   44.6700 C.3   353  LEU353      0.0001
@<TRIPOS>BOND
     1    18    17    2
     2    17    16    1
     3    16    19    1
     4    16    15    1
     5    10     9    2
     6    19    20    1
     7    20    21    1
     8    15     9   am
     9     9     8    1
    10    21    22    1
    11    13    12   ar
    12    22    23    2
    13    24    23    1
    14     8    11    1
    15     8     7    1
    16    11    12    1
    17    12    14   ar
    18     7     3   am
    19    23    25    1
    20     1     2    1
    21     3     4    2
    22     3     2    1
    23     2     5    1
    24    36    35    2
    25     5     6    1
    26    38    39    1
    27    35    34    1
    28    40    41    2
    29    40    39    1
    30    39    42    1
    31    49    48    2
    32    46    47    1
    33    29    28    2
    34    48    47    1
    35    34    37    1
    36    34    33    1
    37    47    50    1
    38    28    33   am
    39    28    27    1
    40    42    43    1
    41   135   133   ar
    42   135   134   ar
    43   133   131   ar
    44   134   132   ar
    45    27    26    1
    46    27    30    1
    47    26    32    1
    48    50    51    1
    49    43    44    1
    50    43    45    1
    51   132   131   ar
    52   131   130    1
    53    51    52    1
    54    51    53    1
    55    30    31    1
    56    32    31    1
    57   130   127    1
    58    58    59    1
    59    58    55    1
    60    59    60   ar
    61    59    61   ar
    62    60    62   ar
    63    61    63   ar
    64   126   127    1
    65    62    63   ar
    66   127   128    1
    67    54    55    1
    68   109   107   am
    69    55    56    1
    70    94    91    1
    71   129   128    2
    72   107   106    1
    73   107   108    2
    74   116   115    1
    75   106   103    1
    76    91    90    1
    77    91    92    1
    78    56    57    2
    79   115   114    1
    80   115   117    1
    81    93    92    2
    82    70    69    1
    83   114   111    1
    84    92    95   am
    85   111   110    1
    86   111   112    1
    87   110   104   am
    88   105   104    2
    89   104   103    1
    90   103   102    1
    91    78    79    1
    92    78    77    1
    93    69    68    1
    94    69    71    1
    95    81    80    1
    96    95    96    1
    97   113   112    2
    98   112   118   am
    99    79    80    2
   100    77    76    1
   101    80    82    1
   102    68    65    1
   103    96    97    1
   104    96    99    1
   105    64    65    1
   106   118   119    1
   107    76    73    1
   108   100    99    1
   109    97    98    2
   110    65    66    1
   111    72    73    1
   112    72    66   am
   113    99   101    1
   114    73    74    1
   115    66    67    2
   116   136   137    1
   117   119   120    1
   118   119   122    1
   119   120   121    2
   120   141   142    1
   121   141   143    1
   122   141   140    1
   123    74    75    2
   124   122   123    1
   125   137   140    1
   126   137   138    1
   127   125   123    1
   128   123   124    1
   129    89    87    1
   130   138   139    2
   131    87    88    1
   132    87    84    1
   133    83    84    1
   134    84    85    1
   135    85    86    2
