@<TRIPOS>MOLECULE
tmp/3r9eA01.pdb
 201 194 0 0 0
SMALL
GASTEIGER

@<TRIPOS>ATOM
      1  N         56.6880   -5.0780    9.4360 N.3    28  LEU28      -0.1245
      2  CA        57.7100   -4.0780    9.1470 C.3    28  LEU28       0.1561
      3  C         59.0860   -4.7310    9.0690 C.2    28  LEU28       0.2260
      4  O         59.8410   -4.4980    8.1180 O.2    28  LEU28      -0.2867
      5  CB        57.6950   -2.9620   10.1970 C.3    28  LEU28       0.0270
      6  CG        58.6810   -1.8030    9.9920 C.3    28  LEU28       0.0019
      7  CD1       58.2590   -0.9070    8.8200 C.3    28  LEU28       0.0001
      8  CD2       58.8380   -0.9730   11.2560 C.3    28  LEU28       0.0001
      9  N         61.6250   -4.9290    5.7820 N.3    32  ILE32      -0.1245
     10  CA        62.9930   -4.4210    5.8070 C.3    32  ILE32       0.1561
     11  C         63.9590   -5.5370    5.4240 C.2    32  ILE32       0.2260
     12  O         64.8480   -5.3450    4.6000 O.2    32  ILE32      -0.2867
     13  CB        63.3780   -3.8500    7.1930 C.3    32  ILE32       0.0252
     14  CG1       62.5880   -2.5730    7.5000 C.3    32  ILE32       0.0019
     15  CG2       64.8800   -3.5510    7.2630 C.3    32  ILE32       0.0019
     16  CD1       62.5870   -2.2050    8.9750 C.3    32  ILE32       0.0001
     17  N         71.3960    3.1120    0.1660 N.3    42  SER42      -0.1202
     18  CA        70.9530    4.5060    0.2820 C.3    42  SER42       0.2020
     19  C         70.6810    5.0240    1.7040 C.2    42  SER42       0.2619
     20  O         70.4330    6.2120    1.8910 O.2    42  SER42      -0.2717
     21  CB        69.7130    4.7340   -0.5840 C.3    42  SER42       0.2103
     22  OG        68.6290    3.9910   -0.0830 O.3    42  SER42      -0.2182
     23  N         70.7090    4.1400    2.6970 N.am   43  MET43      -0.1965
     24  CA        70.4060    4.5090    4.0850 C.3    43  MET43       0.1736
     25  C         71.3700    3.7660    5.0050 C.2    43  MET43       0.2616
     26  O         71.8010    2.6720    4.6710 O.2    43  MET43      -0.2715
     27  CB        68.9480    4.1610    4.4190 C.3    43  MET43       0.0427
     28  CG        67.9080    4.9020    3.5550 C.3    43  MET43       0.0599
     29  SD        66.1850    4.4830    3.9160 S.3    43  MET43      -0.1393
     30  CE        66.0940    2.7610    3.3970 C.3    43  MET43       0.0692
     31  N         71.7100    4.3480    6.1560 N.am   44  ALA44      -0.1963
     32  CA        72.6950    3.7210    7.0610 C.3    44  ALA44       0.1728
     33  C         72.0750    2.6260    7.9400 C.2    44  ALA44       0.2616
     34  O         72.6240    1.5160    8.0680 O.2    44  ALA44      -0.2715
     35  CB        73.3970    4.7780    7.9200 C.3    44  ALA44       0.0334
     36  N         70.9090    2.9250    8.5070 N.am   45  TRP45      -0.1974
     37  CA        70.2630    2.0600    9.5050 C.3    45  TRP45       0.1640
     38  C         69.9000    0.6200    9.0880 C.2    45  TRP45       0.2290
     39  O         69.8960   -0.2630    9.9470 O.2    45  TRP45      -0.2864
     40  CB        69.0370    2.7710   10.1170 C.3    45  TRP45       0.0576
     41  CG        68.0020    3.0950    9.0900 C.ar   45  TRP45       0.0006
     42  CD1       67.8750    4.2640    8.4020 C.ar   45  TRP45       0.0946
     43  CD2       66.9770    2.2240    8.6020 C.ar   45  TRP45       0.0152
     44  NE1       66.8280    4.1790    7.5150 N.ar   45  TRP45      -0.2442
     45  CE2       66.2620    2.9360    7.6140 C.ar   45  TRP45       0.0810
     46  CE3       66.5840    0.9110    8.9060 C.ar   45  TRP45       0.0012
     47  CZ2       65.1820    2.3790    6.9260 C.ar   45  TRP45       0.0191
     48  CZ3       65.5140    0.3600    8.2200 C.ar   45  TRP45       0.0001
     49  CH2       64.8210    1.0960    7.2420 C.ar   45  TRP45       0.0015
     50  N         69.5000   -3.8380   11.1440 N.3    49  VAL49      -0.1245
     51  CA        68.2010   -4.4340   11.4530 C.3    49  VAL49       0.1561
     52  C         68.3070   -5.9460   11.2610 C.2    49  VAL49       0.2260
     53  O         68.2400   -6.4490   10.1370 O.2    49  VAL49      -0.2867
     54  CB        67.0640   -3.8410   10.5880 C.3    49  VAL49       0.0252
     55  CG1       65.7250   -4.4600   10.9640 C.3    49  VAL49       0.0019
     56  CG2       67.0020   -2.3300   10.7550 C.3    49  VAL49       0.0019
     57  N         64.5870   -5.4090   16.7860 N.3    54  ASP54      -0.1225
     58  CA        65.0780   -4.1160   16.3200 C.3    54  ASP54       0.1805
     59  C         63.9260   -3.2580   15.8090 C.2    54  ASP54       0.2598
     60  O         63.9070   -2.0460   16.0350 O.2    54  ASP54      -0.2718
     61  CB        66.1400   -4.2900   15.2290 C.3    54  ASP54       0.1424
     62  CG        67.3810   -5.0110   15.7290 C.2    54  ASP54       0.3668
     63  OD1       67.9080   -4.6070   16.7840 O.co2  54  ASP54      -0.2456
     64  OD2       67.8280   -5.9690   15.0590 O.co2  54  ASP54      -0.2456
     65  N         62.9680   -3.8860   15.1330 N.am   55  SER55      -0.1952
     66  CA        61.7920   -3.1650   14.6480 C.3    55  SER55       0.1924
     67  C         60.8670   -2.7800   15.8010 C.2    55  SER55       0.2314
     68  O         60.2820   -1.6980   15.7890 O.2    55  SER55      -0.2863
     69  CB        61.0570   -3.9660   13.5790 C.3    55  SER55       0.2116
     70  OG        61.8300   -4.0530   12.3870 O.3    55  SER55      -0.2180
     71  N         62.4500    0.2850   17.2750 N.3    58  PHE58      -0.1241
     72  CA        62.1550    1.4030   16.3940 C.3    58  PHE58       0.1605
     73  C         60.7250    1.9200   16.5910 C.2    58  PHE58       0.2264
     74  O         60.5020    3.1300   16.6710 O.2    58  PHE58      -0.2867
     75  CB        62.3920    1.0190   14.9340 C.3    58  PHE58       0.0534
     76  CG        61.9530    2.0750   13.9610 C.ar   58  PHE58      -0.0203
     77  CD1       62.6670    3.2640   13.8350 C.ar   58  PHE58      -0.0042
     78  CD2       60.8180    1.8870   13.1820 C.ar   58  PHE58      -0.0042
     79  CE1       62.2590    4.2470   12.9460 C.ar   58  PHE58      -0.0003
     80  CE2       60.4020    2.8710   12.2840 C.ar   58  PHE58      -0.0003
     81  CZ        61.1270    4.0430   12.1740 C.ar   58  PHE58      -0.0000
     82  N         56.3910    9.8840   12.5640 N.3    73  ILE73      -0.1245
     83  CA        56.7400    8.6420   11.8830 C.3    73  ILE73       0.1561
     84  C         55.4560    7.9190   11.5310 C.2    73  ILE73       0.2260
     85  O         54.6230    7.6850   12.4050 O.2    73  ILE73      -0.2867
     86  CB        57.6080    7.7280   12.7880 C.3    73  ILE73       0.0252
     87  CG1       58.8010    8.4940   13.3910 C.3    73  ILE73       0.0019
     88  CG2       58.0380    6.4610   12.0410 C.3    73  ILE73       0.0019
     89  CD1       59.7410    9.1470   12.3880 C.3    73  ILE73       0.0001
     90  N         57.7300    3.4820    4.9350 N.3    85  VAL85      -0.1245
     91  CA        57.6360    4.4980    5.9780 C.3    85  VAL85       0.1561
     92  C         57.7010    5.8730    5.3170 C.2    85  VAL85       0.2260
     93  O         58.4560    6.0720    4.3610 O.2    85  VAL85      -0.2867
     94  CB        58.8040    4.3550    7.0040 C.3    85  VAL85       0.0252
     95  CG1       58.7980    5.4950    8.0200 C.3    85  VAL85       0.0019
     96  CG2       58.7200    3.0250    7.7330 C.3    85  VAL85       0.0019
     97  N         57.9160   10.0290    6.8510 N.3    87  SER87      -0.1217
     98  CA        58.1120   10.6870    8.1320 C.3    87  SER87       0.1889
     99  C         58.4310   12.1530    7.9990 C.2    87  SER87       0.2288
    100  O         58.9850   12.5960    6.9920 O.2    87  SER87      -0.2866
    101  CB        59.2610   10.0220    8.8880 C.3    87  SER87       0.2089
    102  OG        60.4260   10.0260    8.0920 O.3    87  SER87      -0.2183
    103  N         61.1450   13.3850    9.8810 N.3    89  ASN89      -0.1240
    104  CA        62.2450   12.9020   10.7370 C.3    89  ASN89       0.1653
    105  C         62.4970   13.8550   11.9050 C.2    89  ASN89       0.2266
    106  O         62.8210   13.4300   13.0190 O.2    89  ASN89      -0.2867
    107  CB        63.5700   12.7990    9.9620 C.3    89  ASN89       0.1155
    108  CG        63.5260   11.8220    8.8150 C.2    89  ASN89       0.2627
    109  OD1       62.8380   10.8080    8.8700 O.2    89  ASN89      -0.2716
    110  ND2       64.2880   12.1190    7.7620 N.am   89  ASN89      -0.0877
    111  N         61.4460   18.1410    8.2430 N.3    99  TYR99      -0.1227
    112  CA        62.3880   17.4190    7.3890 C.3    99  TYR99       0.1736
    113  C         61.7970   16.0530    7.1020 C.2    99  TYR99       0.2595
    114  O         61.5140   15.2910    8.0290 O.2    99  TYR99      -0.2718
    115  CB        63.7430   17.2830    8.0860 C.3    99  TYR99       0.0548
    116  CG        64.4120   18.6160    8.3170 C.ar   99  TYR99      -0.0200
    117  CD1       65.3710   19.0950    7.4280 C.ar   99  TYR99      -0.0009
    118  CD2       64.0650   19.4170    9.4060 C.ar   99  TYR99      -0.0009
    119  CE1       65.9750   20.3390    7.6270 C.ar   99  TYR99       0.0417
    120  CE2       64.6610   20.6630    9.6090 C.ar   99  TYR99       0.0417
    121  CZ        65.6130   21.1100    8.7160 C.ar   99  TYR99       0.1957
    122  OH        66.2100   22.3380    8.8940 O.3    99  TYR99      -0.2866
    123  N         61.6000   15.7640    5.8180 N.am  100  ILE100     -0.1966
    124  CA        60.8980   14.5620    5.3640 C.3   100  ILE100      0.1727
    125  C         61.8550   13.4090    5.0580 C.2   100  ILE100      0.2617
    126  O         62.9240   13.5990    4.4570 O.2   100  ILE100     -0.2715
    127  CB        60.0510   14.8880    4.1070 C.3   100  ILE100      0.0290
    128  CG1       58.9260   15.8630    4.4700 C.3   100  ILE100      0.0022
    129  CG2       59.4990   13.6120    3.4540 C.3   100  ILE100      0.0023
    130  CD1       58.2560   16.5060    3.2770 C.3   100  ILE100      0.0001
    131  N         61.4530   12.2110    5.4670 N.am  101  GLY101     -0.1940
    132  CA        62.1400   10.9860    5.0770 C.3   101  GLY101      0.2014
    133  C         61.1480    9.9770    4.5370 C.2   101  GLY101      0.2639
    134  O         59.9470   10.0780    4.7910 O.2   101  GLY101     -0.2714
    135  N         61.6440    8.9960    3.7960 N.am  102  TYR102     -0.1959
    136  CA        60.7720    7.9580    3.2490 C.3   102  TYR102      0.1771
    137  C         61.5510    6.7600    2.7410 C.2   102  TYR102      0.2619
    138  O         62.7270    6.8730    2.3800 O.2   102  TYR102     -0.2715
    139  CB        59.8900    8.4940    2.1110 C.3   102  TYR102      0.0574
    140  CG        60.5780    9.4420    1.1590 C.ar  102  TYR102     -0.0198
    141  CD1       61.4980    8.9930    0.2150 C.ar  102  TYR102     -0.0009
    142  CD2       60.2900   10.7990    1.1950 C.ar  102  TYR102     -0.0009
    143  CE1       62.1080    9.8770   -0.6670 C.ar  102  TYR102      0.0417
    144  CE2       60.8880   11.6870    0.3230 C.ar  102  TYR102      0.0417
    145  CZ        61.7930   11.2310   -0.6020 C.ar  102  TYR102      0.1957
    146  OH        62.3680   12.1420   -1.4620 O.3   102  TYR102     -0.2866
    147  N         60.8590    5.6240    2.6850 N.am  103  TRP103     -0.1974
    148  CA        61.3190    4.4630    1.9400 C.3   103  TRP103      0.1640
    149  C         60.1460    3.5730    1.5860 C.2   103  TRP103      0.2290
    150  O         59.1370    3.5600    2.2850 O.2   103  TRP103     -0.2864
    151  CB        62.3890    3.6720    2.6900 C.3   103  TRP103      0.0576
    152  CG        62.0000    3.0260    3.9840 C.ar  103  TRP103      0.0006
    153  CD1       62.2720    3.4950    5.2310 C.ar  103  TRP103      0.0946
    154  CD2       61.3820    1.7390    4.1680 C.ar  103  TRP103      0.0152
    155  NE1       61.8280    2.6060    6.1850 N.ar  103  TRP103     -0.2442
    156  CE2       61.2900    1.5180    5.5590 C.ar  103  TRP103      0.0810
    157  CE3       60.8800    0.7620    3.2960 C.ar  103  TRP103      0.0012
    158  CZ2       60.7210    0.3600    6.0980 C.ar  103  TRP103      0.0191
    159  CZ3       60.3260   -0.3900    3.8330 C.ar  103  TRP103      0.0001
    160  CH2       60.2510   -0.5800    5.2200 C.ar  103  TRP103      0.0015
    161  N         63.4320   18.1430    1.9170 N.3   136  ILE136     -0.1231
    162  CA        63.9320   16.8130    1.5840 C.3   136  ILE136      0.1692
    163  C         65.4260   16.9340    1.3280 C.2   136  ILE136      0.2592
    164  O         65.8590   17.7290    0.4900 O.2   136  ILE136     -0.2718
    165  CB        63.2190   16.2240    0.3440 C.3   136  ILE136      0.0266
    166  CG1       61.7500   15.9290    0.6680 C.3   136  ILE136      0.0019
    167  CG2       63.9490   14.9700   -0.1730 C.3   136  ILE136      0.0020
    168  CD1       60.8850   15.6700   -0.5560 C.3   136  ILE136      0.0001
    169  N         66.2070   16.1570    2.0650 N.am  137  LYS137     -0.1966
    170  CA        67.6530   16.1090    1.8690 C.3   137  LYS137      0.1728
    171  C         68.0160   14.6760    1.6360 C.2   137  LYS137      0.2616
    172  O         67.6730   13.8200    2.4400 O.2   137  LYS137     -0.2715
    173  CB        68.3980   16.5830    3.1140 C.3   137  LYS137      0.0311
    174  CG        68.1450   18.0050    3.5350 C.3   137  LYS137      0.0038
    175  CD        68.2870   18.1540    5.0410 C.3   137  LYS137      0.0206
    176  CE        69.4860   17.4070    5.5640 C.3   137  LYS137      0.1093
    177  NZ        69.3010   16.9660    6.9710 N.3   137  LYS137     -0.1314
    178  N         68.7180   14.4180    0.5410 N.am  138  CYS138     -0.1968
    179  CA        69.1360   13.0730    0.2360 C.3   138  CYS138      0.1712
    180  C         70.3970   13.1230   -0.6350 C.2   138  CYS138      0.2296
    181  O         70.6940   14.1400   -1.2620 O.2   138  CYS138     -0.2864
    182  CB        67.9450   12.3340   -0.3840 C.3   138  CYS138      0.0983
    183  SG        68.2160   10.8020   -1.2050 S.3   138  CYS138     -0.0798
    184  N         76.2890   13.4940    4.4720 N.3   164  GLU164     -0.1245
    185  CA        75.6990   12.2320    4.9140 C.3   164  GLU164      0.1567
    186  C         76.6960   11.0920    4.8170 C.2   164  GLU164      0.2260
    187  O         77.2690   10.8470    3.7560 O.2   164  GLU164     -0.2867
    188  CB        74.4270   11.9020    4.1250 C.3   164  GLU164      0.0388
    189  CG        73.7530   10.6190    4.6190 C.3   164  GLU164      0.1160
    190  CD        72.3620   10.3730    4.0630 C.2   164  GLU164      0.3649
    191  OE1       71.8410   11.2160    3.3060 O.co2 164  GLU164     -0.2457
    192  OE2       71.7880    9.3130    4.4060 O.co2 164  GLU164     -0.2457
    193  N         74.7460   15.9250   -0.2960 N.3   173  GLN173     -0.1245
    194  CA        73.2870   15.8510   -0.3990 C.3   173  GLN173      0.1566
    195  C         72.7480   17.0050   -1.2230 C.2   173  GLN173      0.2260
    196  O         73.2730   18.1210   -1.1630 O.2   173  GLN173     -0.2867
    197  CB        72.6340   15.9630    0.9740 C.3   173  GLN173      0.0367
    198  CG        72.8450   14.7940    1.9000 C.3   173  GLN173      0.0905
    199  CD        72.1360   15.0000    3.2220 C.2   173  GLN173      0.2608
    200  OE1       71.5230   14.0760    3.7610 O.2   173  GLN173     -0.2717
    201  NE2       72.2060   16.2160    3.7460 N.am  173  GLN173     -0.0878
@<TRIPOS>BOND
     1   146   145    1
     2   181   180    2
     3   195   196    2
     4   195   194    1
     5   183   182    1
     6   143   145   ar
     7   143   141   ar
     8   180   179    1
     9   145   144   ar
    10    21    22    1
    11    21    18    1
    12   168   166    1
    13   194   193    1
    14   194   197    1
    15   182   179    1
    16   167   165    1
    17    17    18    1
    18   141   140   ar
    19   179   178    1
    20    18    19    1
    21   144   142   ar
    22   165   166    1
    23   165   162    1
    24   164   163    2
    25   178   171   am
    26   197   198    1
    27   140   142   ar
    28   140   139    1
    29   163   162    1
    30   163   169   am
    31   162   161    1
    32   149   148    1
    33   149   150    2
    34   171   170    1
    35   171   172    2
    36    19    20    2
    37    19    23   am
    38   170   169    1
    39   170   173    1
    40   198   199    1
    41   148   147    1
    42   148   151    1
    43   139   136    1
    44   138   137    2
    45   147   137   am
    46   151   152    1
    47    23    24    1
    48   137   136    1
    49   173   174    1
    50   199   201   am
    51   199   200    2
    52   136   135    1
    53   130   128    1
    54   157   159   ar
    55   157   154   ar
    56   191   190   ar
    57    30    29    1
    58   129   127    1
    59   174   175    1
    60    28    29    1
    61    28    27    1
    62   187   186    2
    63   135   133   am
    64   159   160   ar
    65   152   154   ar
    66   152   153   ar
    67   190   192   ar
    68   190   189    1
    69    24    27    1
    70    24    25    1
    71   127   128    1
    72   127   124    1
    73   188   189    1
    74   188   185    1
    75   154   156   ar
    76    93    92    2
    77   126   125    2
    78   184   185    1
    79   133   134    2
    80   133   132    1
    81    12    11    2
    82    26    25    2
    83   186   185    1
    84    90    91    1
    85    25    31   am
    86   175   176    1
    87   125   124    1
    88   125   131   am
    89   132   131    1
    90   160   158   ar
    91   153   155   ar
    92    92    91    1
    93   124   123    1
    94    11    10    1
    95   156   158   ar
    96   156   155   ar
    97   176   177    1
    98     9    10    1
    99    10    13    1
   100   123   113   am
   101    91    94    1
   102    31    32    1
   103    97    98    1
   104    47    49   ar
   105    47    45   ar
   106   100    99    2
   107    94    96    1
   108    94    95    1
   109    32    35    1
   110    32    33    1
   111   113   112    1
   112   113   114    2
   113    13    15    1
   114    13    14    1
   115    49    48   ar
   116   112   115    1
   117   112   111    1
   118   117   119   ar
   119   117   116   ar
   120    14    16    1
   121    44    45   ar
   122    44    42   ar
   123    45    43   ar
   124   119   121   ar
   125   110   108   am
   126    33    34    2
   127    33    36   am
   128    99    98    1
   129   115   116    1
   130   102   101    1
   131     4     3    2
   132    98   101    1
   133    48    46   ar
   134   116   118   ar
   135    42    41   ar
   136    36    37    1
   137    43    46   ar
   138    43    41   ar
   139   121   122    1
   140   121   120   ar
   141   108   109    2
   142   108   107    1
   143     7     6    1
   144     3     2    1
   145    38    37    1
   146    38    39    2
   147    41    40    1
   148     2     1    1
   149     2     5    1
   150   118   120   ar
   151    37    40    1
   152   103   104    1
   153   107   104    1
   154     6     5    1
   155     6     8    1
   156    53    52    2
   157    54    56    1
   158    54    55    1
   159    54    51    1
   160   104   105    1
   161    50    51    1
   162    52    51    1
   163    84    83    1
   164    84    85    2
   165    83    82    1
   166    83    86    1
   167   105   106    2
   168    88    86    1
   169    81    80   ar
   170    81    79   ar
   171    80    78   ar
   172    70    69    1
   173    89    87    1
   174    86    87    1
   175    79    77   ar
   176    78    76   ar
   177    69    66    1
   178    77    76   ar
   179    76    75    1
   180    66    65    1
   181    66    67    1
   182    75    72    1
   183    64    62   ar
   184    65    59   am
   185    61    62    1
   186    61    58    1
   187    62    63   ar
   188    68    67    2
   189    59    60    2
   190    59    58    1
   191    58    57    1
   192    72    73    1
   193    72    71    1
   194    73    74    2
