@<TRIPOS>MOLECULE
tmp/3r9fB01.pdb
 186 178 0 0 0
SMALL
GASTEIGER

@<TRIPOS>ATOM
      1  N         37.5210   10.8180  -32.6700 N.3    28  LEU28      -0.1245
      2  CA        36.8200   11.1420  -31.4370 C.3    28  LEU28       0.1561
      3  C         35.4870   10.3970  -31.3310 C.2    28  LEU28       0.2260
      4  O         35.1890    9.7940  -30.3040 O.2    28  LEU28      -0.2867
      5  CB        36.6020   12.6520  -31.3300 C.3    28  LEU28       0.0270
      6  CG        36.0350   13.1740  -30.0080 C.3    28  LEU28       0.0019
      7  CD1       37.0560   13.0680  -28.8810 C.3    28  LEU28       0.0001
      8  CD2       35.5680   14.6090  -30.1670 C.3    28  LEU28       0.0001
      9  N         34.3620    7.5870  -28.4790 N.3    32  ILE32      -0.1245
     10  CA        33.1680    7.7490  -27.6500 C.3    32  ILE32       0.1561
     11  C         32.2450    6.5310  -27.8010 C.2    32  ILE32       0.2260
     12  O         31.7840    5.9630  -26.8080 O.2    32  ILE32      -0.2867
     13  CB        32.4150    9.0610  -27.9800 C.3    32  ILE32       0.0252
     14  CG1       33.2810   10.2770  -27.6170 C.3    32  ILE32       0.0019
     15  CG2       31.0580    9.1150  -27.2650 C.3    32  ILE32       0.0019
     16  CD1       32.8650   11.5660  -28.3100 C.3    32  ILE32       0.0001
     17  N         28.6940    7.6320  -16.0230 N.3    42  SER42      -0.1202
     18  CA        29.4700    8.7070  -15.4020 C.3    42  SER42       0.2020
     19  C         29.2230   10.1060  -15.9760 C.2    42  SER42       0.2619
     20  O         29.5470   11.1050  -15.3290 O.2    42  SER42      -0.2717
     21  CB        30.9650    8.3820  -15.4900 C.3    42  SER42       0.2103
     22  OG        31.3740    8.2770  -16.8400 O.3    42  SER42      -0.2182
     23  N         28.6840   10.1830  -17.1910 N.am   43  MET43      -0.1965
     24  CA        28.5080   11.4590  -17.8830 C.3    43  MET43       0.1736
     25  C         27.1920   11.4460  -18.6480 C.2    43  MET43       0.2616
     26  O         26.7410   10.3860  -19.0950 O.2    43  MET43      -0.2715
     27  CB        29.6730   11.7270  -18.8460 C.3    43  MET43       0.0427
     28  CG        31.0500   11.7730  -18.1720 C.3    43  MET43       0.0599
     29  SD        32.4380   12.0800  -19.2830 S.3    43  MET43      -0.1393
     30  CE        32.4740   10.5680  -20.2480 C.3    43  MET43       0.0692
     31  N         26.5840   12.6210  -18.8030 N.am   44  ALA44      -0.1963
     32  CA        25.2630   12.7390  -19.4350 C.3    44  ALA44       0.1728
     33  C         25.3210   12.8200  -20.9640 C.2    44  ALA44       0.2616
     34  O         24.4880   12.2410  -21.6700 O.2    44  ALA44      -0.2715
     35  CB        24.5100   13.9360  -18.8580 C.3    44  ALA44       0.0334
     36  N         26.3210   13.5230  -21.4740 N.am   45  TRP45      -0.1974
     37  CA        26.4030   13.8160  -22.9040 C.3    45  TRP45       0.1640
     38  C         26.6550   12.6250  -23.8620 C.2    45  TRP45       0.2290
     39  O         26.2170   12.6940  -25.0110 O.2    45  TRP45      -0.2864
     40  CB        27.4070   14.9470  -23.1550 C.3    45  TRP45       0.0576
     41  CG        28.7740   14.5920  -22.6810 C.ar   45  TRP45       0.0006
     42  CD1       29.3290   14.8890  -21.4660 C.ar   45  TRP45       0.0946
     43  CD2       29.7550   13.8300  -23.3960 C.ar   45  TRP45       0.0152
     44  NE1       30.5960   14.3660  -21.3860 N.ar   45  TRP45      -0.2442
     45  CE2       30.8820   13.7090  -22.5540 C.ar   45  TRP45       0.0810
     46  CE3       29.7910   13.2370  -24.6680 C.ar   45  TRP45       0.0012
     47  CZ2       32.0350   13.0230  -22.9460 C.ar   45  TRP45       0.0191
     48  CZ3       30.9330   12.5530  -25.0530 C.ar   45  TRP45       0.0001
     49  CH2       32.0410   12.4540  -24.1960 C.ar   45  TRP45       0.0015
     50  N         25.6770   11.2540  -28.5440 N.3    49  VAL49      -0.1245
     51  CA        26.6690   11.2200  -29.6190 C.3    49  VAL49       0.1561
     52  C         26.3690   10.0430  -30.5530 C.2    49  VAL49       0.2260
     53  O         26.8810    8.9320  -30.3770 O.2    49  VAL49      -0.2867
     54  CB        28.1220   11.1820  -29.0780 C.3    49  VAL49       0.0252
     55  CG1       29.1290   11.3150  -30.2240 C.3    49  VAL49       0.0019
     56  CG2       28.3370   12.2920  -28.0560 C.3    49  VAL49       0.0019
     57  N         27.8170   14.7050  -34.8850 N.3    54  ASP54      -0.1225
     58  CA        27.7150   15.1720  -33.4960 C.3    54  ASP54       0.1805
     59  C         29.0810   15.5680  -32.9310 C.2    54  ASP54       0.2598
     60  O         29.1980   16.5770  -32.2310 O.2    54  ASP54      -0.2718
     61  CB        27.0470   14.1190  -32.6110 C.3    54  ASP54       0.1424
     62  CG        25.5970   13.8810  -32.9840 C.2    54  ASP54       0.3668
     63  OD1       24.8800   14.8670  -33.2630 O.co2  54  ASP54      -0.2456
     64  OD2       25.1760   12.7060  -32.9900 O.co2  54  ASP54      -0.2456
     65  N         30.1090   14.7820  -33.2490 N.am   55  SER55      -0.1952
     66  CA        31.4790   15.1280  -32.8650 C.3    55  SER55       0.1924
     67  C         31.9730   16.3470  -33.6400 C.2    55  SER55       0.2314
     68  O         32.7110   17.1710  -33.1020 O.2    55  SER55      -0.2863
     69  CB        32.4290   13.9390  -33.0450 C.3    55  SER55       0.2116
     70  OG        32.1130   12.8950  -32.1400 O.3    55  SER55      -0.2180
     71  N         30.5010   19.3290  -31.8280 N.3    58  PHE58      -0.1241
     72  CA        31.2450   19.5510  -30.5930 C.3    58  PHE58       0.1605
     73  C         32.5810   20.2430  -30.8620 C.2    58  PHE58       0.2264
     74  O         32.9540   21.1800  -30.1550 O.2    58  PHE58      -0.2867
     75  CB        31.4580   18.2350  -29.8360 C.3    58  PHE58       0.0534
     76  CG        32.3040   18.3850  -28.6060 C.ar   58  PHE58      -0.0203
     77  CD1       31.8000   19.0260  -27.4800 C.ar   58  PHE58      -0.0042
     78  CD2       33.6070   17.8970  -28.5760 C.ar   58  PHE58      -0.0042
     79  CE1       32.5760   19.1770  -26.3430 C.ar   58  PHE58      -0.0003
     80  CE2       34.3970   18.0500  -27.4360 C.ar   58  PHE58      -0.0003
     81  CZ        33.8770   18.6890  -26.3210 C.ar   58  PHE58      -0.0000
     82  N         39.1810   23.5550  -24.2500 N.3    73  ILE73      -0.1245
     83  CA        38.8930   22.1680  -24.5950 C.3    73  ILE73       0.1561
     84  C         40.0740   21.6380  -25.3880 C.2    73  ILE73       0.2260
     85  O         40.4700   22.2370  -26.3890 O.2    73  ILE73      -0.2867
     86  CB        37.6010   22.0360  -25.4350 C.3    73  ILE73       0.0252
     87  CG1       36.4090   22.7090  -24.7490 C.3    73  ILE73       0.0019
     88  CG2       37.2800   20.5690  -25.7010 C.3    73  ILE73       0.0019
     89  CD1       36.1700   24.1430  -25.1610 C.3    73  ILE73       0.0001
     90  N         39.6420   13.6080  -23.6540 N.3    85  VAL85      -0.1245
     91  CA        39.5090   15.0600  -23.6120 C.3    85  VAL85       0.1561
     92  C         39.8740   15.5280  -22.2090 C.2    85  VAL85       0.2260
     93  O         39.5420   14.8730  -21.2170 O.2    85  VAL85      -0.2867
     94  CB        38.0480   15.4920  -23.9580 C.3    85  VAL85       0.0252
     95  CG1       37.8560   16.9990  -23.8170 C.3    85  VAL85       0.0019
     96  CG2       37.6580   15.0360  -25.3670 C.3    85  VAL85       0.0019
     97  N         39.7460   19.4290  -20.1370 N.3    87  SER87      -0.1217
     98  CA        39.1900   20.7570  -20.3380 C.3    87  SER87       0.1889
     99  C         39.1960   21.6150  -19.0950 C.2    87  SER87       0.2288
    100  O         39.1590   21.1170  -17.9690 O.2    87  SER87      -0.2866
    101  CB        37.7380   20.6480  -20.8110 C.3    87  SER87       0.2089
    102  OG        36.9580   19.9380  -19.8670 O.3    87  SER87      -0.2183
    103  N         36.2220   23.3950  -18.3160 N.3    89  ASN89      -0.1240
    104  CA        34.8140   23.5280  -18.7250 C.3    89  ASN89       0.1653
    105  C         34.3330   24.9670  -18.6530 C.2    89  ASN89       0.2266
    106  O         33.5640   25.4270  -19.5020 O.2    89  ASN89      -0.2867
    107  CB        33.9030   22.6980  -17.8240 C.3    89  ASN89       0.1155
    108  CG        34.1150   21.2070  -17.9660 C.2    89  ASN89       0.2627
    109  OD1       34.5040   20.7100  -19.0240 O.2    89  ASN89      -0.2716
    110  ND2       33.8420   20.4770  -16.8910 N.am   89  ASN89      -0.0877
    111  N         37.6960   21.9970  -14.0270 N.3   100  ILE100     -0.1231
    112  CA        38.3080   20.9890  -14.8850 C.3   100  ILE100      0.1692
    113  C         37.3800   19.8240  -15.1790 C.2   100  ILE100      0.2593
    114  O         36.6930   19.3250  -14.2830 O.2   100  ILE100     -0.2718
    115  CB        39.6160   20.4800  -14.2400 C.3   100  ILE100      0.0266
    116  CG1       40.6400   21.6160  -14.1540 C.3   100  ILE100      0.0019
    117  CG2       40.1850   19.2630  -14.9840 C.3   100  ILE100      0.0020
    118  CD1       41.7920   21.3470  -13.2080 C.3   100  ILE100      0.0001
    119  N         37.3570   19.4110  -16.4430 N.am  101  GLY101     -0.1942
    120  CA        36.6930   18.1850  -16.8570 C.3   101  GLY101      0.2014
    121  C         37.6700   17.2520  -17.5510 C.2   101  GLY101      0.2639
    122  O         38.7090   17.6940  -18.0480 O.2   101  GLY101     -0.2714
    123  N         37.3420   15.9610  -17.5900 N.am  102  TYR102     -0.1959
    124  CA        38.1960   14.9780  -18.2490 C.3   102  TYR102      0.1771
    125  C         37.4820   13.6800  -18.5340 C.2   102  TYR102      0.2619
    126  O         36.5610   13.2960  -17.8080 O.2   102  TYR102     -0.2715
    127  CB        39.4590   14.6890  -17.4230 C.3   102  TYR102      0.0574
    128  CG        39.2760   14.5220  -15.9270 C.ar  102  TYR102     -0.0198
    129  CD1       38.8840   13.3030  -15.3700 C.ar  102  TYR102     -0.0009
    130  CD2       39.5560   15.5710  -15.0630 C.ar  102  TYR102     -0.0009
    131  CE1       38.7520   13.1570  -13.9850 C.ar  102  TYR102      0.0417
    132  CE2       39.4300   15.4370  -13.6900 C.ar  102  TYR102      0.0417
    133  CZ        39.0290   14.2350  -13.1530 C.ar  102  TYR102      0.1957
    134  OH        38.9260   14.1290  -11.7800 O.3   102  TYR102     -0.2866
    135  N         37.9280   13.0070  -19.5900 N.am  103  TRP103     -0.1974
    136  CA        37.6150   11.6030  -19.8030 C.3   103  TRP103      0.1640
    137  C         38.6870   10.9440  -20.6410 C.2   103  TRP103      0.2290
    138  O         39.3480   11.6000  -21.4430 O.2   103  TRP103     -0.2864
    139  CB        36.2260   11.3910  -20.4200 C.3   103  TRP103      0.0576
    140  CG        36.0120   11.8970  -21.8290 C.ar  103  TRP103      0.0006
    141  CD1       35.4470   13.0810  -22.1940 C.ar  103  TRP103      0.0946
    142  CD2       36.2890   11.1960  -23.0520 C.ar  103  TRP103      0.0152
    143  NE1       35.3720   13.1760  -23.5610 N.ar  103  TRP103     -0.2442
    144  CE2       35.8790   12.0310  -24.1160 C.ar  103  TRP103      0.0810
    145  CE3       36.8650    9.9520  -23.3540 C.ar  103  TRP103      0.0012
    146  CZ2       36.0130   11.6590  -25.4590 C.ar  103  TRP103      0.0191
    147  CZ3       36.9850    9.5790  -24.6940 C.ar  103  TRP103      0.0001
    148  CH2       36.5680   10.4350  -25.7260 C.ar  103  TRP103      0.0015
    149  N         34.9140   18.8330   -9.7310 N.3   137  LYS137     -0.1231
    150  CA        33.6930   18.3470   -9.0960 C.3   137  LYS137      0.1693
    151  C         33.3220   17.0280   -9.7390 C.2   137  LYS137      0.2592
    152  O         33.1450   16.9670  -10.9580 O.2   137  LYS137     -0.2718
    153  CB        32.5180   19.3100   -9.3120 C.3   137  LYS137      0.0285
    154  CG        32.7270   20.7430   -8.8780 C.3   137  LYS137      0.0035
    155  CD        31.4170   21.5320   -8.9590 C.3   137  LYS137      0.0206
    156  CE        31.0560   21.9970  -10.3600 C.3   137  LYS137      0.1093
    157  NZ        29.8160   22.8240  -10.3130 N.3   137  LYS137     -0.1314
    158  N         33.1930   15.9800   -8.9310 N.am  138  CYS138     -0.1970
    159  CA        32.7960   14.6700   -9.4440 C.3   138  CYS138      0.1712
    160  C         31.8830   13.9610   -8.4580 C.2   138  CYS138      0.2296
    161  O         32.0310   14.1040   -7.2430 O.2   138  CYS138     -0.2864
    162  CB        34.0180   13.7900   -9.7470 C.3   138  CYS138      0.0983
    163  SG        35.1130   14.3520  -11.0900 S.3   138  CYS138     -0.0798
    164  N         23.8060   17.3030   -6.4900 N.3   163  ALA163     -0.1231
    165  CA        24.2800   18.3800   -7.3550 C.3   163  ALA163      0.1694
    166  C         24.4880   17.9900   -8.8160 C.2   163  ALA163      0.2591
    167  O         24.6490   18.8660   -9.6630 O.2   163  ALA163     -0.2718
    168  CB        25.5590   18.9840   -6.7870 C.3   163  ALA163      0.0304
    169  N         24.5020   16.6950   -9.1240 N.am  164  GLU164     -0.1979
    170  CA        24.6710   16.2750  -10.5120 C.3   164  GLU164      0.1602
    171  C         23.6510   15.2190  -10.8930 C.2   164  GLU164      0.2287
    172  O         23.5430   14.1820  -10.2350 O.2   164  GLU164     -0.2864
    173  CB        26.0900   15.7650  -10.7940 C.3   164  GLU164      0.0415
    174  CG        26.3160   15.4730  -12.2850 C.3   164  GLU164      0.1163
    175  CD        27.7280   15.0450  -12.6530 C.2   164  GLU164      0.3649
    176  OE1       28.6510   15.1640  -11.8230 O.co2 164  GLU164     -0.2457
    177  OE2       27.9070   14.5870  -13.8060 O.co2 164  GLU164     -0.2457
    178  N         28.0980   15.3540   -5.1730 N.3   173  GLN173     -0.1245
    179  CA        29.4450   15.5010   -5.7220 C.3   173  GLN173      0.1566
    180  C         30.4320   15.8200   -4.6190 C.2   173  GLN173      0.2260
    181  O         30.0900   16.4830   -3.6420 O.2   173  GLN173     -0.2867
    182  CB        29.5260   16.6550   -6.7090 C.3   173  GLN173      0.0367
    183  CG        28.8080   16.4700   -8.0150 C.3   173  GLN173      0.0905
    184  CD        28.9220   17.7170   -8.8640 C.2   173  GLN173      0.2608
    185  OE1       28.8400   18.8320   -8.3470 O.2   173  GLN173     -0.2717
    186  NE2       29.1370   17.5430  -10.1570 N.am  173  GLN173     -0.0878
@<TRIPOS>BOND
     1    57    58    1
     2    67    68    2
     3    67    66    1
     4    58    59    1
     5    58    61    1
     6    63    62   ar
     7    65    59   am
     8    65    66    1
     9    69    66    1
    10    69    70    1
    11    64    62   ar
    12    62    61    1
    13    59    60    2
    14     1     2    1
    15    71    72    1
    16     2     3    1
    17     2     5    1
    18     3     4    2
    19     5     6    1
    20    73    72    1
    21    73    74    2
    22    72    75    1
    23    52    53    2
    24    52    51    1
    25    55    54    1
    26     8     6    1
    27     6     7    1
    28    75    76    1
    29    51    54    1
    30    51    50    1
    31    54    56    1
    32    76    78   ar
    33    76    77   ar
    34    78    80   ar
    35     9    10    1
    36    16    14    1
    37    13    10    1
    38    13    14    1
    39    13    15    1
    40    11    10    1
    41    11    12    2
    42    77    79   ar
    43    80    81   ar
    44    85    84    2
    45    79    81   ar
    46   148   146   ar
    47   148   147   ar
    48    88    86    1
    49   146   144   ar
    50    86    87    1
    51    86    83    1
    52    84    83    1
    53    96    94    1
    54    89    87    1
    55    48    46   ar
    56    48    49   ar
    57    39    38    2
    58   147   145   ar
    59    46    43   ar
    60    83    82    1
    61    49    47   ar
    62   144   143   ar
    63   144   142   ar
    64    94    95    1
    65    94    91    1
    66    38    37    1
    67    90    91    1
    68    91    92    1
    69   143   141   ar
    70    43    41   ar
    71    43    45   ar
    72   145   142   ar
    73    40    37    1
    74    40    41    1
    75   142   140   ar
    76    47    45   ar
    77    37    36    1
    78    41    42   ar
    79    45    44   ar
    80    92    93    2
    81   141   140   ar
    82   140   139    1
    83    34    33    2
    84    36    33   am
    85    42    44   ar
    86   138   137    2
    87    33    32    1
    88   101    98    1
    89   101   102    1
    90   137   136    1
    91   139   136    1
    92    98    97    1
    93    98    99    1
    94    30    29    1
    95   136   135    1
    96   135   125   am
    97   106   105    2
    98    32    35    1
    99    32    31    1
   100    29    28    1
   101    99   100    2
   102    26    25    2
   103   109   108    2
   104    27    28    1
   105    27    24    1
   106    31    25   am
   107   104   105    1
   108   104   103    1
   109   104   107    1
   110    25    24    1
   111   125   124    1
   112   125   126    2
   113   124   123    1
   114   124   127    1
   115   122   121    2
   116   108   107    1
   117   108   110   am
   118    24    23    1
   119   123   121   am
   120   121   120    1
   121   127   128    1
   122    23    19   am
   123   120   119    1
   124    22    21    1
   125   119   113   am
   126    17    18    1
   127    19    18    1
   128    19    20    2
   129   128   129   ar
   130   128   130   ar
   131    21    18    1
   132   129   131   ar
   133   113   112    1
   134   113   114    2
   135   130   132   ar
   136   117   115    1
   137   112   115    1
   138   112   111    1
   139   115   116    1
   140   116   118    1
   141   131   133   ar
   142   177   175   ar
   143   132   133   ar
   144   133   134    1
   145   175   174    1
   146   175   176   ar
   147   174   173    1
   148   163   162    1
   149   152   151    2
   150   171   170    1
   151   171   172    2
   152   173   170    1
   153   170   169    1
   154   156   157    1
   155   156   155    1
   156   186   184   am
   157   162   159    1
   158   151   150    1
   159   151   158   am
   160   149   150    1
   161   167   166    2
   162   159   158    1
   163   159   160    1
   164   153   150    1
   165   153   154    1
   166   169   166   am
   167   155   154    1
   168   184   185    2
   169   184   183    1
   170   166   165    1
   171   160   161    2
   172   183   182    1
   173   165   168    1
   174   165   164    1
   175   182   179    1
   176   179   178    1
   177   179   180    1
   178   180   181    2
