@<TRIPOS>MOLECULE
tmp/3r9fB00.pdb
 204 197 0 0 0
SMALL
GASTEIGER

@<TRIPOS>ATOM
      1  N         30.4390    4.9640  -20.2770 N.3    39  PHE39      -0.1241
      2  CA        30.3800    6.4270  -20.1170 C.3    39  PHE39       0.1605
      3  C         29.0090    6.9350  -19.6630 C.2    39  PHE39       0.2264
      4  O         28.9250    7.9460  -18.9570 O.2    39  PHE39      -0.2867
      5  CB        30.7830    7.1350  -21.4130 C.3    39  PHE39       0.0534
      6  CG        32.2800    7.2400  -21.6370 C.ar   39  PHE39      -0.0203
      7  CD1       33.2060    6.6390  -20.7780 C.ar   39  PHE39      -0.0042
      8  CD2       32.7580    7.9260  -22.7490 C.ar   39  PHE39      -0.0042
      9  CE1       34.5760    6.7470  -21.0220 C.ar   39  PHE39      -0.0003
     10  CE2       34.1180    8.0360  -22.9980 C.ar   39  PHE39      -0.0003
     11  CZ        35.0290    7.4460  -22.1320 C.ar   39  PHE39      -0.0000
     12  N         28.6940    7.6320  -16.0230 N.3    42  SER42      -0.1202
     13  CA        29.4700    8.7070  -15.4020 C.3    42  SER42       0.2020
     14  C         29.2230   10.1060  -15.9760 C.2    42  SER42       0.2618
     15  O         29.5470   11.1050  -15.3290 O.2    42  SER42      -0.2717
     16  CB        30.9650    8.3820  -15.4900 C.3    42  SER42       0.2103
     17  OG        31.3740    8.2770  -16.8400 O.3    42  SER42      -0.2182
     18  N         28.6840   10.1830  -17.1910 N.am   43  MET43      -0.1979
     19  CA        28.5080   11.4590  -17.8830 C.3    43  MET43       0.1605
     20  C         27.1920   11.4460  -18.6480 C.2    43  MET43       0.2287
     21  O         26.7410   10.3860  -19.0950 O.2    43  MET43      -0.2864
     22  CB        29.6730   11.7270  -18.8460 C.3    43  MET43       0.0413
     23  CG        31.0500   11.7730  -18.1720 C.3    43  MET43       0.0598
     24  SD        32.4380   12.0800  -19.2830 S.3    43  MET43      -0.1393
     25  CE        32.4740   10.5680  -20.2480 C.3    43  MET43       0.0692
     26  N         37.6960   21.9970  -14.0270 N.3   100  ILE100     -0.1245
     27  CA        38.3080   20.9890  -14.8850 C.3   100  ILE100      0.1561
     28  C         37.3800   19.8240  -15.1790 C.2   100  ILE100      0.2260
     29  O         36.6930   19.3250  -14.2830 O.2   100  ILE100     -0.2867
     30  CB        39.6160   20.4800  -14.2400 C.3   100  ILE100      0.0252
     31  CG1       40.6400   21.6160  -14.1540 C.3   100  ILE100      0.0019
     32  CG2       40.1850   19.2630  -14.9840 C.3   100  ILE100      0.0019
     33  CD1       41.7920   21.3470  -13.2080 C.3   100  ILE100      0.0001
     34  N         37.3420   15.9610  -17.5900 N.3   102  TYR102     -0.1227
     35  CA        38.1960   14.9780  -18.2490 C.3   102  TYR102      0.1736
     36  C         37.4820   13.6800  -18.5340 C.2   102  TYR102      0.2595
     37  O         36.5610   13.2960  -17.8080 O.2   102  TYR102     -0.2718
     38  CB        39.4590   14.6890  -17.4230 C.3   102  TYR102      0.0548
     39  CG        39.2760   14.5220  -15.9270 C.ar  102  TYR102     -0.0200
     40  CD1       38.8840   13.3030  -15.3700 C.ar  102  TYR102     -0.0009
     41  CD2       39.5560   15.5710  -15.0630 C.ar  102  TYR102     -0.0009
     42  CE1       38.7520   13.1570  -13.9850 C.ar  102  TYR102      0.0417
     43  CE2       39.4300   15.4370  -13.6900 C.ar  102  TYR102      0.0417
     44  CZ        39.0290   14.2350  -13.1530 C.ar  102  TYR102      0.1957
     45  OH        38.9260   14.1290  -11.7800 O.3   102  TYR102     -0.2866
     46  N         37.9280   13.0070  -19.5900 N.am  103  TRP103     -0.1962
     47  CA        37.6150   11.6030  -19.8030 C.3   103  TRP103      0.1771
     48  C         38.6870   10.9440  -20.6410 C.2   103  TRP103      0.2619
     49  O         39.3480   11.6000  -21.4430 O.2   103  TRP103     -0.2715
     50  CB        36.2260   11.3910  -20.4200 C.3   103  TRP103      0.0590
     51  CG        36.0120   11.8970  -21.8290 C.ar  103  TRP103      0.0006
     52  CD1       35.4470   13.0810  -22.1940 C.ar  103  TRP103      0.0946
     53  CD2       36.2890   11.1960  -23.0520 C.ar  103  TRP103      0.0152
     54  NE1       35.3720   13.1760  -23.5610 N.ar  103  TRP103     -0.2442
     55  CE2       35.8790   12.0310  -24.1160 C.ar  103  TRP103      0.0810
     56  CE3       36.8650    9.9520  -23.3540 C.ar  103  TRP103      0.0012
     57  CZ2       36.0130   11.6590  -25.4590 C.ar  103  TRP103      0.0191
     58  CZ3       36.9850    9.5790  -24.6940 C.ar  103  TRP103      0.0001
     59  CH2       36.5680   10.4350  -25.7260 C.ar  103  TRP103      0.0015
     60  N         38.8430    9.6360  -20.4410 N.am  104  LEU104     -0.1977
     61  CA        39.7280    8.8030  -21.2470 C.3   104  LEU104      0.1596
     62  C         38.9880    7.5760  -21.7280 C.2   104  LEU104      0.2287
     63  O         38.2410    6.9490  -20.9710 O.2   104  LEU104     -0.2864
     64  CB        40.9140    8.3070  -20.4250 C.3   104  LEU104      0.0297
     65  CG        42.0060    9.3020  -20.0750 C.3   104  LEU104      0.0022
     66  CD1       42.9380    8.6680  -19.0650 C.3   104  LEU104      0.0001
     67  CD2       42.7750    9.7330  -21.3220 C.3   104  LEU104      0.0001
     68  N         43.2010    4.2150  -20.1120 N.3   109  GLN109     -0.1231
     69  CA        43.1880    4.3430  -18.6640 C.3   109  GLN109      0.1698
     70  C         44.3060    3.5230  -18.0250 C.2   109  GLN109      0.2593
     71  O         44.8150    2.5700  -18.6250 O.2   109  GLN109     -0.2718
     72  CB        41.8170    3.9520  -18.1230 C.3   109  GLN109      0.0381
     73  CG        40.7390    4.9670  -18.5050 C.3   109  GLN109      0.0905
     74  CD        39.3530    4.5480  -18.0810 C.2   109  GLN109      0.2608
     75  OE1       39.1890    3.7440  -17.1620 O.2   109  GLN109     -0.2717
     76  NE2       38.3420    5.0850  -18.7520 N.am  109  GLN109     -0.0878
     77  N         44.7120    3.9220  -16.8230 N.am  110  GLY110     -0.1942
     78  CA        45.7190    3.1880  -16.0730 C.3   110  GLY110      0.2014
     79  C         47.1450    3.6060  -16.3680 C.2   110  GLY110      0.2639
     80  O         48.0800    2.9310  -15.9390 O.2   110  GLY110     -0.2714
     81  N         47.3240    4.7330  -17.0600 N.am  111  LYS111     -0.1963
     82  CA        48.6360    5.1580  -17.5460 C.3   111  LYS111      0.1728
     83  C         49.0580    6.5470  -17.0590 C.2   111  LYS111      0.2617
     84  O         50.0870    7.0700  -17.4930 O.2   111  LYS111     -0.2715
     85  CB        48.6490    5.1370  -19.0770 C.3   111  LYS111      0.0311
     86  CG        48.3890    3.7740  -19.6870 C.3   111  LYS111      0.0038
     87  CD        48.1240    3.9010  -21.1810 C.3   111  LYS111      0.0206
     88  CE        47.7470    2.5660  -21.8120 C.3   111  LYS111      0.1093
     89  NZ        48.8660    1.5860  -21.7680 N.3   111  LYS111     -0.1314
     90  N         48.2650    7.1530  -16.1730 N.am  112  GLY112     -0.1940
     91  CA        48.5790    8.4800  -15.6450 C.3   112  GLY112      0.2014
     92  C         48.3880    9.6200  -16.6250 C.2   112  GLY112      0.2639
     93  O         48.8650   10.7280  -16.3800 O.2   112  GLY112     -0.2714
     94  N         47.6680    9.3760  -17.7160 N.am  113  ILE113     -0.1963
     95  CA        47.5620   10.3600  -18.7890 C.3   113  ILE113      0.1727
     96  C         46.8490   11.6440  -18.3590 C.2   113  ILE113      0.2616
     97  O         47.3320   12.7440  -18.6340 O.2   113  ILE113     -0.2715
     98  CB        46.9040    9.7530  -20.0420 C.3   113  ILE113      0.0290
     99  CG1       47.8080    8.6680  -20.6330 C.3   113  ILE113      0.0022
    100  CG2       46.6030   10.8320  -21.0680 C.3   113  ILE113      0.0023
    101  CD1       47.1290    7.7960  -21.6610 C.3   113  ILE113      0.0001
    102  N         45.7160   11.5110  -17.6760 N.am  114  VAL114     -0.1963
    103  CA        44.9760   12.6920  -17.2360 C.3   114  VAL114      0.1727
    104  C         45.7110   13.4110  -16.1020 C.2   114  VAL114      0.2617
    105  O         45.7810   14.6450  -16.0970 O.2   114  VAL114     -0.2715
    106  CB        43.5050   12.3560  -16.8820 C.3   114  VAL114      0.0290
    107  CG1       42.8760   13.4510  -16.0390 C.3   114  VAL114      0.0023
    108  CG2       42.7060   12.1710  -18.1550 C.3   114  VAL114      0.0023
    109  N         46.2740   12.6540  -15.1620 N.am  115  THR115     -0.1937
    110  CA        47.0760   13.2510  -14.0930 C.3   115  THR115      0.2028
    111  C         48.2210   14.0920  -14.6720 C.2   115  THR115      0.2642
    112  O         48.4280   15.2440  -14.2780 O.2   115  THR115     -0.2714
    113  CB        47.5850   12.1760  -13.1160 C.3   115  THR115      0.1808
    114  OG1       46.4810   11.6870  -12.3580 O.3   115  THR115     -0.2208
    115  CG2       48.5980   12.7390  -12.1410 C.3   115  THR115      0.0379
    116  N         48.9470   13.5320  -15.6350 N.am  116  ASN116     -0.1971
    117  CA        50.0340   14.2710  -16.2560 C.3   116  ASN116      0.1688
    118  C         49.5380   15.4810  -17.0490 C.2   116  ASN116      0.2292
    119  O         50.1560   16.5480  -17.0140 O.2   116  ASN116     -0.2864
    120  CB        50.9110   13.3420  -17.0960 C.3   116  ASN116      0.1181
    121  CG        51.7760   12.4300  -16.2370 C.2   116  ASN116      0.2629
    122  OD1       52.2430   12.8270  -15.1660 O.2   116  ASN116     -0.2716
    123  ND2       52.0040   11.2110  -16.7050 N.am  116  ASN116     -0.0877
    124  N         37.8340   20.6170   -9.3120 N.3   136  ILE136     -0.1231
    125  CA        37.2680   19.3970   -9.8760 C.3   136  ILE136      0.1692
    126  C         36.0450   19.0170   -9.0530 C.2   136  ILE136      0.2592
    127  O         36.1280   18.9080   -7.8290 O.2   136  ILE136     -0.2718
    128  CB        38.2790   18.2240   -9.8640 C.3   136  ILE136      0.0266
    129  CG1       39.4450   18.5010  -10.8140 C.3   136  ILE136      0.0019
    130  CG2       37.5840   16.8990  -10.2170 C.3   136  ILE136      0.0020
    131  CD1       40.6510   17.6050  -10.5850 C.3   136  ILE136      0.0001
    132  N         34.9140   18.8330   -9.7310 N.am  137  LYS137     -0.1966
    133  CA        33.6930   18.3470   -9.0960 C.3   137  LYS137      0.1728
    134  C         33.3220   17.0280   -9.7390 C.2   137  LYS137      0.2616
    135  O         33.1450   16.9670  -10.9580 O.2   137  LYS137     -0.2715
    136  CB        32.5180   19.3100   -9.3120 C.3   137  LYS137      0.0311
    137  CG        32.7270   20.7430   -8.8780 C.3   137  LYS137      0.0038
    138  CD        31.4170   21.5320   -8.9590 C.3   137  LYS137      0.0206
    139  CE        31.0560   21.9970  -10.3600 C.3   137  LYS137      0.1093
    140  NZ        29.8160   22.8240  -10.3130 N.3   137  LYS137     -0.1314
    141  N         33.1930   15.9800   -8.9310 N.am  138  CYS138     -0.1954
    142  CA        32.7960   14.6700   -9.4440 C.3   138  CYS138      0.1843
    143  C         31.8830   13.9610   -8.4580 C.2   138  CYS138      0.2625
    144  O         32.0310   14.1040   -7.2430 O.2   138  CYS138     -0.2714
    145  CB        34.0180   13.7900   -9.7470 C.3   138  CYS138      0.0997
    146  SG        35.1130   14.3520  -11.0900 S.3   138  CYS138     -0.0797
    147  N         30.9530   13.1790   -8.9990 N.am  139  ILE139     -0.1977
    148  CA        30.0380   12.3720   -8.1930 C.3   139  ILE139      0.1596
    149  C         30.7980   11.5050   -7.1910 C.2   139  ILE139      0.2287
    150  O         31.8120   10.8870   -7.5210 O.2   139  ILE139     -0.2864
    151  CB        29.0750   11.5640   -9.0980 C.3   139  ILE139      0.0276
    152  CG1       28.0310   12.5270   -9.6760 C.3   139  ILE139      0.0022
    153  CG2       28.4030   10.4250   -8.3300 C.3   139  ILE139      0.0022
    154  CD1       27.1950   11.9770  -10.7970 C.3   139  ILE139      0.0001
    155  N         31.8050    7.9600   -8.0750 N.3   142  ASN142     -0.1240
    156  CA        32.7100    7.7690   -9.2030 C.3   142  ASN142      0.1653
    157  C         34.1490    7.5990   -8.6950 C.2   142  ASN142      0.2266
    158  O         34.8870    8.5620   -8.5140 O.2   142  ASN142     -0.2867
    159  CB        32.5520    8.9260  -10.1970 C.3   142  ASN142      0.1155
    160  CG        33.3270    8.7150  -11.4830 C.2   142  ASN142      0.2627
    161  OD1       34.3660    8.0490  -11.5050 O.2   142  ASN142     -0.2716
    162  ND2       32.8470    9.3210  -12.5610 N.am  142  ASN142     -0.0877
    163  N         37.1130    6.2790   -9.8140 N.3   144  LYS144     -0.1231
    164  CA        38.2950    6.6600  -10.5890 C.3   144  LYS144      0.1693
    165  C         38.4190    8.1690  -10.7400 C.2   144  LYS144      0.2592
    166  O         39.5350    8.6980  -10.7310 O.2   144  LYS144     -0.2718
    167  CB        38.3080    6.0010  -11.9650 C.3   144  LYS144      0.0285
    168  CG        38.4550    4.4950  -11.9310 C.3   144  LYS144      0.0035
    169  CD        38.3390    3.9030  -13.3250 C.3   144  LYS144      0.0206
    170  CE        39.6950    3.7050  -13.9570 C.3   144  LYS144      0.1093
    171  NZ        40.4210    2.5630  -13.3340 N.3   144  LYS144     -0.1314
    172  N         37.2900    8.8690  -10.8630 N.am  145  SER145     -0.1952
    173  CA        37.3430   10.3200  -11.0370 C.3   145  SER145      0.1924
    174  C         37.8550   10.9910   -9.7740 C.2   145  SER145      0.2314
    175  O         38.6180   11.9530   -9.8500 O.2   145  SER145     -0.2863
    176  CB        35.9880   10.8970  -11.4540 C.3   145  SER145      0.2116
    177  OG        35.0330   10.8440  -10.4080 O.3   145  SER145     -0.2180
    178  N         41.6600   10.4120   -9.4070 N.3   148  THR148     -0.1218
    179  CA        42.4060   11.3520  -10.2380 C.3   148  THR148      0.1862
    180  C         42.5830   12.7170   -9.5640 C.2   148  THR148      0.2287
    181  O         43.6890   13.2580   -9.5250 O.2   148  THR148     -0.2866
    182  CB        41.7620   11.4690  -11.6330 C.3   148  THR148      0.1770
    183  OG1       41.8690   10.2010  -12.2920 O.3   148  THR148     -0.2211
    184  CG2       42.4350   12.5350  -12.4670 C.3   148  THR148      0.0375
    185  N         45.1380   12.3280   -6.8960 N.3   151  ARG151     -0.1245
    186  CA        46.4390   12.0900   -7.5260 C.3   151  ARG151      0.1563
    187  C         47.0880   13.3870   -7.9940 C.2   151  ARG151      0.2260
    188  O         48.3110   13.5330   -7.9530 O.2   151  ARG151     -0.2867
    189  CB        46.2250   11.1680   -8.7360 C.3   151  ARG151      0.0307
    190  CG        47.4030   10.3840   -9.2090 C.3   151  ARG151      0.0489
    191  CD        46.8990    9.3130  -10.1550 C.3   151  ARG151      0.2205
    192  NE        46.3150    8.1440   -9.4900 N.pl3 151  ARG151     -0.0865
    193  CZ        45.0620    7.7040   -9.6370 C.cat 151  ARG151      0.5346
    194  NH1       44.2020    8.3320  -10.4330 N.pl3 151  ARG151      0.1354
    195  NH2       44.6630    6.6200   -8.9860 N.pl3 151  ARG151      0.1354
    196  N         24.5020   16.6950   -9.1240 N.3   164  GLU164     -0.1245
    197  CA        24.6710   16.2750  -10.5120 C.3   164  GLU164      0.1567
    198  C         23.6510   15.2190  -10.8930 C.2   164  GLU164      0.2260
    199  O         23.5430   14.1820  -10.2350 O.2   164  GLU164     -0.2867
    200  CB        26.0900   15.7650  -10.7940 C.3   164  GLU164      0.0388
    201  CG        26.3160   15.4730  -12.2850 C.3   164  GLU164      0.1160
    202  CD        27.7280   15.0450  -12.6530 C.2   164  GLU164      0.3649
    203  OE1       28.6510   15.1640  -11.8230 O.co2 164  GLU164     -0.2457
    204  OE2       27.9070   14.5870  -13.8060 O.co2 164  GLU164     -0.2457
@<TRIPOS>BOND
     1    59    57   ar
     2    59    58   ar
     3    57    55   ar
     4    58    56   ar
     5    55    54   ar
     6    55    53   ar
     7    54    52   ar
     8    56    53   ar
     9    53    51   ar
    10    10     8   ar
    11    10    11   ar
    12     8     6   ar
    13    52    51   ar
    14    11     9   ar
    15    51    50    1
    16    88    89    1
    17    88    87    1
    18    62    61    1
    19    62    63    2
    20   101    99    1
    21     6     5    1
    22     6     7   ar
    23    49    48    2
    24     5     2    1
    25    67    65    1
    26    61    60    1
    27    61    64    1
    28    87    86    1
    29   100    98    1
    30     9     7   ar
    31    48    60   am
    32    48    47    1
    33    99    98    1
    34    64    65    1
    35    50    47    1
    36     1     2    1
    37    25    24    1
    38     2     3    1
    39    68    69    1
    40    65    66    1
    41    98    95    1
    42    47    46    1
    43    86    85    1
    44     3     4    2
    45    46    36   am
    46    24    23    1
    47    21    20    2
    48    85    82    1
    49    22    23    1
    50    22    19    1
    51    95    96    1
    52    95    94    1
    53    76    74   am
    54    69    72    1
    55    69    70    1
    56    20    19    1
    57    97    96    2
    58    71    70    2
    59    36    35    1
    60    36    37    2
    61    73    72    1
    62    73    74    1
    63    96   102   am
    64    35    34    1
    65    35    38    1
    66   108   106    1
    67    74    75    2
    68    70    77   am
    69    19    18    1
    70    94    92   am
    71   102   103    1
    72    82    81    1
    73    82    83    1
    74    84    83    2
    75    38    39    1
    76   103   106    1
    77   103   104    1
    78    18    14   am
    79   120   117    1
    80   120   121    1
    81    81    79   am
    82    83    90   am
    83   118   119    2
    84   118   117    1
    85   106   107    1
    86    17    16    1
    87    77    78    1
    88   123   121   am
    89    92    93    2
    90    92    91    1
    91    79    78    1
    92    79    80    2
    93   117   116    1
    94   121   122    2
    95    90    91    1
    96   104   105    2
    97   104   109   am
    98    12    13    1
    99    14    13    1
   100    14    15    2
   101    39    40   ar
   102    39    41   ar
   103   116   111   am
   104    16    13    1
   105    40    42   ar
   106    28    27    1
   107    28    29    2
   108   109   110    1
   109    41    43   ar
   110    32    30    1
   111    27    30    1
   112    27    26    1
   113   111   112    2
   114   111   110    1
   115    30    31    1
   116    31    33    1
   117   110   113    1
   118    42    44   ar
   119   170   171    1
   120   170   169    1
   121   204   202   ar
   122    43    44   ar
   123   169   168    1
   124    44    45    1
   125   113   114    1
   126   113   115    1
   127   202   201    1
   128   202   203   ar
   129   162   160   am
   130   184   182    1
   131   183   182    1
   132   201   200    1
   133   167   168    1
   134   167   164    1
   135   182   179    1
   136   161   160    2
   137   160   159    1
   138   176   173    1
   139   176   177    1
   140   146   145    1
   141   173   172    1
   142   173   174    1
   143   135   134    2
   144   198   197    1
   145   198   199    2
   146   172   165   am
   147   129   131    1
   148   129   128    1
   149   154   152    1
   150   200   197    1
   151   165   166    2
   152   165   164    1
   153   164   163    1
   154   197   196    1
   155   194   193    1
   156   139   140    1
   157   139   138    1
   158   179   180    1
   159   179   178    1
   160   130   128    1
   161   159   156    1
   162   191   192    1
   163   191   190    1
   164   125   128    1
   165   125   124    1
   166   125   126    1
   167   175   174    2
   168   145   142    1
   169   134   133    1
   170   134   141   am
   171   132   133    1
   172   132   126   am
   173   152   151    1
   174   193   192    2
   175   193   195    1
   176   180   181    2
   177   142   141    1
   178   142   143    1
   179   136   133    1
   180   136   137    1
   181   190   189    1
   182   156   157    1
   183   156   155    1
   184   151   153    1
   185   151   148    1
   186   126   127    2
   187   147   143   am
   188   147   148    1
   189   138   137    1
   190   189   186    1
   191   157   158    2
   192   143   144    2
   193   148   149    1
   194   187   188    2
   195   187   186    1
   196   186   185    1
   197   150   149    2
