@<TRIPOS>MOLECULE
tmp/3r9gB01.pdb
 207 199 0 0 0
SMALL
GASTEIGER

@<TRIPOS>ATOM
      1  N         36.9230   10.8510  -32.6660 N.3    21  LEU21      -0.1245
      2  CA        36.2270   11.1750  -31.4190 C.3    21  LEU21       0.1561
      3  C         34.8940   10.4400  -31.3100 C.2    21  LEU21       0.2260
      4  O         34.5920    9.8220  -30.2930 O.2    21  LEU21      -0.2867
      5  CB        36.0110   12.6870  -31.2990 C.3    21  LEU21       0.0270
      6  CG        35.4500   13.2290  -29.9820 C.3    21  LEU21       0.0019
      7  CD1       36.5080   13.1740  -28.8860 C.3    21  LEU21       0.0001
      8  CD2       34.9430   14.6510  -30.1640 C.3    21  LEU21       0.0001
      9  N         33.7900    7.6250  -28.5070 N.3    25  ILE25      -0.1245
     10  CA        32.5820    7.7680  -27.6940 C.3    25  ILE25       0.1561
     11  C         31.6690    6.5310  -27.8370 C.2    25  ILE25       0.2260
     12  O         31.2140    5.9650  -26.8360 O.2    25  ILE25      -0.2867
     13  CB        31.8260    9.0690  -28.0360 C.3    25  ILE25       0.0252
     14  CG1       32.6820   10.2890  -27.6560 C.3    25  ILE25       0.0019
     15  CG2       30.4820    9.1270  -27.3160 C.3    25  ILE25       0.0019
     16  CD1       32.2750   11.5650  -28.3540 C.3    25  ILE25       0.0001
     17  N         28.1450    7.5790  -16.0110 N.3    35  SER35      -0.1202
     18  CA        28.8850    8.6850  -15.3860 C.3    35  SER35       0.2020
     19  C         28.6390   10.0690  -15.9910 C.2    35  SER35       0.2619
     20  O         28.9640   11.0780  -15.3580 O.2    35  SER35      -0.2717
     21  CB        30.3850    8.3910  -15.4150 C.3    35  SER35       0.2103
     22  OG        30.8250    8.2000  -16.7480 O.3    35  SER35      -0.2182
     23  N         28.0990   10.1240  -17.2070 N.am   36  MET36      -0.1965
     24  CA        27.8930   11.3910  -17.9250 C.3    36  MET36       0.1736
     25  C         26.5780   11.3490  -18.6840 C.2    36  MET36       0.2616
     26  O         26.1410   10.2770  -19.0950 O.2    36  MET36      -0.2715
     27  CB        29.0530   11.6830  -18.8970 C.3    36  MET36       0.0427
     28  CG        30.4230   11.6970  -18.2200 C.3    36  MET36       0.0599
     29  SD        31.8270   12.0280  -19.3010 S.3    36  MET36      -0.1393
     30  CE        31.8200   10.5610  -20.3410 C.3    36  MET36       0.0692
     31  N         25.9600   12.5160  -18.8670 N.am   37  ALA37      -0.1963
     32  CA        24.6340   12.6170  -19.4860 C.3    37  ALA37       0.1728
     33  C         24.6650   12.7340  -21.0130 C.2    37  ALA37       0.2616
     34  O         23.7980   12.1850  -21.7110 O.2    37  ALA37      -0.2715
     35  CB        23.8600   13.7910  -18.8780 C.3    37  ALA37       0.0334
     36  N         25.6550   13.4460  -21.5310 N.am   38  TRP38      -0.1974
     37  CA        25.7210   13.7490  -22.9600 C.3    38  TRP38       0.1640
     38  C         25.9940   12.5590  -23.9060 C.2    38  TRP38       0.2290
     39  O         25.5620   12.6190  -25.0630 O.2    38  TRP38      -0.2864
     40  CB        26.7060   14.8920  -23.2200 C.3    38  TRP38       0.0576
     41  CG        28.0760   14.5670  -22.7180 C.ar   38  TRP38       0.0006
     42  CD1       28.6000   14.8760  -21.4940 C.ar   38  TRP38       0.0946
     43  CD2       29.0830   13.8130  -23.4080 C.ar   38  TRP38       0.0152
     44  NE1       29.8720   14.3640  -21.3820 N.ar   38  TRP38      -0.2442
     45  CE2       30.1970   13.7190  -22.5480 C.ar   38  TRP38       0.0810
     46  CE3       29.1560   13.2160  -24.6790 C.ar   38  TRP38       0.0012
     47  CZ2       31.3660   13.0480  -22.9120 C.ar   38  TRP38       0.0191
     48  CZ3       30.3170   12.5440  -25.0370 C.ar   38  TRP38       0.0001
     49  CH2       31.4060   12.4680  -24.1540 C.ar   38  TRP38       0.0015
     50  N         25.0070   11.2840  -28.5250 N.3    42  VAL42      -0.1245
     51  CA        26.0080   11.3090  -29.5870 C.3    42  VAL42       0.1561
     52  C         25.7240   10.1290  -30.5150 C.2    42  VAL42       0.2260
     53  O         26.2530    9.0280  -30.3370 O.2    42  VAL42      -0.2867
     54  CB        27.4590   11.2690  -29.0390 C.3    42  VAL42       0.0252
     55  CG1       28.4660   11.3780  -30.1820 C.3    42  VAL42       0.0019
     56  CG2       27.6870   12.3910  -28.0230 C.3    42  VAL42       0.0019
     57  N         27.1020   14.7970  -34.8990 N.3    47  ASP47      -0.1225
     58  CA        27.0010   15.2640  -33.5130 C.3    47  ASP47       0.1805
     59  C         28.3670   15.6400  -32.9490 C.2    47  ASP47       0.2598
     60  O         28.4890   16.6340  -32.2320 O.2    47  ASP47      -0.2718
     61  CB        26.3130   14.2250  -32.6280 C.3    47  ASP47       0.1424
     62  CG        24.8710   13.9810  -33.0350 C.2    47  ASP47       0.3668
     63  OD1       24.1610   14.9700  -33.3340 O.co2  47  ASP47      -0.2456
     64  OD2       24.4510   12.8060  -33.0470 O.co2  47  ASP47      -0.2456
     65  N         29.3890   14.8600  -33.2900 N.am   48  SER48      -0.1952
     66  CA        30.7560   15.1990  -32.8930 C.3    48  SER48       0.1924
     67  C         31.2650   16.4190  -33.6480 C.2    48  SER48       0.2314
     68  O         31.9970   17.2310  -33.0930 O.2    48  SER48      -0.2863
     69  CB        31.6960   14.0060  -33.0700 C.3    48  SER48       0.2116
     70  OG        31.3440   12.9660  -32.1750 O.3    48  SER48      -0.2180
     71  N         29.7960   19.3630  -31.8360 N.3    51  PHE51      -0.1241
     72  CA        30.5420   19.5840  -30.5910 C.3    51  PHE51       0.1605
     73  C         31.8820   20.2790  -30.8430 C.2    51  PHE51       0.2264
     74  O         32.2480   21.2170  -30.1300 O.2    51  PHE51      -0.2867
     75  CB        30.7550   18.2700  -29.8270 C.3    51  PHE51       0.0534
     76  CG        31.5790   18.4290  -28.5800 C.ar   51  PHE51      -0.0203
     77  CD1       31.0540   19.0750  -27.4620 C.ar   51  PHE51      -0.0042
     78  CD2       32.8940   17.9640  -28.5340 C.ar   51  PHE51      -0.0042
     79  CE1       31.8150   19.2430  -26.3140 C.ar   51  PHE51      -0.0003
     80  CE2       33.6640   18.1260  -27.3810 C.ar   51  PHE51      -0.0003
     81  CZ        33.1250   18.7680  -26.2740 C.ar   51  PHE51      -0.0000
     82  N         38.3840   23.6170  -24.1630 N.3    66  ILE66      -0.1245
     83  CA        38.1250   22.2180  -24.5160 C.3    66  ILE66       0.1561
     84  C         39.3260   21.7220  -25.3130 C.2    66  ILE66       0.2260
     85  O         39.7060   22.3380  -26.3100 O.2    66  ILE66      -0.2867
     86  CB        36.8160   22.0540  -25.3390 C.3    66  ILE66       0.0252
     87  CG1       35.6030   22.6090  -24.5850 C.3    66  ILE66       0.0019
     88  CG2       36.5750   20.5890  -25.6960 C.3    66  ILE66       0.0019
     89  CD1       35.3190   24.0760  -24.8360 C.3    66  ILE66       0.0001
     90  N         39.0090   13.6450  -23.6360 N.3    78  VAL78      -0.1245
     91  CA        38.8330   15.0970  -23.5990 C.3    78  VAL78       0.1561
     92  C         39.1660   15.5940  -22.1940 C.2    78  VAL78       0.2260
     93  O         38.8560   14.9300  -21.2040 O.2    78  VAL78      -0.2867
     94  CB        37.3660   15.4970  -23.9690 C.3    78  VAL78       0.0252
     95  CG1       37.1370   16.9940  -23.8340 C.3    78  VAL78       0.0019
     96  CG2       37.0270   15.0460  -25.3780 C.3    78  VAL78       0.0019
     97  N         38.9480   19.4720  -20.0640 N.3    80  SER80      -0.1217
     98  CA        38.3980   20.8080  -20.2400 C.3    80  SER80       0.1889
     99  C         38.4260   21.6590  -18.9970 C.2    80  SER80       0.2288
    100  O         38.4520   21.1500  -17.8820 O.2    80  SER80      -0.2866
    101  CB        36.9390   20.7030  -20.6890 C.3    80  SER80       0.2089
    102  OG        36.1910   19.9550  -19.7410 O.3    80  SER80      -0.2183
    103  N         35.4160   23.4150  -18.1480 N.3    82  ASN82      -0.1240
    104  CA        34.0070   23.5650  -18.5500 C.3    82  ASN82       0.1653
    105  C         33.5680   25.0180  -18.4820 C.2    82  ASN82       0.2266
    106  O         32.8580   25.5010  -19.3550 O.2    82  ASN82      -0.2867
    107  CB        33.0940   22.7450  -17.6430 C.3    82  ASN82       0.1155
    108  CG        33.3680   21.2610  -17.7160 C.2    82  ASN82       0.2627
    109  OD1       33.6780   20.7240  -18.7780 O.2    82  ASN82      -0.2716
    110  ND2       33.2400   20.5810  -16.5780 N.am   82  ASN82      -0.0877
    111  N         36.6820   25.3700  -13.6990 N.3    92  TYR92      -0.1227
    112  CA        35.9740   24.1350  -13.3480 C.3    92  TYR92       0.1736
    113  C         36.3490   23.0780  -14.3770 C.2    92  TYR92       0.2595
    114  O         36.1270   23.2700  -15.5700 O.2    92  TYR92      -0.2718
    115  CB        34.4530   24.3640  -13.3120 C.3    92  TYR92       0.0548
    116  CG        34.0270   25.3440  -12.2430 C.ar   92  TYR92      -0.0200
    117  CD1       33.5850   24.8950  -11.0070 C.ar   92  TYR92      -0.0009
    118  CD2       34.0870   26.7230  -12.4690 C.ar   92  TYR92      -0.0009
    119  CE1       33.2050   25.7990  -10.0160 C.ar   92  TYR92       0.0417
    120  CE2       33.7150   27.6400  -11.4790 C.ar   92  TYR92       0.0417
    121  CZ        33.2790   27.1600  -10.2630 C.ar   92  TYR92       0.1957
    122  OH        32.9100   28.0470   -9.2680 O.3    92  TYR92      -0.2866
    123  N         36.9300   21.9760  -13.9130 N.am   93  ILE93      -0.1966
    124  CA        37.5260   20.9720  -14.7910 C.3    93  ILE93       0.1727
    125  C         36.5920   19.8090  -15.1190 C.2    93  ILE93       0.2617
    126  O         35.8680   19.3100  -14.2450 O.2    93  ILE93      -0.2715
    127  CB        38.8430   20.4470  -14.1550 C.3    93  ILE93       0.0290
    128  CG1       39.8930   21.5600  -14.0880 C.3    93  ILE93       0.0022
    129  CG2       39.3990   19.2140  -14.8870 C.3    93  ILE93       0.0023
    130  CD1       41.0330   21.2670  -13.1180 C.3    93  ILE93       0.0001
    131  N         36.6210   19.3830  -16.3830 N.am   94  GLY94      -0.1940
    132  CA        35.9440   18.1630  -16.8140 C.3    94  GLY94       0.2014
    133  C         36.9110   17.2210  -17.5170 C.2    94  GLY94       0.2639
    134  O         37.9450   17.6620  -18.0090 O.2    94  GLY94      -0.2714
    135  N         36.5920   15.9280  -17.5660 N.am   95  TYR95      -0.1959
    136  CA        37.4530   14.9830  -18.2710 C.3    95  TYR95       0.1771
    137  C         36.7550   13.6760  -18.5610 C.2    95  TYR95       0.2619
    138  O         35.8190   13.2790  -17.8580 O.2    95  TYR95      -0.2715
    139  CB        38.7570   14.6940  -17.4990 C.3    95  TYR95       0.0574
    140  CG        38.6100   14.5140  -16.0050 C.ar   95  TYR95      -0.0198
    141  CD1       38.1160   13.3290  -15.4580 C.ar   95  TYR95      -0.0009
    142  CD2       38.9910   15.5300  -15.1360 C.ar   95  TYR95      -0.0009
    143  CE1       37.9880   13.1790  -14.0730 C.ar   95  TYR95       0.0417
    144  CE2       38.8660   15.3900  -13.7510 C.ar   95  TYR95       0.0417
    145  CZ        38.3650   14.2140  -13.2310 C.ar   95  TYR95       0.1957
    146  OH        38.2650   14.0880  -11.8610 O.3    95  TYR95      -0.2866
    147  N         37.2490   12.9930  -19.5880 N.am   96  TRP96      -0.1974
    148  CA        36.9380   11.5830  -19.8160 C.3    96  TRP96       0.1640
    149  C         38.0260   10.9420  -20.6540 C.2    96  TRP96       0.2290
    150  O         38.6930   11.6260  -21.4540 O.2    96  TRP96      -0.2864
    151  CB        35.5620   11.3580  -20.4600 C.3    96  TRP96       0.0576
    152  CG        35.3610   11.8640  -21.8650 C.ar   96  TRP96       0.0006
    153  CD1       34.7900   13.0420  -22.2220 C.ar   96  TRP96       0.0946
    154  CD2       35.6550   11.1730  -23.1000 C.ar   96  TRP96       0.0152
    155  NE1       34.7200   13.1500  -23.5960 N.ar   96  TRP96      -0.2442
    156  CE2       35.2450   12.0160  -24.1580 C.ar   96  TRP96       0.0810
    157  CE3       36.2240    9.9270  -23.4110 C.ar   96  TRP96       0.0012
    158  CZ2       35.3820   11.6530  -25.5050 C.ar   96  TRP96       0.0191
    159  CZ3       36.3660    9.5720  -24.7530 C.ar   96  TRP96       0.0001
    160  CH2       35.9490   10.4340  -25.7760 C.ar   96  TRP96       0.0015
    161  N         37.2380   20.5680   -9.2040 N.3   129  ILE129     -0.1231
    162  CA        36.6680   19.3530   -9.7870 C.3   129  ILE129      0.1692
    163  C         35.4450   18.9510   -8.9660 C.2   129  ILE129      0.2592
    164  O         35.5290   18.8310   -7.7460 O.2   129  ILE129     -0.2718
    165  CB        37.6800   18.1800   -9.8060 C.3   129  ILE129      0.0266
    166  CG1       38.8330   18.4840  -10.7570 C.3   129  ILE129      0.0019
    167  CG2       36.9840   16.8860  -10.2130 C.3   129  ILE129      0.0020
    168  CD1       40.0260   17.5890  -10.5570 C.3   129  ILE129      0.0001
    169  N         34.3150   18.7820   -9.6450 N.am  130  LYS130     -0.1966
    170  CA        33.0960   18.2700   -9.0280 C.3   130  LYS130      0.1728
    171  C         32.8150   16.8850   -9.5870 C.2   130  LYS130      0.2616
    172  O         32.8310   16.6840  -10.8010 O.2   130  LYS130     -0.2715
    173  CB        31.9150   19.1720   -9.3520 C.3   130  LYS130      0.0311
    174  CG        32.0020   20.5650   -8.7950 C.3   130  LYS130      0.0038
    175  CD        30.7390   21.2910   -9.2020 C.3   130  LYS130      0.0206
    176  CE        30.6680   22.6920   -8.6660 C.3   130  LYS130      0.1093
    177  NZ        29.3860   23.3040   -9.1200 N.3   130  LYS130     -0.1314
    178  N         32.5340   15.9240   -8.7210 N.am  131  CYS131     -0.1968
    179  CA        32.2150   14.5960   -9.2190 C.3   131  CYS131      0.1712
    180  C         31.3260   13.8270   -8.2610 C.2   131  CYS131      0.2296
    181  O         31.4560   13.9290   -7.0340 O.2   131  CYS131     -0.2864
    182  CB        33.4850   13.8100   -9.5330 C.3   131  CYS131      0.0983
    183  SG        34.6390   13.6870   -8.1840 S.3   131  CYS131     -0.0798
    184  N         36.6650    8.9310  -10.8730 N.3   138  SER138     -0.1217
    185  CA        36.7920   10.3870  -10.9790 C.3   138  SER138      0.1889
    186  C         37.2690   10.9970   -9.6680 C.2   138  SER138      0.2288
    187  O         38.1200   11.8850   -9.6700 O.2   138  SER138     -0.2866
    188  CB        35.5050   11.0470  -11.4500 C.3   138  SER138      0.2089
    189  OG        35.7450   12.4270  -11.6210 O.3   138  SER138     -0.2183
    190  N         23.9290   16.5910   -9.0560 N.3   157  GLU157     -0.1245
    191  CA        24.1330   16.1750  -10.4450 C.3   157  GLU157      0.1567
    192  C         23.1360   15.1090  -10.8710 C.2   157  GLU157      0.2260
    193  O         23.0180   14.0730  -10.2260 O.2   157  GLU157     -0.2867
    194  CB        25.5710   15.6970  -10.6730 C.3   157  GLU157      0.0388
    195  CG        25.8660   15.4100  -12.1480 C.3   157  GLU157      0.1160
    196  CD        27.3090   15.0440  -12.4510 C.2   157  GLU157      0.3649
    197  OE1       28.1910   15.1280  -11.5640 O.co2 157  GLU157     -0.2457
    198  OE2       27.5530   14.6750  -13.6150 O.co2 157  GLU157     -0.2457
    199  N         27.5030   15.3110   -5.1200 N.3   166  GLN166     -0.1245
    200  CA        28.8510   15.4660   -5.6560 C.3   166  GLN166      0.1566
    201  C         29.8210   15.8020   -4.5440 C.2   166  GLN166      0.2260
    202  O         29.4940   16.5520   -3.6260 O.2   166  GLN166     -0.2867
    203  CB        28.9430   16.6250   -6.6470 C.3   166  GLN166      0.0367
    204  CG        28.2430   16.4380   -7.9630 C.3   166  GLN166      0.0905
    205  CD        28.3340   17.6900   -8.8090 C.2   166  GLN166      0.2608
    206  OE1       28.2370   18.8110   -8.2940 O.2   166  GLN166     -0.2717
    207  NE2       28.5340   17.5100  -10.1030 N.am  166  GLN166     -0.0878
@<TRIPOS>BOND
     1    57    58    1
     2    67    68    2
     3    67    66    1
     4    58    59    1
     5    58    61    1
     6    63    62   ar
     7    65    59   am
     8    65    66    1
     9    69    66    1
    10    69    70    1
    11    64    62   ar
    12    62    61    1
    13    59    60    2
    14     1     2    1
    15    71    72    1
    16     2     3    1
    17     2     5    1
    18     3     4    2
    19     5     6    1
    20    73    72    1
    21    73    74    2
    22    72    75    1
    23    52    53    2
    24    52    51    1
    25    55    54    1
    26     8     6    1
    27     6     7    1
    28    75    76    1
    29    51    54    1
    30    51    50    1
    31    54    56    1
    32    76    78   ar
    33    76    77   ar
    34    78    80   ar
    35     9    10    1
    36    16    14    1
    37    13    10    1
    38    13    14    1
    39    13    15    1
    40    11    10    1
    41    11    12    2
    42    77    79   ar
    43    80    81   ar
    44    79    81   ar
    45    85    84    2
    46   160   158   ar
    47   160   159   ar
    48    88    86    1
    49   158   156   ar
    50    96    94    1
    51    86    87    1
    52    86    83    1
    53    84    83    1
    54    39    38    2
    55    48    46   ar
    56    48    49   ar
    57    89    87    1
    58   159   157   ar
    59    46    43   ar
    60    83    82    1
    61   156   155   ar
    62   156   154   ar
    63    49    47   ar
    64    94    95    1
    65    94    91    1
    66    38    37    1
    67    90    91    1
    68    91    92    1
    69   155   153   ar
    70   157   154   ar
    71    43    41   ar
    72    43    45   ar
    73    40    37    1
    74    40    41    1
    75   154   152   ar
    76    37    36    1
    77    47    45   ar
    78    41    42   ar
    79    45    44   ar
    80   153   152   ar
    81    92    93    2
    82   152   151    1
    83    34    33    2
    84    36    33   am
    85    42    44   ar
    86   150   149    2
    87    33    32    1
    88   101    98    1
    89   101   102    1
    90   149   148    1
    91   151   148    1
    92    30    29    1
    93    98    97    1
    94    98    99    1
    95   148   147    1
    96   147   137   am
    97    32    35    1
    98    32    31    1
    99   106   105    2
   100    29    28    1
   101    26    25    2
   102    99   100    2
   103    27    28    1
   104    27    24    1
   105    31    25   am
   106   109   108    2
   107    25    24    1
   108   137   136    1
   109   137   138    2
   110   104   105    1
   111   104   103    1
   112   104   107    1
   113   136   135    1
   114   136   139    1
   115   134   133    2
   116    24    23    1
   117   108   107    1
   118   108   110   am
   119   135   133   am
   120   133   132    1
   121   139   140    1
   122    23    19   am
   123   132   131    1
   124    22    21    1
   125   131   125   am
   126    17    18    1
   127   140   141   ar
   128   140   142   ar
   129    19    18    1
   130    19    20    2
   131   114   113    2
   132   141   143   ar
   133    21    18    1
   134   142   144   ar
   135   125   124    1
   136   125   126    2
   137   129   127    1
   138   124   127    1
   139   124   123    1
   140   113   123   am
   141   113   112    1
   142   127   128    1
   143   128   130    1
   144   143   145   ar
   145   144   145   ar
   146   111   112    1
   147   198   196   ar
   148   112   115    1
   149   115   116    1
   150   145   146    1
   151   118   116   ar
   152   118   120   ar
   153   196   195    1
   154   196   197   ar
   155   116   117   ar
   156   195   194    1
   157   189   188    1
   158   120   121   ar
   159   188   185    1
   160   117   119   ar
   161   185   184    1
   162   185   186    1
   163   192   191    1
   164   192   193    2
   165   172   171    2
   166   166   168    1
   167   166   165    1
   168   194   191    1
   169   191   190    1
   170   121   119   ar
   171   121   122    1
   172   167   165    1
   173   207   205   am
   174   165   162    1
   175   162   161    1
   176   162   163    1
   177   187   186    2
   178   169   170    1
   179   169   163   am
   180   171   170    1
   181   171   178   am
   182   182   179    1
   183   182   183    1
   184   173   170    1
   185   173   174    1
   186   179   178    1
   187   179   180    1
   188   175   174    1
   189   175   176    1
   190   177   176    1
   191   163   164    2
   192   205   206    2
   193   205   204    1
   194   180   181    2
   195   204   203    1
   196   203   200    1
   197   200   199    1
   198   200   201    1
   199   201   202    2
