@<TRIPOS>MOLECULE
tmp/3r9hA00.pdb
 173 164 0 0 0
SMALL
GASTEIGER

@<TRIPOS>ATOM
      1  N        -67.5880  -13.7800  -43.0700 N.3    10  ILE10      -0.1245
      2  CA       -66.5650  -12.8130  -43.4600 C.3    10  ILE10       0.1561
      3  C        -66.6210  -11.6170  -42.5170 C.2    10  ILE10       0.2260
      4  O        -65.6200  -10.9320  -42.2990 O.2    10  ILE10      -0.2867
      5  CB       -66.7690  -12.2910  -44.9070 C.3    10  ILE10       0.0252
      6  CG1      -66.4420  -13.3810  -45.9230 C.3    10  ILE10       0.0019
      7  CG2      -65.8700  -11.0850  -45.1580 C.3    10  ILE10       0.0019
      8  CD1      -66.5710  -12.9140  -47.3620 C.3    10  ILE10       0.0001
      9  N        -71.6840   -6.6890  -42.1860 N.3    13  GLY13      -0.1225
     10  CA       -71.8880   -5.6020  -43.1260 C.3    13  GLY13       0.1811
     11  C        -72.7440   -4.5770  -42.4030 C.2    13  GLY13       0.2280
     12  O        -73.3060   -4.8900  -41.3490 O.2    13  GLY13      -0.2866
     13  N        -75.4700   -3.6060  -43.3220 N.3    15  TYR15      -0.1241
     14  CA       -76.8540   -3.9280  -43.6740 C.3    15  TYR15       0.1605
     15  C        -77.2380   -5.3140  -43.1670 C.2    15  TYR15       0.2264
     16  O        -78.4120   -5.5950  -42.9070 O.2    15  TYR15      -0.2867
     17  CB       -77.0560   -3.8650  -45.1900 C.3    15  TYR15       0.0534
     18  CG       -77.1350   -2.4570  -45.7340 C.ar   15  TYR15      -0.0201
     19  CD1      -77.9770   -1.5100  -45.1440 C.ar   15  TYR15      -0.0009
     20  CD2      -76.3800   -2.0710  -46.8410 C.ar   15  TYR15      -0.0009
     21  CE1      -78.0630   -0.2120  -45.6420 C.ar   15  TYR15       0.0417
     22  CE2      -76.4610   -0.7770  -47.3470 C.ar   15  TYR15       0.0417
     23  CZ       -77.3030    0.1460  -46.7420 C.ar   15  TYR15       0.1957
     24  OH       -77.3890    1.4270  -47.2340 O.3    15  TYR15      -0.2866
     25  N        -72.1880  -10.8190  -43.7420 N.3    18  VAL18      -0.1245
     26  CA       -71.5130  -11.2440  -44.9620 C.3    18  VAL18       0.1561
     27  C        -70.7950  -12.5540  -44.6950 C.2    18  VAL18       0.2260
     28  O        -69.9710  -12.6540  -43.7900 O.2    18  VAL18      -0.2867
     29  CB       -70.4910  -10.2030  -45.4360 C.3    18  VAL18       0.0252
     30  CG1      -69.8700  -10.6530  -46.7490 C.3    18  VAL18       0.0019
     31  CG2      -71.1750   -8.8390  -45.6020 C.3    18  VAL18       0.0019
     32  N        -69.0670  -14.1330  -51.8630 N.3    31  ALA31      -0.1245
     33  CA       -69.3310  -13.4220  -50.6310 C.3    31  ALA31       0.1562
     34  C        -70.8350  -13.2550  -50.6790 C.2    31  ALA31       0.2260
     35  O        -71.3740  -12.6270  -51.5910 O.2    31  ALA31      -0.2867
     36  CB       -68.6460  -12.0690  -50.6210 C.3    31  ALA31       0.0290
     37  N        -74.1730  -11.8270  -48.9790 N.3    33  LYS33      -0.1245
     38  CA       -74.6390  -10.7850  -48.0800 C.3    33  LYS33       0.1561
     39  C        -76.1480  -10.9560  -47.8630 C.2    33  LYS33       0.2260
     40  O        -76.9320  -10.8970  -48.8150 O.2    33  LYS33      -0.2867
     41  CB       -74.3600   -9.4120  -48.6970 C.3    33  LYS33       0.0271
     42  CG       -73.9800   -8.3150  -47.7040 C.3    33  LYS33       0.0035
     43  CD       -75.0830   -7.9970  -46.6990 C.3    33  LYS33       0.0206
     44  CE       -74.5450   -7.1260  -45.5620 C.3    33  LYS33       0.1093
     45  NZ       -73.9560   -5.8470  -46.0530 N.3    33  LYS33      -0.1314
     46  N        -66.2250   -4.4400  -57.1080 N.3    60  VAL60      -0.1245
     47  CA       -66.5580   -5.8280  -56.8100 C.3    60  VAL60       0.1561
     48  C        -67.7900   -6.2270  -57.6240 C.2    60  VAL60       0.2260
     49  O        -68.8260   -5.5600  -57.5970 O.2    60  VAL60      -0.2867
     50  CB       -66.8270   -6.0040  -55.2960 C.3    60  VAL60       0.0252
     51  CG1      -67.2350   -7.4490  -54.9750 C.3    60  VAL60       0.0019
     52  CG2      -65.5730   -5.6350  -54.5280 C.3    60  VAL60       0.0019
     53  N        -77.3840  -10.7630  -51.5380 N.3    74  LEU74      -0.1245
     54  CA       -76.5440  -10.1820  -52.5720 C.3    74  LEU74       0.1561
     55  C        -75.3400  -11.0880  -52.7350 C.2    74  LEU74       0.2260
     56  O        -74.6360  -11.3920  -51.7720 O.2    74  LEU74      -0.2867
     57  CB       -76.0960   -8.7890  -52.1640 C.3    74  LEU74       0.0270
     58  CG       -77.2530   -7.8110  -52.0140 C.3    74  LEU74       0.0019
     59  CD1      -76.7560   -6.4720  -51.4680 C.3    74  LEU74       0.0001
     60  CD2      -77.9090   -7.6540  -53.3920 C.3    74  LEU74       0.0001
     61  N        -71.7510  -11.5370  -54.2790 N.3    76  PHE76      -0.1227
     62  CA       -70.5970  -10.8280  -54.8240 C.3    76  PHE76       0.1736
     63  C        -69.4510  -11.7890  -55.1200 C.2    76  PHE76       0.2595
     64  O        -69.3480  -12.8350  -54.4780 O.2    76  PHE76      -0.2718
     65  CB       -70.1140   -9.8010  -53.7890 C.3    76  PHE76       0.0547
     66  CG       -71.0820   -8.6780  -53.5390 C.ar   76  PHE76      -0.0202
     67  CD1      -71.2480   -7.6650  -54.4780 C.ar   76  PHE76      -0.0042
     68  CD2      -71.8290   -8.6310  -52.3720 C.ar   76  PHE76      -0.0042
     69  CE1      -72.1380   -6.6250  -54.2560 C.ar   76  PHE76      -0.0003
     70  CE2      -72.7300   -7.5890  -52.1420 C.ar   76  PHE76      -0.0003
     71  CZ       -72.8830   -6.5850  -53.0870 C.ar   76  PHE76      -0.0000
     72  N        -68.6050  -11.4510  -56.0980 N.am   77  GLU77      -0.1965
     73  CA       -67.4270  -12.2770  -56.4030 C.3    77  GLU77       0.1733
     74  C        -66.6690  -12.1400  -55.0800 C.2    77  GLU77       0.2616
     75  O        -66.7960  -11.1160  -54.4070 O.2    77  GLU77      -0.2715
     76  CB       -66.5800  -11.6500  -57.5310 C.3    77  GLU77       0.0429
     77  CG       -66.0740  -10.2450  -57.1820 C.3    77  GLU77       0.1163
     78  CD       -65.1280   -9.6250  -58.2140 C.2    77  GLU77       0.3649
     79  OE1      -64.1050  -10.2440  -58.5900 O.co2  77  GLU77      -0.2457
     80  OE2      -65.4020   -8.4950  -58.6430 O.co2  77  GLU77      -0.2457
     81  N        -65.8800  -13.1350  -54.7090 N.am   78  PHE78      -0.1960
     82  CA       -65.1710  -13.1010  -53.4330 C.3    78  PHE78       0.1771
     83  C        -63.7100  -12.6780  -53.5720 C.2    78  PHE78       0.2619
     84  O        -63.0110  -13.1390  -54.4700 O.2    78  PHE78      -0.2715
     85  CB       -65.2920  -14.4960  -52.7770 C.3    78  PHE78       0.0574
     86  CG       -64.4410  -14.6890  -51.5360 C.ar   78  PHE78      -0.0200
     87  CD1      -63.1510  -15.2150  -51.6350 C.ar   78  PHE78      -0.0042
     88  CD2      -64.9200  -14.3180  -50.2800 C.ar   78  PHE78      -0.0042
     89  CE1      -62.3460  -15.3630  -50.5050 C.ar   78  PHE78      -0.0003
     90  CE2      -64.1330  -14.4570  -49.1390 C.ar   78  PHE78      -0.0003
     91  CZ       -62.8280  -14.9860  -49.2510 C.ar   78  PHE78      -0.0000
     92  N        -63.2570  -11.7810  -52.6970 N.am   79  LEU79      -0.1963
     93  CA       -61.8610  -11.3490  -52.7210 C.3    79  LEU79       0.1728
     94  C        -61.2730  -11.7750  -51.3990 C.2    79  LEU79       0.2616
     95  O        -61.9970  -11.8710  -50.4160 O.2    79  LEU79      -0.2715
     96  CB       -61.7420   -9.8420  -52.9760 C.3    79  LEU79       0.0311
     97  CG       -61.8090   -9.5860  -54.4990 C.3    79  LEU79       0.0022
     98  CD1      -63.2590   -9.4750  -54.9420 C.3    79  LEU79       0.0001
     99  CD2      -61.0670   -8.3170  -54.8710 C.3    79  LEU79       0.0001
    100  N        -59.9710  -12.0410  -51.3590 N.am   80  HIS80      -0.1959
    101  CA       -59.3530  -12.5590  -50.1350 C.3    80  HIS80       0.1787
    102  C        -58.9700  -11.6690  -48.9940 C.2    80  HIS80       0.2620
    103  O        -58.7240  -12.1800  -47.8930 O.2    80  HIS80      -0.2715
    104  CB       -58.1350  -13.4260  -50.4710 C.3    80  HIS80       0.0785
    105  CG       -58.4890  -14.8210  -50.8940 C.ar   80  HIS80       0.0821
    106  ND1      -59.0540  -15.1060  -52.1200 N.ar   80  HIS80      -0.2267
    107  CD2      -58.3950  -16.0040  -50.2360 C.ar   80  HIS80       0.1154
    108  CE1      -59.2930  -16.4050  -52.1980 C.ar   80  HIS80       0.1986
    109  NE2      -58.9020  -16.9740  -51.0700 N.ar   80  HIS80      -0.2212
    110  N        -58.9130  -10.3580  -49.2080 N.am   81  GLN81      -0.1963
    111  CA       -58.5340   -9.4910  -48.0960 C.3    81  GLN81       0.1733
    112  C        -59.0520   -8.0690  -48.2410 C.2    81  GLN81       0.2616
    113  O        -59.2140   -7.5750  -49.3560 O.2    81  GLN81      -0.2715
    114  CB       -57.0090   -9.4850  -47.9550 C.3    81  GLN81       0.0408
    115  CG       -56.5050   -8.8960  -46.6400 C.3    81  GLN81       0.0908
    116  CD       -55.1280   -9.4180  -46.2700 C.2    81  GLN81       0.2608
    117  OE1      -54.9620  -10.6090  -45.9580 O.2    81  GLN81      -0.2717
    118  NE2      -54.1270   -8.5380  -46.3080 N.am   81  GLN81      -0.0878
    119  N        -59.3390   -7.4210  -47.1140 N.am   82  ASP82      -0.1971
    120  CA       -59.8020   -6.0490  -47.1810 C.3    82  ASP82       0.1709
    121  C        -58.6030   -5.1650  -46.8740 C.2    82  ASP82       0.2293
    122  O        -57.5990   -5.6360  -46.3470 O.2    82  ASP82      -0.2864
    123  CB       -60.9770   -5.7950  -46.2180 C.3    82  ASP82       0.1436
    124  CG       -60.6090   -5.9630  -44.7530 C.2    82  ASP82       0.3671
    125  OD1      -59.6490   -5.3190  -44.2900 O.co2  82  ASP82      -0.2456
    126  OD2      -61.2980   -6.7360  -44.0610 O.co2  82  ASP82      -0.2456
    127  N        -57.3140   -4.8840  -43.0170 N.3    85  LYS85      -0.1245
    128  CA       -56.4690   -5.9760  -42.5220 C.3    85  LYS85       0.1561
    129  C        -55.0640   -5.8350  -43.1040 C.2    85  LYS85       0.2260
    130  O        -54.0650   -6.0200  -42.4110 O.2    85  LYS85      -0.2867
    131  CB       -57.0770   -7.3370  -42.9100 C.3    85  LYS85       0.0271
    132  CG       -56.2980   -8.5630  -42.3960 C.3    85  LYS85       0.0035
    133  CD       -57.1020   -9.8580  -42.6100 C.3    85  LYS85       0.0206
    134  CE       -56.3870  -11.0870  -42.0430 C.3    85  LYS85       0.1093
    135  NZ       -57.1790  -12.3590  -42.2320 N.3    85  LYS85      -0.1314
    136  N        -62.2410   -1.1040  -44.7020 N.3   127  GLN127     -0.1231
    137  CA       -62.9130   -2.4030  -44.6440 C.3   127  GLN127      0.1698
    138  C        -63.7590   -2.7230  -45.8850 C.2   127  GLN127      0.2592
    139  O        -64.0200   -3.9040  -46.1560 O.2   127  GLN127     -0.2718
    140  CB       -63.8050   -2.4930  -43.3960 C.3   127  GLN127      0.0381
    141  CG       -63.0590   -2.5230  -42.0770 C.3   127  GLN127      0.0905
    142  CD       -63.9310   -3.0230  -40.9440 C.2   127  GLN127      0.2608
    143  OE1      -65.0280   -2.5130  -40.7170 O.2   127  GLN127     -0.2717
    144  NE2      -63.4470   -4.0290  -40.2240 N.am  127  GLN127     -0.0878
    145  N        -64.1860   -1.6840  -46.6190 N.am  128  ASN128     -0.1974
    146  CA       -65.0010   -1.8350  -47.8400 C.3   128  ASN128      0.1688
    147  C        -64.1500   -1.8730  -49.1070 C.2   128  ASN128      0.2292
    148  O        -64.6900   -1.8310  -50.2110 O.2   128  ASN128     -0.2864
    149  CB       -65.9670   -0.6480  -48.0390 C.3   128  ASN128      0.1181
    150  CG       -67.1000   -0.6290  -47.0570 C.2   128  ASN128      0.2629
    151  OD1      -67.3130   -1.5860  -46.3000 O.2   128  ASN128     -0.2716
    152  ND2      -67.8570    0.4650  -47.0660 N.am  128  ASN128     -0.0877
    153  N        -61.4770   -4.0180  -51.1880 N.3   130  LEU130     -0.1245
    154  CA       -60.9640   -5.3770  -51.2770 C.3   130  LEU130      0.1561
    155  C        -59.7990   -5.5060  -52.2390 C.2   130  LEU130      0.2260
    156  O        -59.7860   -4.8910  -53.3060 O.2   130  LEU130     -0.2867
    157  CB       -62.1020   -6.3020  -51.7040 C.3   130  LEU130      0.0270
    158  CG       -63.3290   -6.0860  -50.8210 C.3   130  LEU130      0.0019
    159  CD1      -64.3890   -7.0860  -51.2230 C.3   130  LEU130      0.0001
    160  CD2      -62.9570   -6.2290  -49.3150 C.3   130  LEU130      0.0001
    161  N        -66.0590   -2.1140  -52.6410 N.3   140  ALA140     -0.1231
    162  CA       -67.0860   -3.0630  -52.2300 C.3   140  ALA140      0.1694
    163  C        -68.1580   -2.3350  -51.4420 C.2   140  ALA140      0.2592
    164  O        -67.9750   -1.1840  -51.0440 O.2   140  ALA140     -0.2718
    165  CB       -66.4900   -4.1420  -51.3780 C.3   140  ALA140      0.0304
    166  N        -69.2680   -3.0190  -51.2000 N.am  141  ASP141     -0.1974
    167  CA       -70.3690   -2.4430  -50.4450 C.3   141  ASP141      0.1709
    168  C        -71.2550   -1.4520  -51.1920 C.2   141  ASP141      0.2293
    169  O        -72.3010   -1.8180  -51.7270 O.2   141  ASP141     -0.2864
    170  CB       -69.8460   -1.7510  -49.1900 C.3   141  ASP141      0.1436
    171  CG       -70.9460   -1.0900  -48.3980 C.2   141  ASP141      0.3671
    172  OD1      -71.4440   -0.0330  -48.8380 O.co2 141  ASP141     -0.2456
    173  OD2      -71.3200   -1.6360  -47.3350 O.co2 141  ASP141     -0.2456
@<TRIPOS>BOND
     1    80    78   ar
     2    79    78   ar
     3    78    77    1
     4    48    49    2
     5    48    47    1
     6    76    77    1
     7    76    73    1
     8    46    47    1
     9    47    50    1
    10    73    72    1
    11    73    74    1
    12    72    63   am
    13    50    51    1
    14    50    52    1
    15    63    62    1
    16    63    64    2
    17    74    81   am
    18    74    75    2
    19    98    97    1
    20    99    97    1
    21    62    61    1
    22    62    65    1
    23    81    82    1
    24    97    96    1
    25    67    69   ar
    26    67    66   ar
    27    84    83    2
    28    69    71   ar
    29    65    66    1
    30    83    82    1
    31    83    92   am
    32    66    68   ar
    33    82    85    1
    34    60    58    1
    35   156   155    2
    36    71    70   ar
    37    96    93    1
    38    85    86    1
    39    55    54    1
    40    55    56    2
    41    93    92    1
    42    93    94    1
    43   161   162    1
    44    54    57    1
    45    54    53    1
    46    68    70   ar
    47   155   154    1
    48   162   163    1
    49   162   165    1
    50   108   106   ar
    51   108   109   ar
    52    57    58    1
    53   106   105   ar
    54    58    59    1
    55    32    33    1
    56   169   168    2
    57   157   154    1
    58   157   158    1
    59    87    86   ar
    60    87    89   ar
    61    35    34    2
    62    86    88   ar
    63   163   166   am
    64   163   164    2
    65    94   100   am
    66    94    95    2
    67   100   101    1
    68   154   153    1
    69   159   158    1
    70   166   167    1
    71   168   167    1
    72   109   107   ar
    73   105   104    1
    74   105   107   ar
    75   158   160    1
    76    34    33    1
    77    33    36    1
    78    89    91   ar
    79   104   101    1
    80   167   170    1
    81    88    90   ar
    82   148   147    2
    83   101   102    1
    84   113   112    2
    85    91    90   ar
    86   110   102   am
    87   110   111    1
    88   170   171    1
    89   147   146    1
    90   102   103    2
    91    37    38    1
    92   172   171   ar
    93    40    39    2
    94    41    38    1
    95    41    42    1
    96   171   173   ar
    97   112   111    1
    98   112   119   am
    99   111   114    1
   100    38    39    1
   101   149   146    1
   102   149   150    1
   103   114   115    1
   104   146   145    1
   105    42    43    1
   106     8     6    1
   107    22    20   ar
   108    22    23   ar
   109    24    23    1
   110   120   119    1
   111   120   121    1
   112   120   123    1
   113   152   150   am
   114   150   151    2
   115   121   122    2
   116    20    18   ar
   117    30    29    1
   118    23    21   ar
   119    43    44    1
   120   115   116    1
   121   145   138   am
   122   118   116   am
   123   116   117    2
   124   123   124    1
   125   139   138    2
   126    45    44    1
   127     6     5    1
   128   138   137    1
   129    18    17    1
   130    18    19   ar
   131    21    19   ar
   132    31    29    1
   133    29    26    1
   134    17    14    1
   135     7     5    1
   136    26    27    1
   137    26    25    1
   138     5     2    1
   139   124   125   ar
   140   124   126   ar
   141   136   137    1
   142    27    28    2
   143   137   140    1
   144    14    13    1
   145    14    15    1
   146     2     1    1
   147     2     3    1
   148   140   141    1
   149    15    16    2
   150    10    11    1
   151    10     9    1
   152   129   128    1
   153   129   130    2
   154   127   128    1
   155   131   128    1
   156   131   132    1
   157   133   132    1
   158   133   134    1
   159     3     4    2
   160    11    12    2
   161   135   134    1
   162   141   142    1
   163   142   143    2
   164   142   144   am
