@<TRIPOS>MOLECULE
tmp/3r9iA00.pdb
 151 143 0 0 0
SMALL
GASTEIGER

@<TRIPOS>ATOM
      1  N         -1.6110   -0.5840   -2.6740 N.3    11  GLY11      -0.1210
      2  CA        -1.4800   -0.1570   -1.2970 C.3    11  GLY11       0.1956
      3  C         -1.9400    1.2750   -1.0820 C.2    11  GLY11       0.2612
      4  O         -1.8440    2.1140   -1.9690 O.2    11  GLY11      -0.2717
      5  N         -2.4700    1.5460    0.1020 N.am   12  GLY12      -0.1942
      6  CA        -2.8330    2.8930    0.5000 C.3    12  GLY12       0.2014
      7  C         -3.9760    3.5710   -0.2300 C.2    12  GLY12       0.2639
      8  O         -3.9170    4.7730   -0.4850 O.2    12  GLY12      -0.2714
      9  N         -5.0290    2.8310   -0.5340 N.am   13  VAL13      -0.1963
     10  CA        -6.1840    3.4090   -1.1990 C.3    13  VAL13       0.1727
     11  C         -7.3200    3.6980   -0.2390 C.2    13  VAL13       0.2617
     12  O         -8.2180    4.4460   -0.5630 O.2    13  VAL13      -0.2715
     13  CB        -6.7180    2.4760   -2.3010 C.3    13  VAL13       0.0290
     14  CG1       -5.6180    2.1670   -3.3110 C.3    13  VAL13       0.0023
     15  CG2       -7.2310    1.2230   -1.6950 C.3    13  VAL13       0.0023
     16  N         -7.3010    3.0850    0.9350 N.am   14  GLY14      -0.1940
     17  CA        -8.3520    3.3120    1.9060 C.3    14  GLY14       0.2014
     18  C         -9.0410    2.0640    2.4440 C.2    14  GLY14       0.2639
     19  O        -10.1240    2.1570    3.0230 O.2    14  GLY14      -0.2714
     20  N         -8.4270    0.9000    2.2520 N.am   15  LYS15      -0.1963
     21  CA        -8.9700   -0.3660    2.7560 C.3    15  LYS15       0.1728
     22  C         -9.2220   -0.3290    4.2630 C.2    15  LYS15       0.2617
     23  O        -10.3070   -0.6980    4.7130 O.2    15  LYS15      -0.2715
     24  CB        -8.0310   -1.5280    2.4320 C.3    15  LYS15       0.0311
     25  CG        -7.9540   -1.8970    0.9690 C.3    15  LYS15       0.0038
     26  CD        -7.1580   -3.1560    0.7470 C.3    15  LYS15       0.0206
     27  CE        -5.6880   -3.0220    1.1630 C.3    15  LYS15       0.1093
     28  NZ        -4.9990   -1.9170    0.5120 N.3    15  LYS15      -0.1314
     29  N         -8.2220    0.1140    5.0350 N.am   16  THR16      -0.1937
     30  CA        -8.3060    0.1650    6.5030 C.3    16  THR16       0.2028
     31  C         -9.3610    1.1760    6.9550 C.2    16  THR16       0.2642
     32  O        -10.1810    0.8740    7.8120 O.2    16  THR16      -0.2714
     33  CB        -6.9370    0.5030    7.1130 C.3    16  THR16       0.1808
     34  OG1       -6.0820   -0.6190    6.9460 O.3    16  THR16      -0.2208
     35  CG2       -7.0340    0.8390    8.6070 C.3    16  THR16       0.0379
     36  N         -9.3380    2.3630    6.3580 N.am   17  THR17      -0.1950
     37  CA       -10.2960    3.4130    6.6420 C.3    17  THR17       0.1897
     38  C        -11.6790    2.8890    6.3700 C.2    17  THR17       0.2313
     39  O        -12.5620    3.0630    7.1920 O.2    17  THR17      -0.2863
     40  CB       -10.0610    4.6680    5.7600 C.3    17  THR17       0.1794
     41  OG1       -8.7370    5.1610    5.9760 O.3    17  THR17      -0.2208
     42  CG2      -11.0590    5.7650    6.0810 C.3    17  THR17       0.0378
     43  N         -2.1770   -2.4300   11.5130 N.3    44  ASN44      -0.1240
     44  CA        -2.7480   -1.1070   11.2500 C.3    44  ASN44       0.1653
     45  C         -4.2220   -0.9630   11.6070 C.2    44  ASN44       0.2266
     46  O         -4.6750    0.1400   11.8380 O.2    44  ASN44      -0.2867
     47  CB        -2.5930   -0.6980    9.7750 C.3    44  ASN44       0.1155
     48  CG        -1.1420   -0.5500    9.3400 C.2    44  ASN44       0.2627
     49  OD1       -0.8240   -0.6780    8.1600 O.2    44  ASN44      -0.2716
     50  ND2       -0.2620   -0.2800   10.2840 N.am   44  ASN44      -0.0877
     51  N         -6.2530    2.2470   13.7780 N.3    48  ILE48      -0.1245
     52  CA        -7.3390    3.0590   13.2300 C.3    48  ILE48       0.1561
     53  C         -8.6250    2.9490   14.0690 C.2    48  ILE48       0.2260
     54  O         -9.3630    3.9210   14.1750 O.2    48  ILE48      -0.2867
     55  CB        -7.5770    2.7080   11.7360 C.3    48  ILE48       0.0252
     56  CG1       -6.9050    3.7560   10.8470 C.3    48  ILE48       0.0019
     57  CG2       -9.0530    2.6420   11.4000 C.3    48  ILE48       0.0019
     58  CD1       -5.4180    3.9380   11.0720 C.3    48  ILE48       0.0001
     59  N         -2.4060   -5.1150    1.1060 N.3   122  ALA122     -0.1245
     60  CA        -2.1140   -4.9430   -0.3150 C.3   122  ALA122      0.1562
     61  C         -1.5730   -6.2290   -0.9080 C.2   122  ALA122      0.2260
     62  O         -1.2610   -7.1840   -0.2070 O.2   122  ALA122     -0.2867
     63  CB        -1.1220   -3.8010   -0.5650 C.3   122  ALA122      0.0290
     64  N        -12.7520    5.7320   -3.8880 N.3   180  THR180     -0.1203
     65  CA       -12.3460    6.4330   -2.6830 C.3   180  THR180      0.1994
     66  C        -11.3400    7.5670   -2.9580 C.2   180  THR180      0.2617
     67  O        -10.6030    7.5250   -3.9260 O.2   180  THR180     -0.2717
     68  CB       -11.8240    5.4260   -1.6760 C.3   180  THR180      0.1784
     69  OG1      -11.8300    6.0260   -0.3940 O.3   180  THR180     -0.2211
     70  CG2      -10.4490    5.0110   -2.0060 C.3   180  THR180      0.0376
     71  N        -11.3590    8.5970   -2.1200 N.am  181  ARG181     -0.1979
     72  CA       -10.5520    9.8020   -2.3410 C.3   181  ARG181      0.1597
     73  C        -10.9240   10.5110   -3.6370 C.2   181  ARG181      0.2287
     74  O        -10.0590   11.0050   -4.3710 O.2   181  ARG181     -0.2864
     75  CB        -9.0510    9.4940   -2.3210 C.3   181  ARG181      0.0334
     76  CG        -8.6240    8.7570   -1.0760 C.3   181  ARG181      0.0492
     77  CD        -7.1400    8.6970   -0.9270 C.3   181  ARG181      0.2205
     78  NE        -6.6280    9.9970   -0.5370 N.pl3 181  ARG181     -0.0865
     79  CZ        -5.4630   10.1910    0.0760 C.cat 181  ARG181      0.5346
     80  NH1       -4.6910    9.1660    0.3930 N.pl3 181  ARG181      0.1354
     81  NH2       -5.0790   11.4100    0.3800 N.pl3 181  ARG181      0.1354
     82  N        -16.2930    7.8180   -1.7030 N.3   210  ILE210     -0.1231
     83  CA       -15.8300    8.5500   -0.5280 C.3   210  ILE210      0.1678
     84  C        -15.0210    9.7700   -0.9500 C.2   210  ILE210      0.2434
     85  O        -13.9520    9.6360   -1.5460 O.2   210  ILE210     -0.2733
     86  CB       -14.9560    7.6560    0.3560 C.3   210  ILE210      0.0265
     87  CG1      -15.6410    6.3060    0.6010 C.3   210  ILE210      0.0019
     88  CG2      -14.6350    8.3430    1.6610 C.3   210  ILE210      0.0020
     89  CD1      -17.0060    6.4190    1.1210 C.3   210  ILE210      0.0001
     90  N        -15.5180   10.9730   -0.6460 N.am  211  PRO211     -0.2718
     91  CA       -14.7270   12.1410   -1.0470 C.3   211  PRO211      0.1535
     92  C        -13.4110   12.2510   -0.2780 C.2   211  PRO211      0.2598
     93  O        -13.3470   11.8440    0.8950 O.2   211  PRO211     -0.2715
     94  CB       -15.6190   13.3180   -0.6650 C.3   211  PRO211      0.0310
     95  CG       -16.4160   12.8120    0.4900 C.3   211  PRO211      0.0237
     96  CD       -16.6650   11.3400    0.1990 C.3   211  PRO211      0.0939
     97  N        -12.3800   12.7780   -0.9440 N.am  212  GLU212     -0.1964
     98  CA       -11.2110   13.3080   -0.2440 C.3   212  GLU212      0.1733
     99  C        -11.6840   14.1900    0.8930 C.2   212  GLU212      0.2616
    100  O        -12.4670   15.1050    0.6810 O.2   212  GLU212     -0.2715
    101  CB       -10.3670   14.1710   -1.1680 C.3   212  GLU212      0.0429
    102  CG        -9.0490   14.5400   -0.5520 C.3   212  GLU212      0.1163
    103  CD        -8.0800   13.3690   -0.6050 C.2   212  GLU212      0.3649
    104  OE1       -7.1740   13.2780    0.2560 O.co2 212  GLU212     -0.2457
    105  OE2       -8.2400   12.5330   -1.5240 O.co2 212  GLU212     -0.2457
    106  N        -11.2120   13.9300    2.0950 N.am  213  ASP213     -0.1971
    107  CA       -11.7160   14.6470    3.2470 C.3   213  ASP213      0.1709
    108  C        -10.6000   14.8590    4.2750 C.2   213  ASP213      0.2293
    109  O         -9.9230   13.9190    4.6790 O.2   213  ASP213     -0.2864
    110  CB       -12.8830   13.8650    3.8580 C.3   213  ASP213      0.1436
    111  CG       -13.6620   14.6740    4.9130 C.2   213  ASP213      0.3671
    112  OD1      -13.2610   15.8410    5.2200 O.co2 213  ASP213     -0.2456
    113  OD2      -14.6660   14.1280    5.4570 O.co2 213  ASP213     -0.2456
    114  N        -10.3640   12.5300    7.5560 N.3   216  VAL216     -0.1231
    115  CA        -9.8370   11.1800    7.6540 C.3   216  VAL216      0.1692
    116  C         -8.4760   11.1520    8.3600 C.2   216  VAL216      0.2591
    117  O         -8.2260   10.2700    9.1530 O.2   216  VAL216     -0.2718
    118  CB        -9.7480   10.4970    6.2690 C.3   216  VAL216      0.0266
    119  CG1       -9.0690    9.1390    6.3940 C.3   216  VAL216      0.0020
    120  CG2      -11.1460   10.3650    5.6500 C.3   216  VAL216      0.0020
    121  N         -7.6000   12.1080    8.0990 N.am  217  LEU217     -0.1980
    122  CA        -6.3390   12.1770    8.8350 C.3   217  LEU217      0.1596
    123  C         -6.5730   12.4420   10.3430 C.2   217  LEU217      0.2287
    124  O         -5.9370   11.8010   11.2060 O.2   217  LEU217     -0.2864
    125  CB        -5.4010   13.2390    8.2380 C.3   217  LEU217      0.0297
    126  CG        -4.0120   13.2820    8.8930 C.3   217  LEU217      0.0022
    127  CD1       -3.3550   11.9310    8.9180 C.3   217  LEU217      0.0001
    128  CD2       -3.1190   14.2550    8.1740 C.3   217  LEU217      0.0001
    129  N         -7.8490    9.0340   12.0590 N.3   220  SER220     -0.1217
    130  CA        -6.7960    8.0800   12.4310 C.3   220  SER220      0.1889
    131  C         -5.8430    8.6300   13.5060 C.2   220  SER220      0.2288
    132  O         -5.3170    7.8560   14.3040 O.2   220  SER220     -0.2866
    133  CB        -6.0350    7.5140   11.2180 C.3   220  SER220      0.2089
    134  OG        -5.2900    8.4910   10.5230 O.3   220  SER220     -0.2183
    135  N        -16.6660   12.3640    4.3770 N.3   234  ALA234     -0.1245
    136  CA       -16.2570   10.9740    4.2090 C.3   234  ALA234      0.1562
    137  C        -17.0650   10.0800    5.1430 C.2   234  ALA234      0.2260
    138  O        -17.4050    8.9480    4.8050 O.2   234  ALA234     -0.2867
    139  CB       -14.7700   10.8090    4.4600 C.3   234  ALA234      0.0290
    140  N        -19.6670    7.0490    3.9430 N.3   238  TYR238     -0.1241
    141  CA       -19.5300    5.7060    4.4660 C.3   238  TYR238      0.1605
    142  C        -20.8480    5.2090    5.0910 C.2   238  TYR238      0.2264
    143  O        -21.1680    4.0120    5.0230 O.2   238  TYR238     -0.2867
    144  CB       -18.3990    5.6050    5.5030 C.3   238  TYR238      0.0534
    145  CG       -17.0180    5.4000    4.9010 C.ar  238  TYR238     -0.0201
    146  CD1      -16.6980    4.2230    4.2130 C.ar  238  TYR238     -0.0009
    147  CD2      -16.0300    6.3690    5.0470 C.ar  238  TYR238     -0.0009
    148  CE1      -15.4520    4.0360    3.6810 C.ar  238  TYR238      0.0417
    149  CE2      -14.7880    6.1870    4.5180 C.ar  238  TYR238      0.0417
    150  CZ       -14.5000    5.0230    3.8300 C.ar  238  TYR238      0.1957
    151  OH       -13.2400    4.8670    3.3240 O.3   238  TYR238     -0.2866
@<TRIPOS>BOND
     1    74    73    2
     2    67    66    2
     3    64    65    1
     4    73    72    1
     5    14    13    1
     6    66    65    1
     7    66    71   am
     8    65    68    1
     9     1     2    1
    10    72    75    1
    11    72    71    1
    12    75    76    1
    13    13    15    1
    14    13    10    1
    15    70    68    1
    16     4     3    2
    17    82    83    1
    18    68    69    1
    19    85    84    2
    20   105   103   ar
    21     2     3    1
    22    10     9    1
    23    10    11    1
    24   101   102    1
    25   101    98    1
    26     3     5   am
    27    76    77    1
    28    91    94    1
    29    91    90    1
    30    91    92    1
    31    84    90   am
    32    84    83    1
    33    97    92   am
    34    97    98    1
    35    77    78    1
    36    61    60    1
    37    61    62    2
    38    94    95    1
    39    90    96    1
    40   103   102    1
    41   103   104   ar
    42    63    60    1
    43    12    11    2
    44    78    79    2
    45     9     7   am
    46    83    86    1
    47     8     7    2
    48    60    59    1
    49    92    93    2
    50    98    99    1
    51    11    16   am
    52     7     6    1
    53    79    81    1
    54    79    80    1
    55     5     6    1
    56    96    95    1
    57    86    87    1
    58    86    88    1
    59    28    27    1
    60    87    89    1
    61   100    99    2
    62    26    25    1
    63    26    27    1
    64    99   106   am
    65    16    17    1
    66    25    24    1
    67    17    18    1
    68   106   107    1
    69    20    18   am
    70    20    21    1
    71    24    21    1
    72    18    19    2
    73    21    22    1
    74   107   110    1
    75   107   108    1
    76   151   150    1
    77   148   150   ar
    78   148   146   ar
    79   150   149   ar
    80   110   111    1
    81   140   141    1
    82   136   135    1
    83   136   139    1
    84   136   137    1
    85   146   145   ar
    86    22    23    2
    87    22    29   am
    88   108   109    2
    89   141   142    1
    90   141   144    1
    91   149   147   ar
    92   138   137    2
    93   145   147   ar
    94   145   144    1
    95   111   112   ar
    96   111   113   ar
    97   143   142    2
    98    29    30    1
    99   120   118    1
   100    40    41    1
   101    40    42    1
   102    40    37    1
   103   118   119    1
   104   118   115    1
   105    36    37    1
   106    36    31   am
   107    38    37    1
   108    38    39    2
   109    30    31    1
   110    30    33    1
   111    34    33    1
   112    31    32    2
   113    33    35    1
   114   114   115    1
   115   115   116    1
   116   121   116   am
   117   121   122    1
   118    49    48    2
   119   128   126    1
   120   125   122    1
   121   125   126    1
   122   116   117    2
   123   122   123    1
   124   126   127    1
   125    48    47    1
   126    48    50   am
   127    47    44    1
   128   123   124    2
   129   134   133    1
   130    56    58    1
   131    56    55    1
   132   133   130    1
   133    44    43    1
   134    44    45    1
   135    57    55    1
   136    45    46    2
   137    55    52    1
   138   129   130    1
   139   130   131    1
   140    52    51    1
   141    52    53    1
   142   131   132    2
   143    53    54    2
