@<TRIPOS>MOLECULE
tmp/3r9nA00.pdb
 182 174 0 0 0
SMALL
GASTEIGER

@<TRIPOS>ATOM
      1  N         94.8780   85.3820  -42.9880 N.3    10  ILE10      -0.1231
      2  CA        93.6310   84.6530  -43.0650 C.3    10  ILE10       0.1696
      3  C         93.7100   83.2760  -42.4380 C.2    10  ILE10       0.2632
      4  O         92.6840   82.6580  -42.1710 O.2    10  ILE10      -0.2714
      5  CB        93.0770   84.5750  -44.5220 C.3    10  ILE10       0.0266
      6  CG1       94.1170   84.0260  -45.4930 C.3    10  ILE10       0.0019
      7  CG2       92.6260   85.9630  -44.9630 C.3    10  ILE10       0.0020
      8  CD1       93.6940   84.1590  -46.9670 C.3    10  ILE10       0.0001
      9  N         94.9210   82.7990  -42.1710 N.am   11  GLY11      -0.1718
     10  CA        95.0410   81.4890  -41.5550 C.2    11  GLY11       0.1480
     11  C         96.4420   80.9200  -41.4770 C.2    11  GLY11       0.2820
     12  O         97.3970   81.5170  -41.9700 O.2    11  GLY11      -0.2669
     13  N         96.5620   79.7660  -40.8280 N.am   12  GLU12      -0.1929
     14  CA        97.8440   79.0830  -40.7010 C.3    12  GLU12       0.1736
     15  C         97.7800   77.8710  -41.6180 C.2    12  GLU12       0.2617
     16  O         97.0140   76.9370  -41.3700 O.2    12  GLU12      -0.2715
     17  CB        98.0820   78.6120  -39.2610 C.3    12  GLU12       0.0429
     18  CG        98.1330   79.7100  -38.2020 C.3    12  GLU12       0.1163
     19  CD        99.3180   80.6510  -38.3640 C.2    12  GLU12       0.3649
     20  OE1      100.3750   80.2130  -38.8710 O.co2  12  GLU12      -0.2457
     21  OE2       99.1950   81.8300  -37.9620 O.co2  12  GLU12      -0.2457
     22  N         98.5710   77.8870  -42.6830 N.am   13  GLY13      -0.1940
     23  CA        98.5660   76.7680  -43.6040 C.3    13  GLY13       0.2014
     24  C         99.5830   75.7150  -43.2150 C.2    13  GLY13       0.2639
     25  O        100.3480   75.9000  -42.2740 O.2    13  GLY13      -0.2714
     26  N         99.5980   74.6090  -43.9450 N.am   14  THR14      -0.1950
     27  CA       100.5340   73.5280  -43.6780 C.3    14  THR14       0.1897
     28  C        101.9850   73.9930  -43.6780 C.2    14  THR14       0.2313
     29  O        102.8010   73.4890  -42.9000 O.2    14  THR14      -0.2863
     30  CB       100.3970   72.4200  -44.7310 C.3    14  THR14       0.1794
     31  OG1       99.0450   71.9500  -44.7480 O.3    14  THR14      -0.2208
     32  CG2      101.3430   71.2580  -44.4170 C.3    14  THR14       0.0378
     33  N         99.1950   82.3140  -44.0920 N.3    18  VAL18      -0.1245
     34  CA        98.5700   82.6770  -45.3720 C.3    18  VAL18       0.1561
     35  C         97.8720   84.0180  -45.1740 C.2    18  VAL18       0.2260
     36  O         97.1200   84.2000  -44.2190 O.2    18  VAL18      -0.2867
     37  CB        97.5030   81.6600  -45.8280 C.3    18  VAL18       0.0252
     38  CG1       96.9040   82.1110  -47.1660 C.3    18  VAL18       0.0019
     39  CG2       98.1260   80.2800  -45.9840 C.3    18  VAL18       0.0019
     40  N         95.8070   85.1230  -52.4030 N.3    31  ALA31      -0.1245
     41  CA        96.0990   84.4370  -51.1510 C.3    31  ALA31       0.1562
     42  C         97.6140   84.2760  -51.2220 C.2    31  ALA31       0.2260
     43  O         98.1320   83.5630  -52.0810 O.2    31  ALA31      -0.2867
     44  CB        95.4330   83.0710  -51.0950 C.3    31  ALA31       0.0290
     45  N        100.9690   82.8960  -49.6120 N.3    33  LYS33      -0.1245
     46  CA       101.4200   81.8920  -48.6480 C.3    33  LYS33       0.1561
     47  C        102.9150   81.9280  -48.4120 C.2    33  LYS33       0.2260
     48  O        103.6820   81.7040  -49.3410 O.2    33  LYS33      -0.2867
     49  CB       101.0400   80.4930  -49.1440 C.3    33  LYS33       0.0271
     50  CG        99.5830   80.4060  -49.5740 C.3    33  LYS33       0.0035
     51  CD        99.1090   78.9650  -49.6720 C.3    33  LYS33       0.0206
     52  CE        97.6600   78.9230  -50.1350 C.3    33  LYS33       0.1093
     53  NZ        97.0820   77.5420  -50.1120 N.3    33  LYS33      -0.1314
     54  N         92.6000   75.6470  -57.6890 N.3    56  VAL56      -0.1245
     55  CA        92.9410   77.0340  -57.3370 C.3    56  VAL56       0.1561
     56  C         94.2520   77.3290  -58.0570 C.2    56  VAL56       0.2260
     57  O         95.2540   76.6460  -57.8610 O.2    56  VAL56      -0.2867
     58  CB        93.1280   77.1890  -55.8040 C.3    56  VAL56       0.0252
     59  CG1       93.5720   78.6240  -55.4470 C.3    56  VAL56       0.0019
     60  CG2       91.8120   76.8720  -55.1080 C.3    56  VAL56       0.0019
     61  N         98.5050   82.4960  -54.7320 N.3    72  PHE72      -0.1227
     62  CA        97.3610   81.7300  -55.2110 C.3    72  PHE72       0.1736
     63  C         96.1540   82.6130  -55.5060 C.2    72  PHE72       0.2595
     64  O         95.9980   83.6860  -54.9270 O.2    72  PHE72      -0.2718
     65  CB        96.9450   80.7120  -54.1370 C.3    72  PHE72       0.0547
     66  CG        97.7570   79.4410  -54.1340 C.ar   72  PHE72      -0.0202
     67  CD1       97.3630   78.3490  -54.9110 C.ar   72  PHE72      -0.0042
     68  CD2       98.8870   79.3160  -53.3240 C.ar   72  PHE72      -0.0042
     69  CE1       98.0800   77.1460  -54.8770 C.ar   72  PHE72      -0.0003
     70  CE2       99.6120   78.1170  -53.2830 C.ar   72  PHE72      -0.0003
     71  CZ        99.2090   77.0340  -54.0560 C.ar   72  PHE72      -0.0000
     72  N         95.2870   82.1550  -56.4040 N.am   73  GLU73      -0.1965
     73  CA        94.0680   82.9140  -56.6810 C.3    73  GLU73       0.1733
     74  C         93.2680   82.9000  -55.3730 C.2    73  GLU73       0.2616
     75  O         93.3030   81.9260  -54.6130 O.2    73  GLU73      -0.2715
     76  CB        93.2710   82.2830  -57.8370 C.3    73  GLU73       0.0429
     77  CG        92.3380   81.1670  -57.4700 C.3    73  GLU73       0.1163
     78  CD        91.4740   80.7110  -58.6440 C.2    73  GLU73       0.3649
     79  OE1       90.4000   81.3150  -58.9030 O.co2  73  GLU73      -0.2457
     80  OE2       91.8790   79.7490  -59.3120 O.co2  73  GLU73      -0.2457
     81  N         92.5760   84.0000  -55.0950 N.am   74  PHE74      -0.1960
     82  CA        91.8180   84.1350  -53.8650 C.3    74  PHE74       0.1771
     83  C         90.3520   83.7680  -54.0490 C.2    74  PHE74       0.2619
     84  O         89.7420   84.1600  -55.0450 O.2    74  PHE74      -0.2715
     85  CB        91.9170   85.5950  -53.3700 C.3    74  PHE74       0.0574
     86  CG        91.1580   85.8710  -52.1010 C.ar   74  PHE74      -0.0200
     87  CD1       89.8430   86.3280  -52.1370 C.ar   74  PHE74      -0.0042
     88  CD2       91.7470   85.6330  -50.8600 C.ar   74  PHE74      -0.0042
     89  CE1       89.1230   86.5400  -50.9510 C.ar   74  PHE74      -0.0003
     90  CE2       91.0440   85.8380  -49.6800 C.ar   74  PHE74      -0.0003
     91  CZ        89.7240   86.2920  -49.7230 C.ar   74  PHE74      -0.0000
     92  N         89.8010   83.0050  -53.1050 N.am   75  LEU75      -0.1963
     93  CA        88.3760   82.6700  -53.1330 C.3    75  LEU75       0.1728
     94  C         87.8150   83.1300  -51.7930 C.2    75  LEU75       0.2616
     95  O         88.5380   83.2000  -50.8030 O.2    75  LEU75      -0.2715
     96  CB        88.1260   81.1670  -53.3690 C.3    75  LEU75       0.0311
     97  CG        88.2050   80.8070  -54.8600 C.3    75  LEU75       0.0022
     98  CD1       89.6100   80.3710  -55.2040 C.3    75  LEU75       0.0001
     99  CD2       87.2240   79.6960  -55.1870 C.3    75  LEU75       0.0001
    100  N         86.5260   83.4460  -51.7430 N.am   76  HIS76      -0.1959
    101  CA        85.9680   83.9890  -50.5060 C.3    76  HIS76       0.1787
    102  C         85.5310   83.0900  -49.3800 C.2    76  HIS76       0.2620
    103  O         85.2430   83.5840  -48.2850 O.2    76  HIS76      -0.2715
    104  CB        84.8240   84.9540  -50.8250 C.3    76  HIS76       0.0785
    105  CG        85.2870   86.2610  -51.3800 C.ar   76  HIS76       0.0821
    106  ND1       85.6750   86.4130  -52.6930 N.ar   76  HIS76      -0.2267
    107  CD2       85.4850   87.4620  -50.7830 C.ar   76  HIS76       0.1154
    108  CE1       86.0960   87.6520  -52.8810 C.ar   76  HIS76       0.1986
    109  NE2       85.9920   88.3080  -51.7380 N.ar   76  HIS76      -0.2212
    110  N         85.4770   81.7820  -49.6070 N.am   77  GLN77      -0.1963
    111  CA        85.0610   80.9010  -48.5240 C.3    77  GLN77       0.1733
    112  C         85.6580   79.5220  -48.7340 C.2    77  GLN77       0.2616
    113  O         85.9960   79.1790  -49.8590 O.2    77  GLN77      -0.2715
    114  CB        83.5340   80.8220  -48.4430 C.3    77  GLN77       0.0408
    115  CG        83.0320   80.2780  -47.1050 C.3    77  GLN77       0.0908
    116  CD        81.6200   80.7270  -46.7840 C.2    77  GLN77       0.2608
    117  OE1       81.3630   81.9170  -46.5810 O.2    77  GLN77      -0.2717
    118  NE2       80.6970   79.7830  -46.7430 N.am   77  GLN77      -0.0878
    119  N         85.8340   78.7610  -47.6520 N.am   78  ASP78      -0.1971
    120  CA        86.3250   77.3920  -47.7880 C.3    78  ASP78       0.1709
    121  C         85.2010   76.4580  -47.3630 C.2    78  ASP78       0.2293
    122  O         84.2080   76.8990  -46.7820 O.2    78  ASP78      -0.2864
    123  CB        87.6140   77.1110  -46.9860 C.3    78  ASP78       0.1436
    124  CG        87.4380   77.1890  -45.4760 C.2    78  ASP78       0.3671
    125  OD1       86.3670   76.8540  -44.9470 O.co2  78  ASP78      -0.2456
    126  OD2       88.4190   77.5680  -44.8050 O.co2  78  ASP78      -0.2456
    127  N         84.3020   76.2180  -43.4200 N.3    81  LYS81      -0.1245
    128  CA        83.4110   77.2570  -42.9150 C.3    81  LYS81       0.1561
    129  C         82.0120   77.1360  -43.4970 C.2    81  LYS81       0.2260
    130  O         81.0250   77.3570  -42.7870 O.2    81  LYS81      -0.2867
    131  CB        84.0000   78.6440  -43.2030 C.3    81  LYS81       0.0271
    132  CG        85.3340   78.8660  -42.5270 C.3    81  LYS81       0.0035
    133  CD        85.9350   80.2070  -42.9140 C.3    81  LYS81       0.0206
    134  CE        87.3500   80.3430  -42.3880 C.3    81  LYS81       0.1093
    135  NZ        87.3870   80.4100  -40.8990 N.3    81  LYS81      -0.1314
    136  N         91.5810   68.4050  -47.4560 N.3   121  LYS121     -0.1245
    137  CA        90.7450   68.6120  -46.2800 C.3   121  LYS121      0.1561
    138  C         89.8330   69.8020  -46.5800 C.2   121  LYS121      0.2260
    139  O         90.1110   70.5930  -47.4760 O.2   121  LYS121     -0.2867
    140  CB        91.6090   68.8810  -45.0390 C.3   121  LYS121      0.0271
    141  CG        92.6340   69.9690  -45.2070 C.3   121  LYS121      0.0035
    142  CD        93.6580   69.9040  -44.0690 C.3   121  LYS121      0.0206
    143  CE        94.9350   70.6360  -44.4390 C.3   121  LYS121      0.1093
    144  NZ        95.9480   70.5210  -43.3470 N.3   121  LYS121     -0.1314
    145  N         89.5150   72.6080  -45.3820 N.3   123  GLN123     -0.1231
    146  CA        90.2290   73.8860  -45.3670 C.3   123  GLN123      0.1698
    147  C         90.8630   74.2490  -46.7130 C.2   123  GLN123      0.2592
    148  O         91.0020   75.4400  -47.0220 O.2   123  GLN123     -0.2718
    149  CB        91.3060   73.8770  -44.2670 C.3   123  GLN123      0.0381
    150  CG        92.0450   75.2120  -44.0810 C.3   123  GLN123      0.0905
    151  CD        93.0860   75.1480  -42.9660 C.2   123  GLN123      0.2608
    152  OE1       93.5540   74.0650  -42.6040 O.2   123  GLN123     -0.2717
    153  NE2       93.4670   76.3100  -42.4330 N.am  123  GLN123     -0.0878
    154  N         91.2660   73.2560  -47.5160 N.am  124  ASN124     -0.1974
    155  CA        91.8500   73.5970  -48.8070 C.3   124  ASN124      0.1688
    156  C         90.9350   73.3760  -50.0080 C.2   124  ASN124      0.2292
    157  O         91.3880   73.2700  -51.1550 O.2   124  ASN124     -0.2864
    158  CB        93.2410   72.9580  -49.0270 C.3   124  ASN124      0.1181
    159  CG        93.2680   71.4690  -48.8030 C.2   124  ASN124      0.2629
    160  OD1       92.3500   70.7510  -49.1920 O.2   124  ASN124     -0.2716
    161  ND2       94.3570   70.9870  -48.1960 N.am  124  ASN124     -0.0877
    162  N         88.0970   75.3750  -51.7430 N.3   126  LEU126     -0.1245
    163  CA        87.6030   76.7530  -51.7680 C.3   126  LEU126      0.1561
    164  C         86.3780   76.9200  -52.6560 C.2   126  LEU126      0.2260
    165  O         86.3020   76.3190  -53.7060 O.2   126  LEU126     -0.2867
    166  CB        88.7100   77.6830  -52.2800 C.3   126  LEU126      0.0270
    167  CG        89.9530   77.9660  -51.4240 C.3   126  LEU126      0.0019
    168  CD1       89.5260   78.6730  -50.1430 C.3   126  LEU126      0.0001
    169  CD2       90.7050   76.6980  -51.1040 C.3   126  LEU126      0.0001
    170  N         93.0050   73.5650  -53.5490 N.3   136  ALA136     -0.1231
    171  CA        94.2620   74.3040  -53.4580 C.3   136  ALA136      0.1694
    172  C         95.3430   73.4040  -52.8880 C.2   136  ALA136      0.2592
    173  O         95.0360   72.4800  -52.1480 O.2   136  ALA136     -0.2718
    174  CB        94.0880   75.5080  -52.5470 C.3   136  ALA136      0.0304
    175  N         96.5930   73.6790  -53.2610 N.am  137  ASP137     -0.1974
    176  CA        97.7840   72.9880  -52.7540 C.3   137  ASP137      0.1709
    177  C         98.1840   71.6320  -53.3380 C.2   137  ASP137      0.2293
    178  O         99.0090   70.9160  -52.7570 O.2   137  ASP137     -0.2864
    179  CB        97.7210   72.9310  -51.2140 C.3   137  ASP137      0.1436
    180  CG        97.7960   74.3200  -50.5700 C.2   137  ASP137      0.3671
    181  OD1       98.0020   75.3210  -51.3050 O.co2 137  ASP137     -0.2456
    182  OD2       97.6460   74.4250  -49.3250 O.co2 137  ASP137     -0.2456
@<TRIPOS>BOND
     1    80    78   ar
     2    79    78   ar
     3    78    77    1
     4    56    57    2
     5    56    55    1
     6    76    77    1
     7    76    73    1
     8    54    55    1
     9    55    58    1
    10    73    72    1
    11    73    74    1
    12    72    63   am
    13    58    59    1
    14    58    60    1
    15    63    62    1
    16    63    64    2
    17    74    81   am
    18    74    75    2
    19    62    61    1
    20    62    65    1
    21    98    97    1
    22    99    97    1
    23    81    82    1
    24    84    83    2
    25    67    69   ar
    26    67    66   ar
    27    69    71   ar
    28    97    96    1
    29    65    66    1
    30    66    68   ar
    31    71    70   ar
    32    83    82    1
    33    83    92   am
    34    82    85    1
    35   165   164    2
    36   170   171    1
    37   171   172    1
    38   171   174    1
    39    85    86    1
    40    96    93    1
    41   177   178    2
    42   177   176    1
    43    68    70   ar
    44   175   172   am
    45   175   176    1
    46    93    92    1
    47    93    94    1
    48   172   173    2
    49   108   106   ar
    50   108   109   ar
    51   176   179    1
    52   106   105   ar
    53   164   163    1
    54    40    41    1
    55   166   163    1
    56   166   167    1
    57    87    86   ar
    58    87    89   ar
    59    86    88   ar
    60    43    42    2
    61    94   100   am
    62    94    95    2
    63   163   162    1
    64   100   101    1
    65   109   107   ar
    66   167   169    1
    67   167   168    1
    68   105   104    1
    69   105   107   ar
    70   181   180   ar
    71    42    41    1
    72   179   180    1
    73   157   156    2
    74    41    44    1
    75    89    91   ar
    76    88    90   ar
    77   104   101    1
    78   180   182   ar
    79   101   102    1
    80    52    53    1
    81    52    51    1
    82   156   155    1
    83   113   112    2
    84    91    90   ar
    85    51    50    1
    86    45    46    1
    87   110   102   am
    88   110   111    1
    89    50    49    1
    90   102   103    2
    91    48    47    2
    92   160   159    2
    93    49    46    1
    94   158   155    1
    95   158   159    1
    96   155   154    1
    97   159   161   am
    98   112   111    1
    99   112   119   am
   100    46    47    1
   101   111   114    1
   102   114   115    1
   103   120   119    1
   104   120   121    1
   105   120   123    1
   106   154   147   am
   107   139   138    2
   108   136   137    1
   109   121   122    2
   110    38    37    1
   111   115   116    1
   112   148   147    2
   113   123   124    1
   114     8     6    1
   115   116   118   am
   116   116   117    2
   117   147   146    1
   118   138   137    1
   119   137   140    1
   120    39    37    1
   121    37    34    1
   122     6     5    1
   123   124   125   ar
   124   124   126   ar
   125   145   146    1
   126    34    35    1
   127    34    33    1
   128   146   149    1
   129   141   140    1
   130   141   142    1
   131    35    36    2
   132     7     5    1
   133    31    30    1
   134    30    32    1
   135    30    27    1
   136     5     2    1
   137   143   142    1
   138   143   144    1
   139   149   150    1
   140   150   151    1
   141    26    27    1
   142    26    24   am
   143    28    27    1
   144    28    29    2
   145    23    24    1
   146    23    22    1
   147   129   128    1
   148   129   130    2
   149   127   128    1
   150    24    25    2
   151   131   128    1
   152   131   132    1
   153     2     1    1
   154     2     3    1
   155   151   152    2
   156   151   153   am
   157   133   132    1
   158   133   134    1
   159    22    15   am
   160     3     9    1
   161     3     4    2
   162   134   135    1
   163     9    10    2
   164    12    11    2
   165    15    16    2
   166    15    14    1
   167    10    11    1
   168    11    13   am
   169    13    14    1
   170    14    17    1
   171    17    18    1
   172    20    19   ar
   173    19    18    1
   174    19    21   ar
