@<TRIPOS>MOLECULE
tmp/3r9oA00.pdb
 187 176 0 0 0
SMALL
GASTEIGER

@<TRIPOS>ATOM
      1  N        -67.4430  -85.2280   -6.8030 N.3    10  ILE10      -0.1245
      2  CA       -66.2830  -84.4040   -7.1170 C.3    10  ILE10       0.1561
      3  C        -66.4530  -82.9370   -6.7570 C.2    10  ILE10       0.2260
      4  O        -65.7290  -82.0760   -7.2630 O.2    10  ILE10      -0.2867
      5  CB       -65.8910  -84.5180   -8.6100 C.3    10  ILE10       0.0252
      6  CG1      -67.0350  -84.0370   -9.5010 C.3    10  ILE10       0.0019
      7  CG2      -65.5380  -85.9580   -8.9440 C.3    10  ILE10       0.0019
      8  CD1      -66.7080  -84.0840  -10.9810 C.3    10  ILE10       0.0001
      9  N        -69.2800  -79.5500   -5.2430 N.3    12  GLU12      -0.1231
     10  CA       -70.5990  -78.9760   -5.0160 C.3    12  GLU12       0.1699
     11  C        -70.9550  -78.0160   -6.1450 C.2    12  GLU12       0.2592
     12  O        -70.2430  -77.9200   -7.1470 O.2    12  GLU12      -0.2718
     13  CB       -70.6250  -78.2200   -3.6820 C.3    12  GLU12       0.0402
     14  CG       -70.1480  -79.0340   -2.4820 C.3    12  GLU12       0.1161
     15  CD       -70.9970  -80.2690   -2.2330 C.2    12  GLU12       0.3649
     16  OE1      -72.2220  -80.1150   -2.0390 O.co2  12  GLU12      -0.2457
     17  OE2      -70.4400  -81.3920   -2.2280 O.co2  12  GLU12      -0.2457
     18  N        -72.0630  -77.3090   -5.9660 N.am   13  GLY13      -0.1957
     19  CA       -72.5150  -76.3520   -6.9560 C.3    13  GLY13       0.1869
     20  C        -73.5570  -75.4540   -6.3220 C.2    13  GLY13       0.2309
     21  O        -74.1090  -75.7910   -5.2730 O.2    13  GLY13      -0.2863
     22  N        -72.0260  -82.2730   -7.9010 N.3    18  VAL18      -0.1245
     23  CA       -71.5200  -82.9250   -9.0990 C.3    18  VAL18       0.1561
     24  C        -70.7860  -84.2250   -8.7580 C.2    18  VAL18       0.2260
     25  O        -69.9990  -84.2890   -7.8110 O.2    18  VAL18      -0.2867
     26  CB       -70.6030  -81.9690   -9.9000 C.3    18  VAL18       0.0252
     27  CG1      -69.4230  -81.5450   -9.0560 C.3    18  VAL18       0.0019
     28  CG2      -70.1490  -82.6300  -11.1780 C.3    18  VAL18       0.0019
     29  N        -69.0570  -86.0700  -15.7990 N.3    31  ALA31      -0.1245
     30  CA       -69.3220  -85.3200  -14.5810 C.3    31  ALA31       0.1562
     31  C        -70.8340  -85.1700  -14.6340 C.2    31  ALA31       0.2260
     32  O        -71.3660  -84.6430  -15.6060 O.2    31  ALA31      -0.2867
     33  CB       -68.6850  -83.9720  -14.6440 C.3    31  ALA31       0.0290
     34  N        -74.1960  -83.5540  -13.0020 N.3    33  LYS33      -0.1245
     35  CA       -74.6930  -82.5250  -12.1090 C.3    33  LYS33       0.1561
     36  C        -76.1930  -82.6830  -11.8790 C.2    33  LYS33       0.2260
     37  O        -76.9840  -82.5540  -12.8060 O.2    33  LYS33      -0.2867
     38  CB       -74.3990  -81.1590  -12.7120 C.3    33  LYS33       0.0271
     39  CG       -73.9670  -80.1360  -11.7040 C.3    33  LYS33       0.0035
     40  CD       -75.1130  -79.4370  -11.0350 C.3    33  LYS33       0.0206
     41  CE       -74.5620  -78.3020  -10.1760 C.3    33  LYS33       0.1093
     42  NZ       -75.6040  -77.3570   -9.6980 N.3    33  LYS33      -0.1314
     43  N        -66.3940  -76.2430  -21.0220 N.3    56  VAL56      -0.1245
     44  CA       -66.6930  -77.6520  -20.7440 C.3    56  VAL56       0.1561
     45  C        -67.9470  -78.0480  -21.5540 C.2    56  VAL56       0.2260
     46  O        -68.9910  -77.3830  -21.4910 O.2    56  VAL56      -0.2867
     47  CB       -66.9260  -77.8790  -19.2180 C.3    56  VAL56       0.0252
     48  CG1      -67.3470  -79.3160  -18.9450 C.3    56  VAL56       0.0019
     49  CG2      -65.6430  -77.6110  -18.4690 C.3    56  VAL56       0.0019
     50  N        -77.4720  -82.8250  -15.6080 N.3    70  LEU70      -0.1245
     51  CA       -76.6550  -82.3010  -16.6860 C.3    70  LEU70       0.1561
     52  C        -75.4240  -83.1960  -16.7480 C.2    70  LEU70       0.2260
     53  O        -74.7770  -83.4390  -15.7310 O.2    70  LEU70      -0.2867
     54  CB       -76.2650  -80.8510  -16.3860 C.3    70  LEU70       0.0270
     55  CG       -77.4360  -79.8690  -16.3360 C.3    70  LEU70       0.0019
     56  CD1      -76.9130  -78.4660  -16.0200 C.3    70  LEU70       0.0001
     57  CD2      -78.1650  -79.8790  -17.6800 C.3    70  LEU70       0.0001
     58  N        -71.7800  -83.6300  -18.2670 N.3    72  PHE72      -0.1227
     59  CA       -70.6880  -82.8700  -18.8540 C.3    72  PHE72       0.1736
     60  C        -69.4810  -83.7580  -19.0990 C.2    72  PHE72       0.2595
     61  O        -69.2980  -84.7890  -18.4520 O.2    72  PHE72      -0.2718
     62  CB       -70.2430  -81.7650  -17.8980 C.3    72  PHE72       0.0547
     63  CG       -71.2680  -80.7040  -17.6590 C.ar   72  PHE72      -0.0202
     64  CD1      -71.4230  -79.6540  -18.5530 C.ar   72  PHE72      -0.0042
     65  CD2      -72.0700  -80.7500  -16.5320 C.ar   72  PHE72      -0.0042
     66  CE1      -72.3710  -78.6460  -18.3270 C.ar   72  PHE72      -0.0003
     67  CE2      -73.0180  -79.7600  -16.2910 C.ar   72  PHE72      -0.0003
     68  CZ       -73.1680  -78.6960  -17.2000 C.ar   72  PHE72      -0.0000
     69  N        -68.6500  -83.3400  -20.0390 N.am   73  GLU73      -0.1965
     70  CA       -67.4290  -84.0780  -20.3230 C.3    73  GLU73       0.1733
     71  C        -66.6600  -83.9300  -19.0080 C.2    73  GLU73       0.2616
     72  O        -66.7610  -82.8990  -18.3350 O.2    73  GLU73      -0.2715
     73  CB       -66.6730  -83.4140  -21.4760 C.3    73  GLU73       0.0429
     74  CG       -66.3110  -81.9560  -21.1990 C.3    73  GLU73       0.1163
     75  CD       -65.3050  -81.3820  -22.1840 C.2    73  GLU73       0.3649
     76  OE1      -64.2930  -82.0450  -22.4780 O.co2  73  GLU73      -0.2457
     77  OE2      -65.5140  -80.2600  -22.6610 O.co2  73  GLU73      -0.2457
     78  N        -65.9050  -84.9470  -18.6370 N.am   74  PHE74      -0.1960
     79  CA       -65.1730  -84.9430  -17.3770 C.3    74  PHE74       0.1771
     80  C        -63.7570  -84.4160  -17.5430 C.2    74  PHE74       0.2619
     81  O        -63.0180  -84.8750  -18.4160 O.2    74  PHE74      -0.2715
     82  CB       -65.1330  -86.3700  -16.8170 C.3    74  PHE74       0.0574
     83  CG       -64.3450  -86.5160  -15.5440 C.ar   74  PHE74      -0.0200
     84  CD1      -63.0250  -86.9570  -15.5770 C.ar   74  PHE74      -0.0042
     85  CD2      -64.9330  -86.2210  -14.3070 C.ar   74  PHE74      -0.0042
     86  CE1      -62.2930  -87.1090  -14.4050 C.ar   74  PHE74      -0.0003
     87  CE2      -64.2150  -86.3670  -13.1210 C.ar   74  PHE74      -0.0003
     88  CZ       -62.8950  -86.8110  -13.1680 C.ar   74  PHE74      -0.0000
     89  N        -63.3980  -83.4330  -16.7280 N.am   75  LEU75      -0.1963
     90  CA       -62.0490  -82.9040  -16.7760 C.3    75  LEU75       0.1728
     91  C        -61.3170  -83.3940  -15.5470 C.2    75  LEU75       0.2616
     92  O        -61.9030  -83.6800  -14.5090 O.2    75  LEU75      -0.2715
     93  CB       -62.0380  -81.3720  -16.8980 C.3    75  LEU75       0.0311
     94  CG       -61.9650  -81.0760  -18.4030 C.3    75  LEU75       0.0022
     95  CD1      -63.3780  -80.9050  -18.9370 C.3    75  LEU75       0.0001
     96  CD2      -61.1060  -79.8570  -18.6920 C.3    75  LEU75       0.0001
     97  N        -60.0110  -83.4710  -15.7010 N.am   76  HIS76      -0.1959
     98  CA       -59.0940  -83.9940  -14.7270 C.3    76  HIS76       0.1787
     99  C        -58.9540  -83.3300  -13.3540 C.2    76  HIS76       0.2620
    100  O        -58.8900  -84.0190  -12.3400 O.2    76  HIS76      -0.2715
    101  CB       -57.7170  -84.0810  -15.4160 C.3    76  HIS76       0.0785
    102  CG       -57.7700  -84.6180  -16.8260 C.ar   76  HIS76       0.0821
    103  ND1      -56.6580  -84.6990  -17.6450 N.ar   76  HIS76      -0.2267
    104  CD2      -58.8050  -85.1070  -17.5540 C.ar   76  HIS76       0.1154
    105  CE1      -57.0070  -85.2130  -18.8120 C.ar   76  HIS76       0.1986
    106  NE2      -58.3050  -85.4720  -18.7830 N.ar   76  HIS76      -0.2212
    107  N        -58.9350  -82.0030  -13.3080 N.am   77  GLN77      -0.1963
    108  CA       -58.6880  -81.3080  -12.0360 C.3    77  GLN77       0.1733
    109  C        -59.2140  -79.8880  -12.1420 C.2    77  GLN77       0.2616
    110  O        -59.4090  -79.4010  -13.2600 O.2    77  GLN77      -0.2715
    111  CB       -57.1710  -81.2710  -11.8160 C.3    77  GLN77       0.0408
    112  CG       -56.6800  -80.7060  -10.4840 C.3    77  GLN77       0.0908
    113  CD       -55.2600  -81.1480  -10.1720 C.2    77  GLN77       0.2608
    114  OE1      -55.0090  -82.3210   -9.8250 O.2    77  GLN77      -0.2717
    115  NE2      -54.3230  -80.2280  -10.3020 N.am   77  GLN77      -0.0878
    116  N        -59.4800  -79.2370  -11.0050 N.am   78  ASP78      -0.1971
    117  CA       -59.9230  -77.8420  -11.0810 C.3    78  ASP78       0.1709
    118  C        -58.7680  -76.9050  -10.7430 C.2    78  ASP78       0.2293
    119  O        -57.7570  -77.3260  -10.2000 O.2    78  ASP78      -0.2864
    120  CB       -61.1680  -77.5510  -10.2190 C.3    78  ASP78       0.1436
    121  CG       -60.9470  -77.7300   -8.7120 C.2    78  ASP78       0.3671
    122  OD1      -59.9690  -77.1910   -8.1370 O.co2  78  ASP78      -0.2456
    123  OD2      -61.8000  -78.3980   -8.0970 O.co2  78  ASP78      -0.2456
    124  N        -57.6120  -76.6320   -6.9220 N.3    81  LYS81      -0.1245
    125  CA       -56.7330  -77.7040   -6.4820 C.3    81  LYS81       0.1561
    126  C        -55.3270  -77.5240   -7.0370 C.2    81  LYS81       0.2260
    127  O        -54.3340  -77.6940   -6.3200 O.2    81  LYS81      -0.2867
    128  CB       -57.2910  -79.0680   -6.9170 C.3    81  LYS81       0.0271
    129  CG       -56.3360  -80.2230   -6.6170 C.3    81  LYS81       0.0035
    130  CD       -57.0920  -81.5380   -6.5900 C.3    81  LYS81       0.0206
    131  CE       -56.2570  -82.6540   -6.0070 C.3    81  LYS81       0.1093
    132  NZ       -57.0800  -83.8910   -5.8510 N.3    81  LYS81      -0.1314
    133  N        -64.9180  -68.7050  -10.7810 N.3   121  LYS121     -0.1245
    134  CA       -64.1070  -68.9280   -9.5810 C.3   121  LYS121      0.1561
    135  C        -63.1850  -70.1140   -9.8730 C.2   121  LYS121      0.2260
    136  O        -63.5290  -70.9650  -10.6980 O.2   121  LYS121     -0.2867
    137  CB       -64.9770  -69.1850   -8.3370 C.3   121  LYS121      0.0271
    138  CG       -65.9830  -70.2900   -8.4460 C.3   121  LYS121      0.0035
    139  CD       -66.9590  -70.2070   -7.2690 C.3   121  LYS121      0.0206
    140  CE       -68.0670  -71.2200   -7.3810 C.3   121  LYS121      0.1093
    141  NZ       -69.1160  -70.9240   -6.3590 N.3   121  LYS121     -0.1314
    142  N        -62.6060  -72.9100   -8.5270 N.3   123  GLN123     -0.1231
    143  CA       -63.2540  -74.2160   -8.4440 C.3   123  GLN123      0.1698
    144  C        -63.9960  -74.6210   -9.6970 C.2   123  GLN123      0.2592
    145  O        -64.1440  -75.8230   -9.9300 O.2   123  GLN123     -0.2718
    146  CB       -64.2300  -74.2780   -7.2750 C.3   123  GLN123      0.0381
    147  CG       -63.5700  -74.1050   -5.9480 C.3   123  GLN123      0.0905
    148  CD       -64.5290  -73.5470   -4.9280 C.2   123  GLN123      0.2608
    149  OE1      -64.1350  -73.2150   -3.8040 O.2   123  GLN123     -0.2717
    150  NE2      -65.8070  -73.4360   -5.3120 N.am  123  GLN123     -0.0878
    151  N        -64.4980  -73.6580  -10.4780 N.am  124  ASN124     -0.1974
    152  CA       -65.1940  -74.0320  -11.7070 C.3   124  ASN124      0.1688
    153  C        -64.4380  -73.7640  -13.0140 C.2   124  ASN124      0.2292
    154  O        -65.0390  -73.6070  -14.0680 O.2   124  ASN124     -0.2864
    155  CB       -66.6760  -73.5200  -11.7780 C.3   124  ASN124      0.1181
    156  CG       -66.8490  -71.9930  -11.8000 C.2   124  ASN124      0.2629
    157  OD1      -66.0600  -71.2360  -12.4120 O.2   124  ASN124     -0.2716
    158  ND2      -67.9720  -71.5280  -11.1740 N.am  124  ASN124     -0.0877
    159  N        -61.6750  -75.7150  -15.1270 N.3   126  LEU126     -0.1245
    160  CA       -61.1450  -77.0730  -15.1420 C.3   126  LEU126      0.1561
    161  C        -59.9960  -77.2460  -16.1040 C.2   126  LEU126      0.2260
    162  O        -60.0070  -76.6830  -17.1760 O.2   126  LEU126     -0.2867
    163  CB       -62.2670  -78.0410  -15.5000 C.3   126  LEU126      0.0270
    164  CG       -63.5140  -77.8120  -14.6410 C.3   126  LEU126      0.0019
    165  CD1      -64.6250  -78.7310  -15.1020 C.3   126  LEU126      0.0001
    166  CD2      -63.1600  -78.0760  -13.1550 C.3   126  LEU126      0.0001
    167  N        -66.5240  -73.9770  -16.6180 N.3   136  ALA136     -0.1231
    168  CA       -67.5870  -74.9000  -16.2160 C.3   136  ALA136      0.1694
    169  C        -68.6060  -74.1300  -15.3740 C.2   136  ALA136      0.2592
    170  O        -68.3640  -72.9920  -14.9820 O.2   136  ALA136     -0.2718
    171  CB       -67.0110  -76.0450  -15.3880 C.3   136  ALA136      0.0304
    172  N        -69.7530  -74.7440  -15.1040 N.am  137  ASP137     -0.1974
    173  CA       -70.7640  -74.1080  -14.2570 C.3   137  ASP137      0.1709
    174  C        -71.1100  -72.6920  -14.6180 C.2   137  ASP137      0.2293
    175  O        -70.7290  -71.7700  -13.8990 O.2   137  ASP137     -0.2864
    176  CB       -70.2950  -74.0770  -12.8060 C.3   137  ASP137      0.1436
    177  CG       -71.3190  -73.4190  -11.8730 C.2   137  ASP137      0.3671
    178  OD1      -72.5340  -73.5930  -12.1070 O.co2 137  ASP137     -0.2456
    179  OD2      -70.9090  -72.7420  -10.9060 O.co2 137  ASP137     -0.2456
    180  N        -75.8430  -70.7450  -14.6110 N.3   140  LEU140     -0.1245
    181  CA       -77.1770  -71.0380  -15.1200 C.3   140  LEU140      0.1561
    182  C        -78.1880  -70.0200  -14.5790 C.2   140  LEU140      0.2260
    183  O        -79.4000  -70.2390  -14.6420 O.2   140  LEU140     -0.2867
    184  CB       -77.5890  -72.4660  -14.7330 C.3   140  LEU140      0.0270
    185  CG       -76.6740  -73.6170  -15.1780 C.3   140  LEU140      0.0019
    186  CD1      -75.4610  -73.7100  -14.2630 C.3   140  LEU140      0.0001
    187  CD2      -77.4460  -74.9210  -15.1330 C.3   140  LEU140      0.0001
@<TRIPOS>BOND
     1    77    75   ar
     2    76    75   ar
     3    75    74    1
     4    45    46    2
     5    45    44    1
     6    73    74    1
     7    73    70    1
     8    43    44    1
     9    44    47    1
    10    70    69    1
    11    70    71    1
    12    69    60   am
    13    47    48    1
    14    47    49    1
    15    60    59    1
    16    60    61    2
    17    71    78   am
    18    71    72    2
    19    95    94    1
    20    59    58    1
    21    59    62    1
    22   105   106   ar
    23   105   103   ar
    24   106   104   ar
    25    96    94    1
    26    78    79    1
    27    64    66   ar
    28    64    63   ar
    29    81    80    2
    30    94    93    1
    31    66    68   ar
    32    62    63    1
    33    57    55    1
    34    63    65   ar
    35   103   102   ar
    36   104   102   ar
    37    80    79    1
    38    80    89   am
    39    79    82    1
    40    68    67   ar
    41   162   161    2
    42    93    90    1
    43   102   101    1
    44    82    83    1
    45    90    89    1
    46    90    91    1
    47    52    51    1
    48    52    53    2
    49    51    54    1
    50    51    50    1
    51   167   168    1
    52    65    67   ar
    53    54    55    1
    54    55    56    1
    55   168   171    1
    56   168   169    1
    57   161   160    1
    58    29    30    1
    59    97    91   am
    60    97    98    1
    61    32    31    2
    62    84    83   ar
    63    84    86   ar
    64    91    92    2
    65    83    85   ar
    66   163   160    1
    67   163   164    1
    68   101    98    1
    69   169   172   am
    70   169   170    2
    71   185   187    1
    72   185   184    1
    73   185   186    1
    74   160   159    1
    75   181   184    1
    76   181   180    1
    77   181   182    1
    78   172   173    1
    79   165   164    1
    80    98    99    1
    81    33    30    1
    82   183   182    2
    83   164   166    1
    84    31    30    1
    85   174   173    1
    86   174   175    2
    87    86    88   ar
    88    85    87   ar
    89   173   176    1
    90   154   153    2
    91    99   107   am
    92    99   100    2
    93   107   108    1
    94   110   109    2
    95    88    87   ar
    96   153   152    1
    97    34    35    1
    98    37    36    2
    99   176   177    1
   100    38    35    1
   101    38    39    1
   102   157   156    2
   103   109   108    1
   104   109   116   am
   105    35    36    1
   106   178   177   ar
   107   108   111    1
   108   177   179   ar
   109   111   112    1
   110   156   155    1
   111   156   158   am
   112   155   152    1
   113   152   151    1
   114    39    40    1
   115    28    26    1
   116   117   116    1
   117   117   118    1
   118   117   120    1
   119    40    41    1
   120     8     6    1
   121   133   134    1
   122   118   119    2
   123   136   135    2
   124   112   113    1
   125   151   144   am
   126   115   113   am
   127   120   121    1
   128    41    42    1
   129   113   114    2
   130   145   144    2
   131    26    23    1
   132    26    27    1
   133   135   134    1
   134   144   143    1
   135   134   137    1
   136     6     5    1
   137    23    24    1
   138    23    22    1
   139     7     5    1
   140    24    25    2
   141   121   122   ar
   142   121   123   ar
   143     5     2    1
   144   142   143    1
   145   138   137    1
   146   138   139    1
   147   143   146    1
   148   140   139    1
   149   140   141    1
   150   146   147    1
   151     4     3    2
   152    12    11    2
   153     2     1    1
   154     2     3    1
   155   126   125    1
   156   126   127    2
   157    19    20    1
   158    19    18    1
   159   124   125    1
   160   128   129    1
   161   128   125    1
   162   129   130    1
   163   130   131    1
   164    20    21    2
   165    11    18   am
   166    11    10    1
   167   131   132    1
   168   147   148    1
   169   150   148   am
   170     9    10    1
   171    10    13    1
   172   148   149    2
   173    13    14    1
   174    14    15    1
   175    15    17   ar
   176    15    16   ar
