@<TRIPOS>MOLECULE
tmp/3r9pB00.pdb
 116 110 0 0 0
SMALL
GASTEIGER

@<TRIPOS>ATOM
      1  N         59.7140  -12.3930  -16.0390 N.3    74  VAL74      -0.1245
      2  CA        59.4430  -13.7610  -16.5090 C.3    74  VAL74       0.1561
      3  C         60.2500  -14.8100  -15.7410 C.2    74  VAL74       0.2260
      4  O         59.6870  -15.7830  -15.2360 O.2    74  VAL74      -0.2867
      5  CB        59.7040  -13.8780  -18.0190 C.3    74  VAL74       0.0252
      6  CG1       59.6470  -15.3510  -18.4810 C.3    74  VAL74       0.0019
      7  CG2       58.6840  -13.0430  -18.7950 C.3    74  VAL74       0.0019
      8  N         63.1000  -11.3180  -22.7370 N.3   104  HIS104     -0.1241
      9  CA        62.0590  -10.7880  -21.8500 C.3   104  HIS104      0.1621
     10  C         62.5530  -10.1570  -20.5630 C.2   104  HIS104      0.2264
     11  O         61.9610   -9.1960  -20.0940 O.2   104  HIS104     -0.2867
     12  CB        61.0590  -11.8850  -21.5180 C.3   104  HIS104      0.0745
     13  CG        60.1360  -12.2080  -22.6500 C.ar  104  HIS104      0.0817
     14  ND1       60.4320  -13.1600  -23.6020 N.ar  104  HIS104     -0.2268
     15  CD2       58.9320  -11.6920  -22.9910 C.ar  104  HIS104      0.1154
     16  CE1       59.4400  -13.2280  -24.4730 C.ar  104  HIS104      0.1986
     17  NE2       58.5190  -12.3470  -24.1250 N.ar  104  HIS104     -0.2212
     18  N         57.5290  -15.0450  -12.6820 N.3   129  ASP129     -0.1239
     19  CA        56.6090  -16.0290  -13.2490 C.3   129  ASP129      0.1674
     20  C         57.0880  -17.4700  -13.0340 C.2   129  ASP129      0.2266
     21  O         56.3040  -18.3970  -13.2100 O.2   129  ASP129     -0.2867
     22  CB        56.3850  -15.7360  -14.7350 C.3   129  ASP129      0.1410
     23  CG        55.0410  -16.2430  -15.2520 C.2   129  ASP129      0.3668
     24  OD1       54.0000  -16.0860  -14.5580 O.co2 129  ASP129     -0.2456
     25  OD2       55.0370  -16.7830  -16.3810 O.co2 129  ASP129     -0.2456
     26  N         56.7340  -21.9330  -15.8890 N.3   160  PHE160     -0.1227
     27  CA        56.2080  -20.5720  -16.0520 C.3   160  PHE160      0.1736
     28  C         54.6730  -20.5280  -15.9120 C.2   160  PHE160      0.2595
     29  O         54.0450  -21.5440  -15.6140 O.2   160  PHE160     -0.2718
     30  CB        56.7010  -20.0070  -17.3780 C.3   160  PHE160      0.0547
     31  CG        58.1970  -20.0400  -17.5220 C.ar  160  PHE160     -0.0202
     32  CD1       58.8400  -21.1850  -17.9530 C.ar  160  PHE160     -0.0042
     33  CD2       58.9620  -18.9230  -17.2230 C.ar  160  PHE160     -0.0042
     34  CE1       60.2080  -21.2360  -18.0700 C.ar  160  PHE160     -0.0003
     35  CE2       60.3450  -18.9590  -17.3570 C.ar  160  PHE160     -0.0003
     36  CZ        60.9730  -20.1320  -17.7790 C.ar  160  PHE160     -0.0000
     37  N         54.0760  -19.3520  -16.1080 N.am  161  HIS161     -0.1975
     38  CA        52.6870  -19.0980  -15.7180 C.3   161  HIS161      0.1656
     39  C         52.4540  -19.3930  -14.2220 C.2   161  HIS161      0.2291
     40  O         51.3620  -19.7770  -13.8220 O.2   161  HIS161     -0.2864
     41  CB        51.6820  -19.9130  -16.5610 C.3   161  HIS161      0.0771
     42  CG        51.7030  -19.6060  -18.0230 C.ar  161  HIS161      0.0820
     43  ND1       51.6830  -20.5910  -18.9840 N.ar  161  HIS161     -0.2267
     44  CD2       51.7060  -18.4290  -18.6950 C.ar  161  HIS161      0.1154
     45  CE1       51.6910  -20.0380  -20.1840 C.ar  161  HIS161      0.1986
     46  NE2       51.7060  -18.7290  -20.0390 N.ar  161  HIS161     -0.2212
     47  N         46.4940  -23.8660  -18.3460 N.3   189  HIS189     -0.1241
     48  CA        46.5210  -22.4670  -18.7350 C.3   189  HIS189      0.1621
     49  C         46.7240  -22.4300  -20.2400 C.2   189  HIS189      0.2264
     50  O         47.8340  -22.6120  -20.7250 O.2   189  HIS189     -0.2867
     51  CB        47.6500  -21.7410  -17.9940 C.3   189  HIS189      0.0745
     52  CG        47.7990  -20.2960  -18.3620 C.ar  189  HIS189      0.0817
     53  ND1       47.4510  -19.2750  -17.5090 N.ar  189  HIS189     -0.2268
     54  CD2       48.2720  -19.7040  -19.4850 C.ar  189  HIS189      0.1154
     55  CE1       47.6980  -18.1120  -18.0920 C.ar  189  HIS189      0.1986
     56  NE2       48.1960  -18.3440  -19.2910 N.ar  189  HIS189     -0.2212
     57  N         46.5160  -20.2180  -23.3850 N.3   191  GLY191     -0.1210
     58  CA        46.4830  -18.8350  -23.8750 C.3   191  GLY191      0.1956
     59  C         47.4630  -18.7100  -25.0260 C.2   191  GLY191      0.2612
     60  O         47.6340  -19.6570  -25.7990 O.2   191  GLY191     -0.2717
     61  N         48.1400  -17.5690  -25.1230 N.am  192  ASN192     -0.1960
     62  CA        49.1650  -17.4080  -26.1590 C.3   192  ASN192      0.1819
     63  C         50.3180  -18.3900  -25.8970 C.2   192  ASN192      0.2621
     64  O         50.7990  -19.0510  -26.8080 O.2   192  ASN192     -0.2715
     65  CB        49.6560  -15.9620  -26.2170 C.3   192  ASN192      0.1195
     66  CG        48.6320  -15.0130  -26.8420 C.2   192  ASN192      0.2630
     67  OD1       47.9010  -15.3700  -27.7800 O.2   192  ASN192     -0.2716
     68  ND2       48.5990  -13.7820  -26.3380 N.am  192  ASN192     -0.0877
     69  N         50.7580  -18.4680  -24.6510 N.am  193  GLY193     -0.1954
     70  CA        51.5180  -19.6190  -24.1700 C.3   193  GLY193      0.1869
     71  C         50.5450  -20.6110  -23.5680 C.2   193  GLY193      0.2309
     72  O         49.4840  -20.2270  -23.0930 O.2   193  GLY193     -0.2863
     73  N         56.1140  -26.4170  -18.9040 N.3   209  MET209     -0.1245
     74  CA        57.2400  -25.6160  -19.3640 C.3   209  MET209      0.1570
     75  C         58.4580  -25.9460  -18.5070 C.2   209  MET209      0.2261
     76  O         58.3330  -26.5290  -17.4190 O.2   209  MET209     -0.2867
     77  CB        56.9310  -24.1240  -19.3510 C.3   209  MET209      0.0387
     78  CG        55.9060  -23.6960  -20.3890 C.3   209  MET209      0.0595
     79  SD        55.3600  -21.9840  -20.0870 S.3   209  MET209     -0.1393
     80  CE        54.4650  -21.6760  -21.6090 C.3   209  MET209      0.0692
     81  N         60.1620  -21.1370  -21.5210 N.3   213  PRO213     -0.2116
     82  CA        58.7540  -21.3740  -21.8630 C.3   213  PRO213      0.1372
     83  C         58.4720  -22.1880  -23.1290 C.2   213  PRO213      0.2244
     84  O         57.3220  -22.2460  -23.5480 O.2   213  PRO213     -0.2868
     85  CB        58.1960  -19.9510  -22.0190 C.3   213  PRO213      0.0268
     86  CG        59.1350  -19.0790  -21.1670 C.3   213  PRO213      0.0207
     87  CD        60.4640  -19.6890  -21.4760 C.3   213  PRO213      0.0892
     88  N         54.9480  -21.6760  -30.4900 N.3   222  ARG222     -0.1245
     89  CA        55.9810  -22.5210  -29.8780 C.3   222  ARG222      0.1563
     90  C         55.6700  -24.0100  -30.0860 C.2   222  ARG222      0.2260
     91  O         54.5100  -24.4450  -30.0150 O.2   222  ARG222     -0.2867
     92  CB        56.1150  -22.2200  -28.3830 C.3   222  ARG222      0.0307
     93  CG        56.9810  -21.0160  -28.0850 C.3   222  ARG222      0.0489
     94  CD        56.9310  -20.5840  -26.6570 C.3   222  ARG222      0.2205
     95  NE        55.9120  -19.5630  -26.5090 N.pl3 222  ARG222     -0.0865
     96  CZ        55.4000  -19.1440  -25.3630 C.cat 222  ARG222      0.5346
     97  NH1       55.7940  -19.6500  -24.2050 N.pl3 222  ARG222      0.1354
     98  NH2       54.4700  -18.1970  -25.4080 N.pl3 222  ARG222      0.1354
     99  N         42.6760  -19.1490  -18.8460 N.3   310  ALA310     -0.1231
    100  CA        43.2790  -18.2580  -19.8510 C.3   310  ALA310      0.1694
    101  C         42.3920  -18.1250  -21.1040 C.2   310  ALA310      0.2592
    102  O         41.2880  -18.6790  -21.1620 O.2   310  ALA310     -0.2718
    103  CB        44.7390  -18.6630  -20.1960 C.3   310  ALA310      0.0304
    104  N         42.8530  -17.3520  -22.0820 N.am  311  GLY311     -0.1957
    105  CA        42.0070  -16.9410  -23.2250 C.3   311  GLY311      0.1869
    106  C         41.3080  -18.0500  -23.9850 C.2   311  GLY311      0.2309
    107  O         40.1350  -17.9300  -24.3430 O.2   311  GLY311     -0.2863
    108  N         45.9380  -12.6410  -13.2470 N.3   365  GLU365     -0.1245
    109  CA        47.3280  -12.5780  -12.7840 C.3   365  GLU365      0.1567
    110  C         47.6490  -11.2390  -12.1240 C.2   365  GLU365      0.2260
    111  O         48.3740  -11.1840  -11.1350 O.2   365  GLU365     -0.2867
    112  CB        48.2660  -12.8540  -13.9500 C.3   365  GLU365      0.0388
    113  CG        48.1660  -14.3100  -14.4160 C.3   365  GLU365      0.1160
    114  CD        48.7030  -14.5180  -15.8040 C.2   365  GLU365      0.3649
    115  OE1       49.9330  -14.5490  -15.9580 O.co2 365  GLU365     -0.2457
    116  OE2       47.8910  -14.6530  -16.7360 O.co2 365  GLU365     -0.2457
@<TRIPOS>BOND
     1    88    89    1
     2    90    91    2
     3    90    89    1
     4    89    92    1
     5    92    93    1
     6    93    94    1
     7    67    66    2
     8    66    68   am
     9    66    65    1
    10    64    63    2
    11    94    95    1
    12    95    96    2
    13    65    62    1
    14    62    63    1
    15    62    61    1
    16    63    69   am
    17    60    59    2
    18    98    96    1
    19    96    97    1
    20    61    59   am
    21    59    58    1
    22    69    70    1
    23    16    17   ar
    24    16    14   ar
    25   107   106    2
    26    70    71    1
    27    17    15   ar
    28   106   105    1
    29    58    57    1
    30    14    13   ar
    31    71    72    2
    32    84    83    2
    33   105   104    1
    34    83    82    1
    35    15    13   ar
    36     8     9    1
    37    13    12    1
    38   104   101   am
    39    85    82    1
    40    85    86    1
    41    82    81    1
    42     9    12    1
    43     9    10    1
    44    80    79    1
    45    81    87    1
    46    87    86    1
    47   102   101    2
    48   101   100    1
    49    50    49    2
    50    10    11    2
    51    78    79    1
    52    78    77    1
    53    49    48    1
    54   103   100    1
    55    45    46   ar
    56    45    43   ar
    57    46    44   ar
    58   100    99    1
    59    54    56   ar
    60    54    52   ar
    61    74    77    1
    62    74    73    1
    63    74    75    1
    64    56    55   ar
    65    43    42   ar
    66     7     5    1
    67    48    47    1
    68    48    51    1
    69    44    42   ar
    70    75    76    2
    71     6     5    1
    72    52    51    1
    73    52    53   ar
    74    55    53   ar
    75    34    32   ar
    76    34    36   ar
    77    42    41    1
    78     5     2    1
    79    32    31   ar
    80    36    35   ar
    81    31    30    1
    82    31    33   ar
    83    30    27    1
    84    35    33   ar
    85   116   114   ar
    86    41    38    1
    87     2     1    1
    88     2     3    1
    89    25    23   ar
    90    37    28   am
    91    37    38    1
    92    27    28    1
    93    27    26    1
    94   115   114   ar
    95    28    29    2
    96   114   113    1
    97     3     4    2
    98    38    39    1
    99    23    22    1
   100    23    24   ar
   101    22    19    1
   102   113   112    1
   103    39    40    2
   104   112   109    1
   105    19    20    1
   106    19    18    1
   107   108   109    1
   108    21    20    2
   109   109   110    1
   110   110   111    2
