@<TRIPOS>MOLECULE
tmp/3r9rA00.pdb
 80 77 0 0 0
SMALL
GASTEIGER

@<TRIPOS>ATOM
      1  N         10.9340    6.0250   43.6990 N.3   103  VAL103     -0.1245
      2  CA        11.4350    4.9250   44.4980 C.3   103  VAL103      0.1561
      3  C         10.3960    3.7990   44.5530 C.2   103  VAL103      0.2260
      4  O          9.2050    4.0440   44.7950 O.2   103  VAL103     -0.2867
      5  CB        11.8380    5.4060   45.9230 C.3   103  VAL103      0.0252
      6  CG1       12.3420    4.2490   46.7810 C.3   103  VAL103      0.0019
      7  CG2       12.9070    6.5140   45.8640 C.3   103  VAL103      0.0019
      8  N          9.8850    0.0250   46.5360 N.3   105  ARG105     -0.1245
      9  CA        10.3680   -0.8030   47.6340 C.3   105  ARG105      0.1563
     10  C          9.6760   -2.1530   47.5910 C.2   105  ARG105      0.2260
     11  O          8.4490   -2.2400   47.7010 O.2   105  ARG105     -0.2867
     12  CB        10.1090   -0.1400   48.9750 C.3   105  ARG105      0.0307
     13  CG        10.6820    1.2560   49.1160 C.3   105  ARG105      0.0489
     14  CD        10.4230    1.8430   50.4850 C.3   105  ARG105      0.2205
     15  NE        11.0060    3.1800   50.5350 N.pl3 105  ARG105     -0.0865
     16  CZ        12.1530    3.5170   51.1150 C.cat 105  ARG105      0.5346
     17  NH1       12.8890    2.6360   51.8060 N.pl3 105  ARG105      0.1354
     18  NH2       12.5500    4.7750   51.0150 N.pl3 105  ARG105      0.1354
     19  N         15.1090   -2.4380   47.0170 N.3   198  ASP198     -0.1225
     20  CA        14.4820   -1.1890   46.6150 C.3   198  ASP198      0.1805
     21  C         15.3580   -0.5230   45.5450 C.2   198  ASP198      0.2598
     22  O         16.4600   -0.9950   45.2560 O.2   198  ASP198     -0.2718
     23  CB        14.2440   -0.2660   47.8200 C.3   198  ASP198      0.1424
     24  CG        15.4850   -0.0320   48.6580 C.2   198  ASP198      0.3668
     25  OD1       16.5850    0.2200   48.0960 O.co2 198  ASP198     -0.2456
     26  OD2       15.3210   -0.0450   49.8940 O.co2 198  ASP198     -0.2456
     27  N         14.8730    0.5600   44.9610 N.am  199  THR199     -0.1939
     28  CA        15.6330    1.2650   43.9350 C.3   199  THR199      0.2028
     29  C         15.0650    2.6630   43.7460 C.2   199  THR199      0.2642
     30  O         13.8920    2.8960   44.0470 O.2   199  THR199     -0.2714
     31  CB        15.5980    0.4710   42.6060 C.3   199  THR199      0.1808
     32  OG1       16.7290    0.8220   41.7870 O.3   199  THR199     -0.2208
     33  CG2       14.2980    0.7050   41.8450 C.3   199  THR199      0.0379
     34  N         15.9040    3.5790   43.2670 N.am  200  LYS200     -0.1977
     35  CA        15.4910    4.9440   42.9590 C.3   200  LYS200      0.1596
     36  C         15.8200    5.3010   41.5130 C.2   200  LYS200      0.2287
     37  O         16.9650    5.1360   41.0880 O.2   200  LYS200     -0.2864
     38  CB        16.2390    5.8950   43.8620 C.3   200  LYS200      0.0298
     39  CG        15.9210    7.3460   43.5800 C.3   200  LYS200      0.0038
     40  CD        16.9380    8.3000   44.1540 C.3   200  LYS200      0.0206
     41  CE        17.3250    7.9790   45.5930 C.3   200  LYS200      0.1093
     42  NZ        16.2670    8.2970   46.6290 N.3   200  LYS200     -0.1314
     43  N         24.3880   -0.3920   42.9090 N.3   220  PRO220     -0.2102
     44  CA        24.3100   -0.5430   44.3690 C.3   220  PRO220      0.1504
     45  C         24.3140    0.7910   45.1210 C.2   220  PRO220      0.2576
     46  O         24.0760    0.7990   46.3280 O.2   220  PRO220     -0.2718
     47  CB        25.5640   -1.3810   44.7050 C.3   220  PRO220      0.0282
     48  CG        25.9530   -2.0090   43.4440 C.3   220  PRO220      0.0208
     49  CD        25.5940   -1.0370   42.3700 C.3   220  PRO220      0.0893
     50  N         24.6200    1.8930   44.4280 N.am  221  ASP221     -0.1960
     51  CA        24.3810    3.2490   44.9550 C.3   221  ASP221      0.1840
     52  C         22.9050    3.7180   44.8430 C.2   221  ASP221      0.2623
     53  O         22.4610    4.5580   45.6250 O.2   221  ASP221     -0.2715
     54  CB        25.2540    4.2780   44.2260 C.3   221  ASP221      0.1450
     55  CG        26.7270    4.1880   44.5960 C.2   221  ASP221      0.3671
     56  OD1       27.0610    3.5850   45.6350 O.co2 221  ASP221     -0.2456
     57  OD2       27.5490    4.7650   43.8530 O.co2 221  ASP221     -0.2456
     58  N         22.1730    3.2160   43.8570 N.am  222  SER222     -0.1936
     59  CA        20.7740    3.6160   43.6450 C.3   222  SER222      0.2055
     60  C         19.7480    2.5880   44.1180 C.2   222  SER222      0.2644
     61  O         18.5400    2.8350   44.0120 O.2   222  SER222     -0.2714
     62  CB        20.5260    3.9310   42.1630 C.3   222  SER222      0.2130
     63  OG        20.3750    2.7420   41.4020 O.3   222  SER222     -0.2179
     64  N         20.2390    1.4540   44.6220 N.am  223  SER223     -0.1935
     65  CA        19.4330    0.2980   44.9990 C.3   223  SER223      0.2055
     66  C         20.1110   -0.4060   46.1750 C.2   223  SER223      0.2642
     67  O         21.3510   -0.4900   46.2290 O.2   223  SER223     -0.2714
     68  CB        19.3700   -0.7040   43.8430 C.3   223  SER223      0.2130
     69  OG        19.1960   -0.0810   42.5840 O.3   223  SER223     -0.2179
     70  N         19.3210   -0.9680   47.0830 N.am  224  ARG224     -0.1977
     71  CA        19.8830   -1.8530   48.0870 C.3   224  ARG224      0.1597
     72  C         20.0260   -3.2590   47.5200 C.2   224  ARG224      0.2287
     73  O         19.0380   -3.9570   47.3200 O.2   224  ARG224     -0.2864
     74  CB        19.0440   -1.8930   49.3660 C.3   224  ARG224      0.0334
     75  CG        19.1460   -0.6460   50.2250 C.3   224  ARG224      0.0492
     76  CD        18.3420   -0.8080   51.4820 C.3   224  ARG224      0.2205
     77  NE        18.5800    0.2950   52.4050 N.pl3 224  ARG224     -0.0865
     78  CZ        17.8560    1.4160   52.4610 C.cat 224  ARG224      0.5346
     79  NH1       16.8050    1.6070   51.6670 N.pl3 224  ARG224      0.1354
     80  NH2       18.1690    2.3460   53.3500 N.pl3 224  ARG224      0.1354
@<TRIPOS>BOND
     1    37    36    2
     2    63    62    1
     3    36    35    1
     4    32    31    1
     5    33    31    1
     6    62    59    1
     7    49    43    1
     8    49    48    1
     9    69    68    1
    10    31    28    1
    11    43    44    1
    12    35    34    1
    13    35    38    1
    14    34    29   am
    15    48    47    1
    16    39    38    1
    17    39    40    1
    18    59    58    1
    19    59    60    1
    20     1     2    1
    21    29    28    1
    22    29    30    2
    23    68    65    1
    24    57    55   ar
    25    58    52   am
    26    28    27    1
    27    61    60    2
    28    60    64   am
    29    40    41    1
    30    54    55    1
    31    54    51    1
    32    44    47    1
    33    44    45    1
    34    50    51    1
    35    50    45   am
    36     2     3    1
    37     2     5    1
    38     3     4    2
    39    55    56   ar
    40    64    65    1
    41    52    51    1
    42    52    53    2
    43    27    21   am
    44    65    66    1
    45    45    46    2
    46    22    21    2
    47    21    20    1
    48    41    42    1
    49     7     5    1
    50     5     6    1
    51    66    67    2
    52    66    70   am
    53     8     9    1
    54    20    19    1
    55    20    23    1
    56    70    71    1
    57    73    72    2
    58    72    71    1
    59    10     9    1
    60    10    11    2
    61     9    12    1
    62    23    24    1
    63    71    74    1
    64    25    24   ar
    65    24    26   ar
    66    12    13    1
    67    13    14    1
    68    74    75    1
    69    75    76    1
    70    14    15    1
    71    15    16    2
    72    18    16    1
    73    16    17    1
    74    76    77    1
    75    79    78    1
    76    77    78    2
    77    78    80    1
