@<TRIPOS>MOLECULE
tmp/3r9tB00.pdb
 107 96 0 0 0
SMALL
GASTEIGER

@<TRIPOS>ATOM
      1  N         10.6780   19.1330   40.2610 N.3    66  ALA66      -0.1245
      2  CA        10.3660   17.7490   39.9200 C.3    66  ALA66       0.1562
      3  C          8.8470   17.5530   39.9490 C.2    66  ALA66       0.2260
      4  O          8.1790   18.0840   40.8310 O.2    66  ALA66      -0.2867
      5  CB        11.0390   16.8090   40.9000 C.3    66  ALA66       0.0290
      6  N          6.7540   11.5680   41.2580 N.3    71  ILE71      -0.1245
      7  CA         7.4540   11.1580   42.4680 C.3    71  ILE71       0.1561
      8  C          6.5520   10.1930   43.2390 C.2    71  ILE71       0.2260
      9  O          7.0140    9.1850   43.7880 O.2    71  ILE71      -0.2867
     10  CB         7.8280   12.3710   43.3430 C.3    71  ILE71       0.0252
     11  CG1        8.9430   13.1770   42.6700 C.3    71  ILE71       0.0019
     12  CG2        8.2910   11.9200   44.7190 C.3    71  ILE71       0.0019
     13  CD1        9.1030   14.5840   43.2230 C.3    71  ILE71       0.0001
     14  N         12.6260   10.1910   37.0340 N.3    77  LEU77      -0.1245
     15  CA        12.4340   11.4950   36.4090 C.3    77  LEU77       0.1561
     16  C         13.3880   11.6890   35.2520 C.2    77  LEU77       0.2260
     17  O         13.1780   12.5610   34.4100 O.2    77  LEU77      -0.2867
     18  CB        12.6010   12.6010   37.4470 C.3    77  LEU77       0.0270
     19  CG        11.5740   12.5010   38.5930 C.3    77  LEU77       0.0019
     20  CD1       11.7070   13.6800   39.5330 C.3    77  LEU77       0.0001
     21  CD2       10.1310   12.3850   38.0870 C.3    77  LEU77       0.0001
     22  N         18.7760   14.3180   36.4220 N.3    87  PHE87      -0.1241
     23  CA        17.5150   15.0500   36.3810 C.3    87  PHE87       0.1605
     24  C         17.3950   15.9070   35.1340 C.2    87  PHE87       0.2264
     25  O         18.3200   16.6320   34.7960 O.2    87  PHE87      -0.2867
     26  CB        17.4650   15.9110   37.6330 C.3    87  PHE87       0.0534
     27  CG        16.1990   16.6770   37.8310 C.ar   87  PHE87      -0.0203
     28  CD1       15.1010   16.0750   38.4440 C.ar   87  PHE87      -0.0042
     29  CD2       16.1440   18.0320   37.5430 C.ar   87  PHE87      -0.0042
     30  CE1       13.9560   16.7950   38.6950 C.ar   87  PHE87      -0.0003
     31  CE2       15.0040   18.7540   37.7920 C.ar   87  PHE87      -0.0003
     32  CZ        13.8970   18.1260   38.3720 C.ar   87  PHE87      -0.0000
     33  N         13.8530   21.8040   41.5610 N.3   110  GLY110     -0.1225
     34  CA        14.4020   21.3820   40.2710 C.3   110  GLY110      0.1811
     35  C         14.7250   22.5270   39.3230 C.2   110  GLY110      0.2280
     36  O         15.7470   22.4870   38.6520 O.2   110  GLY110     -0.2866
     37  N         17.8550   24.0070   40.3570 N.3   113  GLU113     -0.1245
     38  CA        18.9170   23.0390   40.0770 C.3   113  GLU113      0.1567
     39  C         19.3010   23.0750   38.5910 C.2   113  GLU113      0.2260
     40  O         20.4630   22.9060   38.2460 O.2   113  GLU113     -0.2867
     41  CB        18.5020   21.6590   40.5720 C.3   113  GLU113      0.0388
     42  CG        18.3610   21.6460   42.1000 C.3   113  GLU113      0.1160
     43  CD        17.8050   20.3510   42.6110 C.2   113  GLU113      0.3649
     44  OE1       16.6100   20.0930   42.3410 O.co2 113  GLU113     -0.2457
     45  OE2       18.5660   19.5850   43.2340 O.co2 113  GLU113     -0.2457
     46  N         12.6440   21.6760   48.8670 N.3   133  GLU133     -0.1245
     47  CA        12.5240   20.2230   49.0440 C.3   133  GLU133      0.1567
     48  C         12.4160   19.7900   50.5070 C.2   133  GLU133      0.2260
     49  O         11.6860   18.8420   50.8500 O.2   133  GLU133     -0.2867
     50  CB        13.7210   19.5170   48.4060 C.3   133  GLU133      0.0388
     51  CG        13.7270   19.5200   46.8540 C.3   133  GLU133      0.1160
     52  CD        14.3960   20.7110   46.2070 C.2   133  GLU133      0.3649
     53  OE1       14.6080   21.7150   46.8890 O.co2 133  GLU133     -0.2457
     54  OE2       14.7010   20.6360   44.9900 O.co2 133  GLU133     -0.2457
     55  N          9.0940   19.1180   52.2420 N.3   136  ARG136     -0.1245
     56  CA         8.2860   17.9640   51.8210 C.3   136  ARG136      0.1563
     57  C          8.8970   16.5980   52.1950 C.2   136  ARG136      0.2260
     58  O          8.3300   15.5520   51.8700 O.2   136  ARG136     -0.2867
     59  CB         8.0400   18.0430   50.3030 C.3   136  ARG136      0.0307
     60  CG         7.0690   19.1530   49.9130 C.3   136  ARG136      0.0489
     61  CD         6.6640   18.9930   48.4450 C.3   136  ARG136      0.2205
     62  NE         7.8230   19.1380   47.5700 N.pl3 136  ARG136     -0.0865
     63  CZ         8.3580   20.3060   47.2260 C.cat 136  ARG136      0.5346
     64  NH1        7.8230   21.4510   47.6300 N.pl3 136  ARG136      0.1354
     65  NH2        9.4360   20.3390   46.4450 N.pl3 136  ARG136      0.1354
     66  N         11.9870   15.4000   51.3720 N.3   138  LEU138     -0.1231
     67  CA        13.0020   14.9940   50.4100 C.3   138  LEU138      0.1693
     68  C         14.1650   15.9860   50.4720 C.2   138  LEU138      0.2591
     69  O         14.2980   16.7230   51.4390 O.2   138  LEU138     -0.2718
     70  CB        12.4050   15.0170   49.0060 C.3   138  LEU138      0.0284
     71  CG        11.1980   14.1160   48.7770 C.3   138  LEU138      0.0019
     72  CD1       10.5660   14.3660   47.4230 C.3   138  LEU138      0.0001
     73  CD2       11.5560   12.6470   48.9080 C.3   138  LEU138      0.0001
     74  N         14.9970   16.0020   49.4360 N.am  139  ILE139     -0.1980
     75  CA        16.1140   16.9570   49.3510 C.3   139  ILE139      0.1595
     76  C         16.3040   17.3600   47.9000 C.2   139  ILE139      0.2287
     77  O         15.7080   16.7570   47.0110 O.2   139  ILE139     -0.2864
     78  CB        17.4670   16.3970   49.8920 C.3   139  ILE139      0.0276
     79  CG1       17.8810   15.1000   49.1660 C.3   139  ILE139      0.0022
     80  CG2       17.4470   16.2440   51.4490 C.3   139  ILE139      0.0022
     81  CD1       19.2710   14.6050   49.5390 C.3   139  ILE139      0.0001
     82  N         17.9340   16.7330   45.2620 N.3   141  ALA141     -0.1231
     83  CA        18.6930   15.5690   44.8240 C.3   141  ALA141      0.1694
     84  C         19.3130   15.7500   43.4460 C.2   141  ALA141      0.2591
     85  O         20.1980   14.9810   43.0730 O.2   141  ALA141     -0.2718
     86  CB        17.8010   14.3050   44.8480 C.3   141  ALA141      0.0304
     87  N         18.8510   16.7520   42.6970 N.am  142  ALA142     -0.1980
     88  CA        19.3590   17.0450   41.3550 C.3   142  ALA142      0.1597
     89  C         20.5480   18.0260   41.3570 C.2   142  ALA142      0.2287
     90  O         20.6730   18.8720   40.4610 O.2   142  ALA142     -0.2864
     91  CB        18.2090   17.5880   40.4680 C.3   142  ALA142      0.0319
     92  N         19.4600    9.9410   49.6220 N.3   235  MET235     -0.1245
     93  CA        18.1170    9.8320   49.0320 C.3   235  MET235      0.1570
     94  C         17.5310    8.4500   49.2020 C.2   235  MET235      0.2261
     95  O         16.3310    8.2980   49.4490 O.2   235  MET235     -0.2867
     96  CB        18.1310   10.1590   47.5410 C.3   235  MET235      0.0387
     97  CG        17.8710   11.6110   47.2450 C.3   235  MET235      0.0595
     98  SD        16.2150   12.1970   47.6680 S.3   235  MET235     -0.1393
     99  CE        15.2510   11.9880   46.1620 C.3   235  MET235      0.0692
    100  N         13.9830    8.3450   50.8430 N.3   239  LEU239     -0.1245
    101  CA        12.8540    7.8370   50.0760 C.3   239  LEU239      0.1561
    102  C         12.2010    6.6500   50.8020 C.2   239  LEU239      0.2260
    103  O         11.0820    6.2740   50.4660 O.2   239  LEU239     -0.2867
    104  CB        13.2810    7.4150   48.6580 C.3   239  LEU239      0.0270
    105  CG        13.5340    8.4510   47.5480 C.3   239  LEU239      0.0019
    106  CD1       14.3880    7.8340   46.4360 C.3   239  LEU239      0.0001
    107  CD2       12.2280    9.0010   46.9790 C.3   239  LEU239      0.0001
@<TRIPOS>BOND
     1    17    16    2
     2    25    24    2
     3    24    23    1
     4    16    15    1
     5    23    22    1
     6    23    26    1
     7    15    14    1
     8    15    18    1
     9    18    19    1
    10    29    31   ar
    11    29    27   ar
    12    26    27    1
    13    31    32   ar
    14    27    28   ar
    15    21    19    1
    16    40    39    2
    17    32    30   ar
    18    28    30   ar
    19    39    38    1
    20    19    20    1
    21    36    35    2
    22    35    34    1
    23     2     3    1
    24     2     1    1
    25     2     5    1
    26     3     4    2
    27    38    37    1
    28    38    41    1
    29    34    33    1
    30    90    89    2
    31    91    88    1
    32    41    42    1
    33     6     7    1
    34    88    89    1
    35    88    87    1
    36    42    43    1
    37    44    43   ar
    38     7     8    1
    39     7    10    1
    40    43    45   ar
    41    11    13    1
    42    11    10    1
    43    87    84   am
    44    85    84    2
    45     8     9    2
    46    10    12    1
    47    84    83    1
    48    83    86    1
    49    83    82    1
    50    54    52   ar
    51    99    98    1
    52    52    51    1
    53    52    53   ar
    54   106   105    1
    55    65    63    1
    56    51    50    1
    57   107   105    1
    58    77    76    2
    59    63    62    2
    60    63    64    1
    61    97    96    1
    62    97    98    1
    63    72    71    1
    64    96    93    1
    65   105   104    1
    66    62    61    1
    67    76    75    1
    68    50    47    1
    69    61    60    1
    70   104   101    1
    71    71    73    1
    72    71    70    1
    73    46    47    1
    74    70    67    1
    75    93    94    1
    76    93    92    1
    77    47    48    1
    78    79    81    1
    79    79    78    1
    80    94    95    2
    81    75    74    1
    82    75    78    1
    83    74    68   am
    84    78    80    1
    85    60    59    1
    86   101   102    1
    87   101   100    1
    88    59    56    1
    89    67    68    1
    90    67    66    1
    91   103   102    2
    92    68    69    2
    93    48    49    2
    94    56    57    1
    95    56    55    1
    96    58    57    2
