@<TRIPOS>MOLECULE
tmp/3r9vA00.pdb
 87 78 0 0 0
SMALL
GASTEIGER

@<TRIPOS>ATOM
      1  N          1.1560  -24.6190   59.6330 N.3     6  GLN6       -0.1245
      2  CA         1.7420  -23.2840   59.5800 C.3     6  GLN6        0.1566
      3  C          0.6600  -22.2360   59.8080 C.2     6  GLN6        0.2260
      4  O         -0.4170  -22.3130   59.2180 O.2     6  GLN6       -0.2867
      5  CB         2.4290  -23.0520   58.2330 C.3     6  GLN6        0.0367
      6  CG         3.2090  -21.7500   58.1520 C.3     6  GLN6        0.0905
      7  CD         4.2180  -21.6040   59.2730 C.2     6  GLN6        0.2608
      8  OE1        3.8960  -21.1100   60.3540 O.2     6  GLN6       -0.2717
      9  NE2        5.4490  -22.0350   59.0220 N.am    6  GLN6       -0.0878
     10  N         -0.5790  -18.0470   60.2000 N.3     8  ILE8       -0.1245
     11  CA        -0.2960  -16.7090   59.7100 C.3     8  ILE8        0.1561
     12  C         -1.4060  -15.7700   60.1820 C.2     8  ILE8        0.2260
     13  O         -2.5840  -16.1500   60.2020 O.2     8  ILE8       -0.2867
     14  CB        -0.1720  -16.7280   58.1530 C.3     8  ILE8        0.0252
     15  CG1        0.3280  -15.3800   57.6210 C.3     8  ILE8        0.0019
     16  CG2       -1.4960  -17.1380   57.5100 C.3     8  ILE8        0.0019
     17  CD1        0.5850  -15.3670   56.1130 C.3     8  ILE8        0.0001
     18  N         -1.3630  -12.0170   56.0360 N.3    13  LEU13      -0.1245
     19  CA        -1.9820  -12.5890   54.8430 C.3    13  LEU13       0.1561
     20  C         -2.3730  -11.4840   53.8490 C.2    13  LEU13       0.2260
     21  O         -2.1490  -11.6230   52.6460 O.2    13  LEU13      -0.2867
     22  CB        -3.2040  -13.4250   55.2360 C.3    13  LEU13       0.0270
     23  CG        -4.0110  -14.0660   54.1050 C.3    13  LEU13       0.0019
     24  CD1       -3.1030  -14.9070   53.2160 C.3    13  LEU13       0.0001
     25  CD2       -5.1320  -14.9160   54.6910 C.3    13  LEU13       0.0001
     26  N          0.7570  -10.2450   52.2010 N.3    16  LYS16      -0.1231
     27  CA         1.3120  -11.2650   51.3110 C.3    16  LYS16       0.1693
     28  C          0.5210  -11.3620   50.0140 C.2    16  LYS16       0.2591
     29  O          1.0940  -11.5110   48.9400 O.2    16  LYS16      -0.2718
     30  CB         1.3410  -12.6370   51.9980 C.3    16  LYS16       0.0285
     31  CG         2.3630  -12.7540   53.1190 C.3    16  LYS16       0.0035
     32  CD         3.6170  -13.4910   52.6760 C.3    16  LYS16       0.0206
     33  CE         4.4210  -13.9680   53.8840 C.3    16  LYS16       0.1093
     34  NZ         5.5790  -14.8160   53.4910 N.3    16  LYS16      -0.1314
     35  N         -0.7970  -11.2870   50.1020 N.am   17  ILE17      -0.1980
     36  CA        -1.5970  -11.3100   48.8940 C.3    17  ILE17       0.1595
     37  C         -1.3010  -10.0610   48.0430 C.2    17  ILE17       0.2287
     38  O         -1.1460  -10.1510   46.8300 O.2    17  ILE17      -0.2864
     39  CB        -3.1000  -11.4080   49.2200 C.3    17  ILE17       0.0276
     40  CG1       -3.4290  -12.7900   49.7940 C.3    17  ILE17       0.0022
     41  CG2       -3.9410  -11.1210   47.9810 C.3    17  ILE17       0.0022
     42  CD1       -4.7640  -12.8380   50.5150 C.3    17  ILE17       0.0001
     43  N          1.9830  -10.4000   46.1960 N.3    20  SER20      -0.1217
     44  CA         1.8860  -11.3030   45.0370 C.3    20  SER20       0.1889
     45  C          1.1490  -10.6870   43.8660 C.2    20  SER20       0.2288
     46  O          1.5480  -10.8790   42.7110 O.2    20  SER20      -0.2866
     47  CB         1.2170  -12.6210   45.4040 C.3    20  SER20       0.2089
     48  OG         2.0570  -13.3780   46.2470 O.3    20  SER20      -0.2183
     49  N          3.4430   -8.4500   42.1390 N.3    23  ASP23      -0.1225
     50  CA         4.4770   -9.1860   41.4020 C.3    23  ASP23       0.1805
     51  C          3.9470   -9.7550   40.0970 C.2    23  ASP23       0.2597
     52  O          4.6310   -9.7170   39.0670 O.2    23  ASP23      -0.2718
     53  CB         5.0570  -10.3290   42.2340 C.3    23  ASP23       0.1424
     54  CG         6.0940   -9.8700   43.2270 C.2    23  ASP23       0.3668
     55  OD1        6.5960   -8.7280   43.1110 O.co2  23  ASP23      -0.2456
     56  OD2        6.4130  -10.6780   44.1250 O.co2  23  ASP23      -0.2456
     57  N          2.7360  -10.2970   40.1310 N.am   24  ILE24      -0.1980
     58  CA         2.1390  -10.8430   38.9030 C.3    24  ILE24       0.1595
     59  C          1.8390   -9.7460   37.8820 C.2    24  ILE24       0.2287
     60  O          2.0230   -9.9280   36.6570 O.2    24  ILE24      -0.2864
     61  CB         0.8910  -11.6590   39.2280 C.3    24  ILE24       0.0276
     62  CG1        1.3010  -12.8180   40.1360 C.3    24  ILE24       0.0022
     63  CG2        0.2220  -12.1880   37.9500 C.3    24  ILE24       0.0022
     64  CD1        0.1920  -13.3720   40.9400 C.3    24  ILE24       0.0001
     65  N         -7.1860  -15.1180   39.7880 N.3   190  LEU190     -0.1245
     66  CA        -6.2730  -15.2210   40.9160 C.3   190  LEU190      0.1561
     67  C         -6.6460  -14.2250   42.0120 C.2   190  LEU190      0.2260
     68  O         -6.6660  -14.5820   43.1990 O.2   190  LEU190     -0.2867
     69  CB        -4.8410  -14.9980   40.4510 C.3   190  LEU190      0.0270
     70  CG        -3.8160  -15.4470   41.4950 C.3   190  LEU190      0.0019
     71  CD1       -3.7180  -16.9850   41.5420 C.3   190  LEU190      0.0001
     72  CD2       -2.4780  -14.8440   41.1610 C.3   190  LEU190      0.0001
     73  N         -7.7290  -15.4100   45.7220 N.3   194  LEU194     -0.1245
     74  CA        -6.9480  -14.9910   46.8920 C.3   194  LEU194      0.1561
     75  C         -7.7740  -14.1820   47.8800 C.2   194  LEU194      0.2260
     76  O         -7.6040  -14.3070   49.1040 O.2   194  LEU194     -0.2867
     77  CB        -5.7040  -14.2230   46.4730 C.3   194  LEU194      0.0270
     78  CG        -4.6480  -15.0790   45.7850 C.3   194  LEU194      0.0019
     79  CD1       -3.4450  -14.2330   45.4130 C.3   194  LEU194      0.0001
     80  CD2       -4.2470  -16.2520   46.6980 C.3   194  LEU194      0.0001
     81  N         -9.8420  -16.1750   50.4010 N.3   197  THR197     -0.1218
     82  CA        -9.1740  -16.8130   51.5470 C.3   197  THR197      0.1862
     83  C         -9.3720  -16.0380   52.8470 C.2   197  THR197      0.2287
     84  O         -9.0700  -16.5490   53.9250 O.2   197  THR197     -0.2866
     85  CB        -7.6390  -17.0020   51.3630 C.3   197  THR197      0.1770
     86  OG1       -6.9810  -15.7290   51.3570 O.3   197  THR197     -0.2211
     87  CG2       -7.3190  -17.7630   50.1000 C.3   197  THR197      0.0375
@<TRIPOS>BOND
     1    60    59    2
     2    59    58    1
     3    63    61    1
     4    58    61    1
     5    58    57    1
     6    52    51    2
     7    61    62    1
     8    65    66    1
     9    51    57   am
    10    51    50    1
    11    62    64    1
    12    69    66    1
    13    69    70    1
    14    66    67    1
    15    72    70    1
    16    50    49    1
    17    50    53    1
    18    70    71    1
    19    67    68    2
    20    53    54    1
    21    46    45    2
    22    55    54   ar
    23    54    56   ar
    24    45    44    1
    25    44    47    1
    26    44    43    1
    27    47    48    1
    28    79    78    1
    29    73    74    1
    30    78    77    1
    31    78    80    1
    32    77    74    1
    33    38    37    2
    34    74    75    1
    35    75    76    2
    36    41    39    1
    37    37    36    1
    38    36    39    1
    39    36    35    1
    40    29    28    2
    41    39    40    1
    42    40    42    1
    43    28    35   am
    44    28    27    1
    45    87    85    1
    46    81    82    1
    47    27    30    1
    48    27    26    1
    49    86    85    1
    50    85    82    1
    51    82    83    1
    52    30    31    1
    53    21    20    2
    54    32    31    1
    55    32    33    1
    56    83    84    2
    57    24    23    1
    58    34    33    1
    59    20    19    1
    60    23    25    1
    61    23    22    1
    62    19    22    1
    63    19    18    1
    64    17    15    1
    65    16    14    1
    66    15    14    1
    67     6     5    1
    68     6     7    1
    69    14    11    1
    70     5     2    1
    71     9     7   am
    72     4     3    2
    73     7     8    2
    74     2     1    1
    75     2     3    1
    76    11    12    1
    77    11    10    1
    78    12    13    2
