@<TRIPOS>MOLECULE
tmp/3ra7D00.pdb
 125 123 0 0 0
SMALL
GASTEIGER

@<TRIPOS>ATOM
      1  N         47.2810  -58.7570   32.9530 N.3    33  ALA33      -0.1245
      2  CA        47.2120  -57.3810   33.4100 C.3    33  ALA33       0.1562
      3  C         46.0370  -56.7340   32.6910 C.2    33  ALA33       0.2260
      4  O         45.9770  -56.7340   31.4600 O.2    33  ALA33      -0.2867
      5  CB        48.5010  -56.6500   33.0920 C.3    33  ALA33       0.0290
      6  N         43.1610  -53.5280   31.9340 N.3    35  SER35      -0.1217
      7  CA        43.1980  -52.0830   31.7470 C.3    35  SER35       0.1889
      8  C         41.8260  -51.4700   31.4980 C.2    35  SER35       0.2288
      9  O         40.9160  -52.1270   30.9880 O.2    35  SER35      -0.2866
     10  CB        44.1340  -51.7230   30.5900 C.3    35  SER35       0.2089
     11  OG        45.4080  -52.3140   30.7610 O.3    35  SER35      -0.2183
     12  N         43.7530  -43.6700   27.6460 N.3    47  TRP47      -0.1241
     13  CA        44.0410  -44.6740   28.6610 C.3    47  TRP47       0.1605
     14  C         43.5210  -44.1880   30.0080 C.2    47  TRP47       0.2264
     15  O         43.4590  -42.9830   30.2570 O.2    47  TRP47      -0.2867
     16  CB        45.5470  -44.9330   28.7450 C.3    47  TRP47       0.0550
     17  CG        45.8980  -46.3490   29.0910 C.ar   47  TRP47       0.0003
     18  CD1       46.2200  -46.8380   30.3240 C.ar   47  TRP47       0.0946
     19  CD2       45.9570  -47.4640   28.1910 C.ar   47  TRP47       0.0152
     20  NE1       46.4790  -48.1840   30.2460 N.ar   47  TRP47      -0.2442
     21  CE2       46.3250  -48.5930   28.9480 C.ar   47  TRP47       0.0810
     22  CE3       45.7360  -47.6150   26.8180 C.ar   47  TRP47       0.0012
     23  CZ2       46.4760  -49.8560   28.3810 C.ar   47  TRP47       0.0191
     24  CZ3       45.8870  -48.8680   26.2560 C.ar   47  TRP47       0.0001
     25  CH2       46.2540  -49.9730   27.0370 C.ar   47  TRP47       0.0015
     26  N         45.8150  -49.2550   34.4950 N.3    50  SER50      -0.1202
     27  CA        46.2800  -50.6180   34.2850 C.3    50  SER50       0.2020
     28  C         46.6910  -51.2450   35.6110 C.2    50  SER50       0.2619
     29  O         47.2150  -50.5680   36.4940 O.2    50  SER50      -0.2717
     30  CB        47.4580  -50.6510   33.3060 C.3    50  SER50       0.2103
     31  OG        47.0220  -50.4980   31.9670 O.3    50  SER50      -0.2182
     32  N         46.4460  -52.5420   35.7470 N.am   51  ILE51      -0.1965
     33  CA        46.8600  -53.2760   36.9340 C.3    51  ILE51       0.1727
     34  C         47.5790  -54.5410   36.4950 C.2    51  ILE51       0.2616
     35  O         47.2270  -55.1380   35.4770 O.2    51  ILE51      -0.2715
     36  CB        45.6580  -53.6340   37.8330 C.3    51  ILE51       0.0290
     37  CG1       46.1360  -54.0490   39.2280 C.3    51  ILE51       0.0022
     38  CG2       44.8130  -54.7250   37.1890 C.3    51  ILE51       0.0023
     39  CD1       45.0140  -54.3870   40.1890 C.3    51  ILE51       0.0001
     40  N         48.5960  -54.9420   37.2490 N.am   52  ASN52      -0.1972
     41  CA        49.3740  -56.1220   36.8910 C.3    52  ASN52       0.1688
     42  C         48.7570  -57.4080   37.4280 C.2    52  ASN52       0.2292
     43  O         47.6980  -57.3830   38.0560 O.2    52  ASN52      -0.2864
     44  CB        50.8250  -55.9890   37.3600 C.3    52  ASN52       0.1181
     45  CG        50.9550  -56.0100   38.8650 C.2    52  ASN52       0.2629
     46  OD1       49.9590  -55.9680   39.5890 O.2    52  ASN52      -0.2716
     47  ND2       52.1900  -56.0750   39.3490 N.am   52  ASN52      -0.0877
     48  N         51.0800  -53.5580   41.4230 N.3    57  TYR57      -0.1241
     49  CA        51.3830  -52.3450   40.6720 C.3    57  TYR57       0.1605
     50  C         50.2070  -51.8930   39.8110 C.2    57  TYR57       0.2264
     51  O         49.4700  -52.7130   39.2630 O.2    57  TYR57      -0.2867
     52  CB        52.6250  -52.5340   39.7990 C.3    57  TYR57       0.0534
     53  CG        52.9500  -51.3240   38.9500 C.ar   57  TYR57      -0.0201
     54  CD1       53.4900  -50.1770   39.5180 C.ar   57  TYR57      -0.0009
     55  CD2       52.7150  -51.3250   37.5810 C.ar   57  TYR57      -0.0009
     56  CE1       53.7880  -49.0640   38.7460 C.ar   57  TYR57       0.0417
     57  CE2       53.0100  -50.2180   36.8000 C.ar   57  TYR57       0.0417
     58  CZ        53.5470  -49.0910   37.3870 C.ar   57  TYR57       0.1957
     59  OH        53.8420  -47.9890   36.6140 O.3    57  TYR57      -0.2866
     60  N         49.0440  -48.5560   36.9640 N.3    59  TYR59      -0.1241
     61  CA        49.4200  -47.3600   36.2270 C.3    59  TYR59       0.1605
     62  C         48.2260  -46.4890   35.8420 C.2    59  TYR59       0.2264
     63  O         47.2280  -46.9790   35.3150 O.2    59  TYR59      -0.2867
     64  CB        50.2200  -47.7130   34.9730 C.3    59  TYR59       0.0534
     65  CG        50.4440  -46.5140   34.0850 C.ar   59  TYR59      -0.0201
     66  CD1       51.4050  -45.5650   34.4020 C.ar   59  TYR59      -0.0009
     67  CD2       49.6780  -46.3150   32.9440 C.ar   59  TYR59      -0.0009
     68  CE1       51.6090  -44.4590   33.6010 C.ar   59  TYR59       0.0417
     69  CE2       49.8750  -45.2100   32.1340 C.ar   59  TYR59       0.0417
     70  CZ        50.8420  -44.2860   32.4690 C.ar   59  TYR59       0.1957
     71  OH        51.0450  -43.1840   31.6710 O.3    59  TYR59      -0.2866
     72  N         44.7590  -57.8560   27.1760 N.3    99  PRO99      -0.2116
     73  CA        45.8860  -58.0290   26.2550 C.3    99  PRO99       0.1372
     74  C         45.7110  -59.2790   25.3930 C.2    99  PRO99       0.2244
     75  O         44.9280  -60.1630   25.7410 O.2    99  PRO99      -0.2868
     76  CB        47.0820  -58.1890   27.1970 C.3    99  PRO99       0.0268
     77  CG        46.6690  -57.4990   28.4360 C.3    99  PRO99       0.0207
     78  CD        45.2010  -57.7220   28.5720 C.3    99  PRO99       0.0892
     79  N         55.0030  -62.0210   28.4070 N.3   104  GLU104     -0.1245
     80  CA        55.7480  -60.7860   28.2060 C.3   104  GLU104      0.1567
     81  C         56.5580  -60.7850   26.9130 C.2   104  GLU104      0.2260
     82  O         57.0070  -59.7330   26.4590 O.2   104  GLU104     -0.2867
     83  CB        56.6970  -60.5970   29.3900 C.3   104  GLU104      0.0388
     84  CG        56.7480  -59.1990   29.9640 C.3   104  GLU104      0.1160
     85  CD        57.5230  -59.1560   31.2660 C.2   104  GLU104      0.3649
     86  OE1       58.5520  -59.8560   31.3590 O.co2 104  GLU104     -0.2457
     87  OE2       57.1040  -58.4320   32.1940 O.co2 104  GLU104     -0.2457
     88  N         51.2410  -59.5390   23.5220 N.3   109  TYR109     -0.1227
     89  CA        51.2620  -59.0100   24.8810 C.3   109  TYR109      0.1736
     90  C         51.1330  -57.4890   24.8820 C.2   109  TYR109      0.2595
     91  O         50.8120  -56.8840   25.9050 O.2   109  TYR109     -0.2718
     92  CB        52.5530  -59.4300   25.5910 C.3   109  TYR109      0.0548
     93  CG        52.6610  -58.9640   27.0290 C.ar  109  TYR109     -0.0200
     94  CD1       53.3040  -57.7750   27.3490 C.ar  109  TYR109     -0.0009
     95  CD2       52.1280  -59.7170   28.0670 C.ar  109  TYR109     -0.0009
     96  CE1       53.4080  -57.3450   28.6630 C.ar  109  TYR109      0.0417
     97  CE2       52.2270  -59.2950   29.3860 C.ar  109  TYR109      0.0417
     98  CZ        52.8690  -58.1080   29.6780 C.ar  109  TYR109      0.1957
     99  OH        52.9720  -57.6810   30.9840 O.3   109  TYR109     -0.2866
    100  N         51.3700  -56.8790   23.7260 N.am  110  TYR110     -0.1962
    101  CA        51.3990  -55.4250   23.6150 C.3   110  TYR110      0.1771
    102  C         50.2430  -54.8640   22.8000 C.2   110  TYR110      0.2620
    103  O         50.3250  -53.7620   22.2590 O.2   110  TYR110     -0.2715
    104  CB        52.7370  -54.9780   23.0330 C.3   110  TYR110      0.0574
    105  CG        53.8980  -55.3350   23.9270 C.ar  110  TYR110     -0.0198
    106  CD1       54.5050  -56.5810   23.8500 C.ar  110  TYR110     -0.0009
    107  CD2       54.3710  -54.4340   24.8690 C.ar  110  TYR110     -0.0009
    108  CE1       55.5650  -56.9150   24.6780 C.ar  110  TYR110      0.0417
    109  CE2       55.4290  -54.7570   25.7010 C.ar  110  TYR110      0.0417
    110  CZ        56.0220  -55.9980   25.6020 C.ar  110  TYR110      0.1957
    111  OH        57.0750  -56.3240   26.4280 O.3   110  TYR110     -0.2866
    112  N         49.1670  -55.6350   22.7180 N.am  111  SER111     -0.1936
    113  CA        47.9380  -55.1740   22.0940 C.3   111  SER111      0.2055
    114  C         46.7580  -55.5120   22.9950 C.2   111  SER111      0.2642
    115  O         46.8660  -56.3590   23.8830 O.2   111  SER111     -0.2714
    116  CB        47.7630  -55.7980   20.7060 C.3   111  SER111      0.2130
    117  OG        47.9470  -57.2020   20.7410 O.3   111  SER111     -0.2179
    118  N         45.6390  -54.8300   22.7840 N.am  112  MET112     -0.1976
    119  CA        44.4150  -55.1440   23.5070 C.3   112  MET112      0.1605
    120  C         43.4410  -55.8320   22.5560 C.2   112  MET112      0.2287
    121  O         42.6130  -55.1780   21.9180 O.2   112  MET112     -0.2864
    122  CB        43.7970  -53.8740   24.0980 C.3   112  MET112      0.0413
    123  CG        44.7910  -52.9820   24.8320 C.3   112  MET112      0.0598
    124  SD        45.5590  -53.7920   26.2510 S.3   112  MET112     -0.1393
    125  CE        44.2560  -53.6760   27.4750 C.3   112  MET112      0.0692
@<TRIPOS>BOND
     1   116   117    1
     2   116   113    1
     3   121   120    2
     4   113   112    1
     5   113   114    1
     6   103   102    2
     7   120   119    1
     8   112   102   am
     9   118   114   am
    10   118   119    1
    11   102   101    1
    12   114   115    2
    13   104   101    1
    14   104   105    1
    15   119   122    1
    16    88    89    1
    17   101   100    1
    18   100    90   am
    19   106   105   ar
    20   106   108   ar
    21   105   107   ar
    22   122   123    1
    23   108   110   ar
    24   123   124    1
    25   107   109   ar
    26    89    90    1
    27    89    92    1
    28    90    91    2
    29    74    75    2
    30    74    73    1
    31    92    93    1
    32   110   109   ar
    33   110   111    1
    34   124   125    1
    35    73    72    1
    36    73    76    1
    37    24    22   ar
    38    24    25   ar
    39    82    81    2
    40    22    19   ar
    41    81    80    1
    42    93    94   ar
    43    93    95   ar
    44    25    23   ar
    45    72    78    1
    46    76    77    1
    47    94    96   ar
    48    12    13    1
    49    95    97   ar
    50    19    21   ar
    51    19    17   ar
    52    80    79    1
    53    80    83    1
    54    23    21   ar
    55    77    78    1
    56    13    16    1
    57    13    14    1
    58    96    98   ar
    59    16    17    1
    60    21    20   ar
    61    17    18   ar
    62    97    98   ar
    63    83    84    1
    64    98    99    1
    65    84    85    1
    66    14    15    2
    67    20    18   ar
    68    10    11    1
    69    10     7    1
    70     9     8    2
    71    85    86   ar
    72    85    87   ar
    73     4     3    2
    74     8     7    1
    75    71    70    1
    76     7     6    1
    77    31    30    1
    78    69    70   ar
    79    69    67   ar
    80    70    68   ar
    81     3     2    1
    82    67    65   ar
    83     1     2    1
    84     5     2    1
    85    30    27    1
    86    68    66   ar
    87    65    66   ar
    88    65    64    1
    89    27    26    1
    90    27    28    1
    91    64    61    1
    92    63    62    2
    93    35    34    2
    94    28    32   am
    95    28    29    2
    96    32    33    1
    97    62    61    1
    98    61    60    1
    99    34    33    1
   100    34    40   am
   101    59    58    1
   102    57    58   ar
   103    57    55   ar
   104    41    40    1
   105    41    44    1
   106    41    42    1
   107    33    36    1
   108    38    36    1
   109    44    45    1
   110    58    56   ar
   111    42    43    2
   112    55    53   ar
   113    36    37    1
   114    56    54   ar
   115    45    47   am
   116    45    46    2
   117    53    54   ar
   118    53    52    1
   119    37    39    1
   120    51    50    2
   121    52    49    1
   122    50    49    1
   123    49    48    1
