@<TRIPOS>MOLECULE
tmp/3ra9A00.pdb
 119 116 0 0 0
SMALL
GASTEIGER

@<TRIPOS>ATOM
      1  N        100.3740 -110.4340   31.3030 N.3    91  ARG91      -0.1245
      2  CA        99.1110 -110.7440   31.9740 C.3    91  ARG91       0.1563
      3  C         98.5720 -109.5250   32.7090 C.2    91  ARG91       0.2260
      4  O         99.3270 -108.6270   33.0750 O.2    91  ARG91      -0.2867
      5  CB        99.3040 -111.8620   32.9810 C.3    91  ARG91       0.0307
      6  CG       100.2490 -111.4770   34.0600 C.3    91  ARG91       0.0489
      7  CD       100.3580 -112.5520   35.0770 C.3    91  ARG91       0.2205
      8  NE       101.4290 -112.2350   36.0060 N.pl3  91  ARG91      -0.0865
      9  CZ       101.7570 -112.9830   37.0530 C.cat  91  ARG91       0.5346
     10  NH1      101.0890 -114.1010   37.3090 N.pl3  91  ARG91       0.1354
     11  NH2      102.7580 -112.6110   37.8420 N.pl3  91  ARG91       0.1354
     12  N         95.7790 -114.1330   40.6340 N.3   201  ASP201     -0.1225
     13  CA        97.0000 -114.6330   40.0390 C.3   201  ASP201      0.1805
     14  C         96.6630 -115.5530   38.8880 C.2   201  ASP201      0.2598
     15  O         95.8790 -116.4870   39.0280 O.2   201  ASP201     -0.2718
     16  CB        97.8240 -115.3820   41.0710 C.3   201  ASP201      0.1424
     17  CG        99.0840 -114.6370   41.4330 C.2   201  ASP201      0.3668
     18  OD1       99.9610 -114.5070   40.5360 O.co2 201  ASP201     -0.2456
     19  OD2       99.1920 -114.1690   42.5990 O.co2 201  ASP201     -0.2456
     20  N         97.2640 -115.2890   37.7450 N.am  202  VAL202     -0.1966
     21  CA        96.9950 -116.0960   36.5820 C.3   202  VAL202      0.1712
     22  C         98.3470 -116.2670   35.9040 C.2   202  VAL202      0.2458
     23  O         99.2530 -115.4720   36.1200 O.2   202  VAL202     -0.2730
     24  CB        95.9800 -115.3570   35.6880 C.3   202  VAL202      0.0289
     25  CG1       96.6720 -114.2580   34.9070 C.3   202  VAL202      0.0023
     26  CG2       95.2650 -116.3240   34.7960 C.3   202  VAL202      0.0023
     27  N         98.5150 -117.3160   35.0980 N.am  203  PRO203     -0.2716
     28  CA        99.8050 -117.5150   34.4310 C.3   203  PRO203      0.1536
     29  C        100.0220 -116.5610   33.2670 C.2   203  PRO203      0.2598
     30  O         99.0680 -116.1550   32.6030 O.2   203  PRO203     -0.2715
     31  CB        99.7310 -118.9600   33.9480 C.3   203  PRO203      0.0310
     32  CG        98.6860 -119.5790   34.8190 C.3   203  PRO203      0.0237
     33  CD        97.6630 -118.5000   34.9420 C.3   203  PRO203      0.0939
     34  N        101.2760 -116.2050   33.0150 N.am  204  PHE204     -0.1974
     35  CA       101.5700 -115.3260   31.8990 C.3   204  PHE204      0.1639
     36  C        101.1170 -116.0170   30.6310 C.2   204  PHE204      0.2290
     37  O        101.1170 -117.2440   30.5520 O.2   204  PHE204     -0.2864
     38  CB       103.0660 -115.0700   31.7700 C.3   204  PHE204      0.0560
     39  CG       103.6090 -114.1380   32.7850 C.ar  204  PHE204     -0.0200
     40  CD1      104.1880 -114.6200   33.9460 C.ar  204  PHE204     -0.0042
     41  CD2      103.5310 -112.7680   32.5900 C.ar  204  PHE204     -0.0042
     42  CE1      104.6870 -113.7510   34.9030 C.ar  204  PHE204     -0.0003
     43  CE2      104.0250 -111.8890   33.5390 C.ar  204  PHE204     -0.0003
     44  CZ       104.6050 -112.3820   34.7010 C.ar  204  PHE204     -0.0000
     45  N         98.6580 -123.4980   24.9080 N.3   392  ASN392     -0.1240
     46  CA        97.2680 -123.0700   24.8140 C.3   392  ASN392      0.1653
     47  C         97.0920 -122.2240   23.5700 C.2   392  ASN392      0.2266
     48  O         98.0690 -121.7720   22.9830 O.2   392  ASN392     -0.2867
     49  CB        96.8590 -122.2540   26.0360 C.3   392  ASN392      0.1155
     50  CG        96.7850 -123.0850   27.2990 C.2   392  ASN392      0.2627
     51  OD1       96.2080 -124.1790   27.3080 O.2   392  ASN392     -0.2716
     52  ND2       97.3510 -122.5630   28.3830 N.am  392  ASN392     -0.0877
     53  N         85.6230 -118.7110   34.9980 N.3   405  ILE405     -0.1245
     54  CA        85.7040 -120.1570   35.1000 C.3   405  ILE405      0.1561
     55  C         84.4160 -120.6270   35.7470 C.2   405  ILE405      0.2260
     56  O         84.0280 -120.1430   36.8100 O.2   405  ILE405     -0.2867
     57  CB        86.8790 -120.6010   35.9700 C.3   405  ILE405      0.0252
     58  CG1       88.1890 -120.1880   35.3080 C.3   405  ILE405      0.0019
     59  CG2       86.8300 -122.1020   36.1780 C.3   405  ILE405      0.0019
     60  CD1       89.3960 -120.4860   36.1370 C.3   405  ILE405      0.0001
     61  N         87.4330 -129.2640   37.2490 N.3   411  ASN411     -0.1240
     62  CA        87.7580 -128.8170   35.9030 C.3   411  ASN411      0.1653
     63  C         89.1910 -129.2000   35.5720 C.2   411  ASN411      0.2266
     64  O         89.9810 -129.5130   36.4590 O.2   411  ASN411     -0.2867
     65  CB        87.5700 -127.3000   35.7490 C.3   411  ASN411      0.1155
     66  CG        88.5030 -126.4930   36.6300 C.2   411  ASN411      0.2627
     67  OD1       89.7100 -126.7410   36.6840 O.2   411  ASN411     -0.2716
     68  ND2       87.9440 -125.5010   37.3130 N.am  411  ASN411     -0.0877
     69  N         92.6530 -127.7990   33.4830 N.3   413  HIS413     -0.1227
     70  CA        93.3420 -126.7510   32.6370 C.3   413  HIS413      0.1737
     71  C         92.4130 -125.6190   32.1820 C.2   413  HIS413      0.2438
     72  O         92.0680 -125.4260   31.0150 O.2   413  HIS413     -0.2733
     73  CB        93.8920 -127.3950   31.4270 C.3   413  HIS413      0.0758
     74  CG        95.0270 -126.5590   30.9010 C.ar  413  HIS413      0.0818
     75  ND1       96.2960 -126.6920   31.4200 N.ar  413  HIS413     -0.2268
     76  CD2       95.0800 -125.6160   29.9340 C.ar  413  HIS413      0.1154
     77  CE1       97.1120 -125.8620   30.7940 C.ar  413  HIS413      0.1986
     78  NE2       96.3870 -125.1970   29.8880 N.ar  413  HIS413     -0.2212
     79  N         92.0180 -124.9370   33.1960 N.am  414  PRO414     -0.2718
     80  CA        90.9810 -123.8670   33.1340 C.3   414  PRO414      0.1535
     81  C         91.1040 -122.7540   32.0810 C.2   414  PRO414      0.2599
     82  O         90.3380 -121.7720   32.0940 O.2   414  PRO414     -0.2715
     83  CB        90.9140 -123.4970   34.6030 C.3   414  PRO414      0.0310
     84  CG        91.1190 -124.8550   35.2780 C.3   414  PRO414      0.0237
     85  CD        91.9330 -125.7320   34.3740 C.3   414  PRO414      0.0939
     86  N         92.0850 -122.8770   31.1780 N.am  415  SER415     -0.1950
     87  CA        92.3120 -121.8850   30.1170 C.3   415  SER415      0.1924
     88  C         91.1510 -121.7980   29.1420 C.2   415  SER415      0.2314
     89  O         90.8510 -122.8030   28.4860 O.2   415  SER415     -0.2863
     90  CB        93.5910 -122.2190   29.3700 C.3   415  SER415      0.2116
     91  OG        94.1060 -121.0750   28.7050 O.3   415  SER415     -0.2180
     92  N         92.8430 -116.6830   26.0610 N.3   420  GLY420     -0.1210
     93  CA        92.8070 -115.7560   27.1810 C.3   420  GLY420      0.1956
     94  C         93.0850 -116.2980   28.5740 C.2   420  GLY420      0.2612
     95  O         93.6160 -117.3930   28.7490 O.2   420  GLY420     -0.2717
     96  N         92.7150 -115.5080   29.5760 N.am  421  PHE421     -0.1962
     97  CA        92.9260 -115.8810   30.9620 C.3   421  PHE421      0.1771
     98  C         91.6530 -116.3360   31.6480 C.2   421  PHE421      0.2620
     99  O         90.6420 -115.6350   31.6360 O.2   421  PHE421     -0.2715
    100  CB        93.5010 -114.7060   31.7450 C.3   421  PHE421      0.0574
    101  CG        94.6720 -114.0560   31.0880 C.ar  421  PHE421     -0.0200
    102  CD1       94.4850 -113.0440   30.1600 C.ar  421  PHE421     -0.0042
    103  CD2       95.9650 -114.4560   31.3940 C.ar  421  PHE421     -0.0042
    104  CE1       95.5700 -112.4350   29.5450 C.ar  421  PHE421     -0.0003
    105  CE2       97.0560 -113.8560   30.7850 C.ar  421  PHE421     -0.0003
    106  CZ        96.8590 -112.8420   29.8590 C.ar  421  PHE421     -0.0000
    107  N         91.7090 -117.5160   32.2520 N.am  422  GLY422     -0.1954
    108  CA        90.5590 -118.0240   32.9680 C.3   422  GLY422      0.1869
    109  C         90.6520 -117.4990   34.3830 C.2   422  GLY422      0.2309
    110  O         91.6860 -117.6520   35.0280 O.2   422  GLY422     -0.2863
    111  N        106.8150 -110.1030   30.9710 N.3   471  GLN471     -0.1245
    112  CA       107.8080 -111.1130   31.2810 C.3   471  GLN471      0.1566
    113  C        108.8310 -110.9390   30.1760 C.2   471  GLN471      0.2260
    114  O        108.6260 -111.3980   29.0590 O.2   471  GLN471     -0.2867
    115  CB       107.1980 -112.5030   31.2050 C.3   471  GLN471      0.0367
    116  CG       108.1890 -113.6010   31.5050 C.3   471  GLN471      0.0905
    117  CD       107.5460 -114.9710   31.5060 C.2   471  GLN471      0.2608
    118  OE1      107.3010 -115.5660   30.4450 O.2   471  GLN471     -0.2717
    119  NE2      107.2510 -115.4800   32.7000 N.am  471  GLN471     -0.0878
@<TRIPOS>BOND
     1    48    47    2
     2    47    46    1
     3    46    45    1
     4    46    49    1
     5    49    50    1
     6    92    93    1
     7    93    94    1
     8    50    51    2
     9    50    52   am
    10    89    88    2
    11    94    95    2
    12    94    96   am
    13    91    90    1
    14   114   113    2
    15    88    87    1
    16    90    87    1
    17   104   106   ar
    18   104   102   ar
    19    96    97    1
    20   106   105   ar
    21    78    76   ar
    22    78    77   ar
    23    76    74   ar
    24    87    86    1
    25   102   101   ar
    26   113   112    1
    27   118   117    2
    28    37    36    2
    29    36    35    1
    30   105   103   ar
    31    77    75   ar
    32    74    75   ar
    33    74    73    1
    34    97    98    1
    35    97   100    1
    36   111   112    1
    37    72    71    2
    38   101   103   ar
    39   101   100    1
    40    86    81   am
    41   115   112    1
    42   115   116    1
    43     1     2    1
    44    73    70    1
    45   116   117    1
    46   117   119   am
    47    99    98    2
    48    98   107   am
    49    38    35    1
    50    38    39    1
    51    35    34    1
    52     2     3    1
    53     2     5    1
    54    81    82    2
    55    81    80    1
    56    71    70    1
    57    71    79   am
    58   107   108    1
    59    41    39   ar
    60    41    43   ar
    61    30    29    2
    62    70    69    1
    63     3     4    2
    64    39    40   ar
    65   108   109    1
    66     5     6    1
    67    34    29   am
    68    80    79    1
    69    80    83    1
    70    79    85    1
    71    29    28    1
    72    43    44   ar
    73    40    42   ar
    74    31    28    1
    75    31    32    1
    76     6     7    1
    77    85    84    1
    78   109   110    2
    79    28    27    1
    80    83    84    1
    81    44    42   ar
    82    26    24    1
    83    32    33    1
    84    25    24    1
    85    33    27    1
    86    53    54    1
    87     7     8    1
    88    27    22   am
    89    54    55    1
    90    54    57    1
    91    58    57    1
    92    58    60    1
    93    63    62    1
    94    63    64    2
    95    24    21    1
    96    55    56    2
    97    65    62    1
    98    65    66    1
    99    62    61    1
   100    22    23    2
   101    22    21    1
   102    57    59    1
   103     8     9    2
   104    21    20    1
   105    66    67    2
   106    66    68   am
   107     9    10    1
   108     9    11    1
   109    20    14   am
   110    14    15    2
   111    14    13    1
   112    13    12    1
   113    13    16    1
   114    18    17   ar
   115    16    17    1
   116    17    19   ar
