@<TRIPOS>MOLECULE
tmp/3raaA00.pdb
 80 79 0 0 0
SMALL
GASTEIGER

@<TRIPOS>ATOM
      1  N         94.9330 -113.6770   40.6490 N.3   201  ASP201     -0.1225
      2  CA        96.1430 -114.1690   40.0190 C.3   201  ASP201      0.1805
      3  C         95.7670 -115.0530   38.8650 C.2   201  ASP201      0.2598
      4  O         94.9720 -115.9730   39.0030 O.2   201  ASP201     -0.2718
      5  CB        96.9680 -114.9760   41.0000 C.3   201  ASP201      0.1424
      6  CG        98.1490 -114.2030   41.5260 C.2   201  ASP201      0.3668
      7  OD1       99.1880 -114.1410   40.8130 O.co2 201  ASP201     -0.2456
      8  OD2       98.0270 -113.6490   42.6500 O.co2 201  ASP201     -0.2456
      9  N         96.3440 -114.7830   37.7150 N.am  202  VAL202     -0.1966
     10  CA        96.0310 -115.5830   36.5700 C.3   202  VAL202      0.1712
     11  C         97.3610 -115.7740   35.8760 C.2   202  VAL202      0.2458
     12  O         98.2540 -114.9490   35.9940 O.2   202  VAL202     -0.2730
     13  CB        94.9960 -114.8500   35.7000 C.3   202  VAL202      0.0289
     14  CG1       95.6680 -113.7870   34.8620 C.3   202  VAL202      0.0023
     15  CG2       94.2300 -115.8390   34.8700 C.3   202  VAL202      0.0023
     16  N         97.5280 -116.8840   35.1700 N.am  203  PRO203     -0.2727
     17  CA        98.7900 -117.1390   34.4770 C.3   203  PRO203      0.1402
     18  C         99.0740 -116.1430   33.3590 C.2   203  PRO203      0.2269
     19  O         98.1490 -115.6070   32.7530 O.2   203  PRO203     -0.2865
     20  CB        98.6030 -118.5530   33.9420 C.3   203  PRO203      0.0296
     21  CG        97.6130 -119.1550   34.8880 C.3   203  PRO203      0.0237
     22  CD        96.6360 -118.0470   35.0870 C.3   203  PRO203      0.0939
     23  N         97.8280 -123.0170   24.9630 N.3   392  ASN392     -0.1240
     24  CA        96.4570 -122.5450   24.8820 C.3   392  ASN392      0.1653
     25  C         96.2700 -121.7690   23.6000 C.2   392  ASN392      0.2266
     26  O         97.2380 -121.3750   22.9610 O.2   392  ASN392     -0.2867
     27  CB        96.1080 -121.6330   26.0600 C.3   392  ASN392      0.1155
     28  CG        95.9770 -122.3830   27.3700 C.2   392  ASN392      0.2627
     29  OD1       95.5070 -123.5260   27.4010 O.2   392  ASN392     -0.2716
     30  ND2       96.3710 -121.7320   28.4700 N.am  392  ASN392     -0.0877
     31  N         84.7200 -118.3090   34.9530 N.3   405  ILE405     -0.1245
     32  CA        84.7610 -119.7530   35.0700 C.3   405  ILE405      0.1561
     33  C         83.4480 -120.1550   35.7210 C.2   405  ILE405      0.2260
     34  O         83.0200 -119.5510   36.7010 O.2   405  ILE405     -0.2867
     35  CB        85.9350 -120.2080   35.9370 C.3   405  ILE405      0.0252
     36  CG1       87.2440 -119.8610   35.2300 C.3   405  ILE405      0.0019
     37  CG2       85.8400 -121.6940   36.2050 C.3   405  ILE405      0.0019
     38  CD1       88.4730 -120.1900   36.0150 C.3   405  ILE405      0.0001
     39  N         91.7790 -127.4220   33.3920 N.3   413  HIS413     -0.1227
     40  CA        92.4820 -126.3690   32.5630 C.3   413  HIS413      0.1737
     41  C         91.5730 -125.2060   32.1460 C.2   413  HIS413      0.2438
     42  O         91.2180 -124.9770   30.9880 O.2   413  HIS413     -0.2733
     43  CB        93.0030 -126.9960   31.3310 C.3   413  HIS413      0.0758
     44  CG        94.1500 -126.1720   30.8110 C.ar  413  HIS413      0.0818
     45  ND1       95.4210 -126.3450   31.3120 N.ar  413  HIS413     -0.2268
     46  CD2       94.2130 -125.2070   29.8670 C.ar  413  HIS413      0.1154
     47  CE1       96.2490 -125.5190   30.6960 C.ar  413  HIS413      0.1986
     48  NE2       95.5290 -124.8160   29.8150 N.ar  413  HIS413     -0.2212
     49  N         91.2050 -124.5400   33.1810 N.am  414  PRO414     -0.2718
     50  CA        90.1910 -123.4460   33.1570 C.3   414  PRO414      0.1535
     51  C         90.3270 -122.3110   32.1300 C.2   414  PRO414      0.2599
     52  O         89.5840 -121.3130   32.1760 O.2   414  PRO414     -0.2715
     53  CB        90.1490 -123.1100   34.6360 C.3   414  PRO414      0.0310
     54  CG        90.3320 -124.4890   35.2750 C.3   414  PRO414      0.0237
     55  CD        91.1160 -125.3610   34.3410 C.3   414  PRO414      0.0939
     56  N         91.2950 -122.4340   31.2120 N.am  415  SER415     -0.1950
     57  CA        91.5320 -121.4210   30.1730 C.3   415  SER415      0.1924
     58  C         90.3610 -121.2860   29.2140 C.2   415  SER415      0.2314
     59  O         90.0320 -122.2670   28.5380 O.2   415  SER415     -0.2863
     60  CB        92.7940 -121.7660   29.4030 C.3   415  SER415      0.2116
     61  OG        93.3260 -120.6180   28.7590 O.3   415  SER415     -0.2180
     62  N         91.9680 -116.3750   26.1060 N.3   420  GLY420     -0.1210
     63  CA        91.9080 -115.4340   27.2080 C.3   420  GLY420      0.1956
     64  C         92.2470 -115.9520   28.5890 C.2   420  GLY420      0.2612
     65  O         92.8830 -117.0000   28.7510 O.2   420  GLY420     -0.2717
     66  N         91.8170 -115.1850   29.5900 N.am  421  PHE421     -0.1962
     67  CA        92.0590 -115.5200   30.9790 C.3   421  PHE421      0.1771
     68  C         90.7790 -115.9370   31.6600 C.2   421  PHE421      0.2620
     69  O         89.7650 -115.2430   31.5730 O.2   421  PHE421     -0.2715
     70  CB        92.6160 -114.3290   31.7360 C.3   421  PHE421      0.0574
     71  CG        93.7360 -113.6320   31.0440 C.ar  421  PHE421     -0.0200
     72  CD1       93.4780 -112.6560   30.0920 C.ar  421  PHE421     -0.0042
     73  CD2       95.0530 -113.9090   31.3780 C.ar  421  PHE421     -0.0042
     74  CE1       94.5140 -111.9580   29.4870 C.ar  421  PHE421     -0.0003
     75  CE2       96.1030 -113.2160   30.7770 C.ar  421  PHE421     -0.0003
     76  CZ        95.8310 -112.2380   29.8310 C.ar  421  PHE421     -0.0000
     77  N         90.8410 -117.0700   32.3470 N.am  422  GLY422     -0.1954
     78  CA        89.6830 -117.5660   33.0600 C.3   422  GLY422      0.1869
     79  C         89.7260 -117.0600   34.4860 C.2   422  GLY422      0.2309
     80  O         90.6930 -117.3060   35.2130 O.2   422  GLY422     -0.2863
@<TRIPOS>BOND
     1    26    25    2
     2    25    24    1
     3    24    23    1
     4    24    27    1
     5    27    28    1
     6    62    63    1
     7    63    64    1
     8    28    29    2
     9    28    30   am
    10    59    58    2
    11    64    65    2
    12    64    66   am
    13    61    60    1
    14    58    57    1
    15    60    57    1
    16    74    76   ar
    17    74    72   ar
    18    66    67    1
    19    48    46   ar
    20    48    47   ar
    21    76    75   ar
    22    46    44   ar
    23    72    71   ar
    24    57    56    1
    25    47    45   ar
    26    75    73   ar
    27    44    45   ar
    28    44    43    1
    29    67    68    1
    30    67    70    1
    31    42    41    2
    32    71    73   ar
    33    71    70    1
    34    56    51   am
    35    43    40    1
    36    69    68    2
    37    68    77   am
    38    51    52    2
    39    51    50    1
    40    41    40    1
    41    41    49   am
    42    77    78    1
    43    40    39    1
    44    19    18    2
    45    78    79    1
    46    50    49    1
    47    50    53    1
    48    49    55    1
    49    18    17    1
    50    20    17    1
    51    20    21    1
    52    55    54    1
    53    17    16    1
    54    79    80    2
    55    53    54    1
    56    14    13    1
    57    15    13    1
    58    21    22    1
    59    31    32    1
    60    32    33    1
    61    32    35    1
    62    22    16    1
    63    16    11   am
    64    36    35    1
    65    36    38    1
    66    13    10    1
    67    33    34    2
    68    11    12    2
    69    11    10    1
    70    35    37    1
    71    10     9    1
    72     9     3   am
    73     3     4    2
    74     3     2    1
    75     2     1    1
    76     2     5    1
    77     7     6   ar
    78     5     6    1
    79     6     8   ar
