@<TRIPOS>MOLECULE
tmp/3rahA00.pdb
 200 190 0 0 0
SMALL
GASTEIGER

@<TRIPOS>ATOM
      1  N         95.0020   91.5080  -44.6940 N.3     8  GLU8       -0.1245
      2  CA        94.7900   90.8580  -43.4080 C.3     8  GLU8        0.1567
      3  C         95.3170   89.4280  -43.4130 C.2     8  GLU8        0.2260
      4  O         95.4740   88.8100  -44.4660 O.2     8  GLU8       -0.2867
      5  CB        93.3000   90.8450  -43.0510 C.3     8  GLU8        0.0388
      6  CG        92.4270   90.0750  -44.0270 C.3     8  GLU8        0.1160
      7  CD        90.9610   90.1020  -43.6410 C.2     8  GLU8        0.3649
      8  OE1       90.1360   89.5350  -44.3900 O.co2   8  GLU8       -0.2457
      9  OE2       90.6320   90.6910  -42.5890 O.co2   8  GLU8       -0.2457
     10  N         95.0050   85.6190  -43.1290 N.3    10  ILE10      -0.1231
     11  CA        93.8970   84.7030  -43.3560 C.3    10  ILE10       0.1692
     12  C         93.9840   83.5970  -42.3180 C.2    10  ILE10       0.2593
     13  O         92.9770   83.2000  -41.7300 O.2    10  ILE10      -0.2718
     14  CB        93.9430   84.0930  -44.7880 C.3    10  ILE10       0.0266
     15  CG1       93.5640   85.1640  -45.8130 C.3    10  ILE10       0.0019
     16  CG2       92.9940   82.8970  -44.8930 C.3    10  ILE10       0.0020
     17  CD1       93.6720   84.7130  -47.2660 C.3    10  ILE10       0.0001
     18  N         95.2000   83.1210  -42.0760 N.am   11  GLY11      -0.1942
     19  CA        95.4000   82.0640  -41.1050 C.3    11  GLY11       0.2014
     20  C         96.7550   81.4020  -41.2510 C.2    11  GLY11       0.2639
     21  O         97.6260   81.9000  -41.9620 O.2    11  GLY11      -0.2714
     22  N         96.9310   80.2770  -40.5650 N.am   12  GLU12      -0.1963
     23  CA        98.1750   79.5230  -40.6100 C.3    12  GLU12       0.1733
     24  C         98.0050   78.2950  -41.4950 C.2    12  GLU12       0.2617
     25  O         97.2300   77.3920  -41.1700 O.2    12  GLU12      -0.2715
     26  CB        98.5690   79.0610  -39.2050 C.3    12  GLU12       0.0429
     27  CG        98.7820   80.1720  -38.1910 C.3    12  GLU12       0.1163
     28  CD       100.0880   80.9170  -38.3940 C.2    12  GLU12       0.3649
     29  OE1      100.9910   80.3750  -39.0710 O.co2  12  GLU12      -0.2457
     30  OE2      100.2180   82.0420  -37.8570 O.co2  12  GLU12      -0.2457
     31  N         98.7380   78.2580  -42.6010 N.am   13  GLY13      -0.1940
     32  CA        98.6600   77.1200  -43.4990 C.3    13  GLY13       0.2014
     33  C         99.7100   76.0800  -43.1560 C.2    13  GLY13       0.2639
     34  O        100.5210   76.2820  -42.2580 O.2    13  GLY13      -0.2714
     35  N         99.7050   74.9690  -43.8820 N.am   14  THR14      -0.1950
     36  CA       100.6610   73.8920  -43.6530 C.3    14  THR14       0.1897
     37  C        102.1150   74.3490  -43.6760 C.2    14  THR14       0.2313
     38  O        102.9300   73.8800  -42.8770 O.2    14  THR14      -0.2863
     39  CB       100.4940   72.7930  -44.7150 C.3    14  THR14       0.1794
     40  OG1       99.1450   72.3130  -44.6880 O.3    14  THR14      -0.2208
     41  CG2      101.4610   71.6370  -44.4570 C.3    14  THR14       0.0378
     42  N         99.3560   82.6620  -44.1450 N.3    18  VAL18      -0.1245
     43  CA        98.6790   82.9990  -45.4040 C.3    18  VAL18       0.1561
     44  C         97.9830   84.3340  -45.2020 C.2    18  VAL18       0.2260
     45  O         97.2570   84.5200  -44.2280 O.2    18  VAL18      -0.2867
     46  CB        97.6020   81.9690  -45.7960 C.3    18  VAL18       0.0252
     47  CG1       96.9740   82.3690  -47.1360 C.3    18  VAL18       0.0019
     48  CG2       98.2220   80.5740  -45.9070 C.3    18  VAL18       0.0019
     49  N         95.7860   87.7840  -47.0330 N.3    20  LYS20      -0.1245
     50  CA        94.9940   88.2720  -48.1490 C.3    20  LYS20       0.1561
     51  C         95.8360   89.5070  -48.4710 C.2    20  LYS20       0.2260
     52  O         96.1300   90.3170  -47.5750 O.2    20  LYS20      -0.2867
     53  CB        93.5940   88.7060  -47.7100 C.3    20  LYS20       0.0271
     54  CG        92.7890   89.3660  -48.8270 C.3    20  LYS20       0.0035
     55  CD        91.3590   89.5530  -48.3940 C.3    20  LYS20       0.0206
     56  CE        90.5170   90.2230  -49.4500 C.3    20  LYS20       0.1093
     57  NZ        89.1200   90.3770  -48.9450 N.3    20  LYS20      -0.1314
     58  N         95.8790   85.4420  -52.4940 N.3    31  ALA31      -0.1245
     59  CA        96.1660   84.7190  -51.2630 C.3    31  ALA31       0.1562
     60  C         97.6810   84.5470  -51.3490 C.2    31  ALA31       0.2260
     61  O         98.1940   83.8330  -52.2180 O.2    31  ALA31      -0.2867
     62  CB        95.4820   83.3580  -51.2420 C.3    31  ALA31       0.0290
     63  N        101.0180   83.1720  -49.7160 N.3    33  LYS33      -0.1245
     64  CA       101.4610   82.1780  -48.7400 C.3    33  LYS33       0.1561
     65  C        102.9620   82.2080  -48.5150 C.2    33  LYS33       0.2260
     66  O        103.7330   81.9600  -49.4380 O.2    33  LYS33      -0.2867
     67  CB       101.0580   80.7730  -49.2070 C.3    33  LYS33       0.0271
     68  CG        99.5920   80.6910  -49.5950 C.3    33  LYS33       0.0035
     69  CD        99.1370   79.2570  -49.8310 C.3    33  LYS33       0.0206
     70  CE        97.6640   79.2190  -50.2120 C.3    33  LYS33       0.1093
     71  NZ        97.0910   77.8430  -50.1660 N.3    33  LYS33      -0.1314
     72  N         92.7410   75.9080  -57.7170 N.3    56  VAL56      -0.1245
     73  CA        93.0660   77.3050  -57.3720 C.3    56  VAL56       0.1561
     74  C         94.3710   77.6160  -58.1110 C.2    56  VAL56       0.2260
     75  O         95.3870   76.9470  -57.9130 O.2    56  VAL56      -0.2867
     76  CB        93.2620   77.4740  -55.8380 C.3    56  VAL56       0.0252
     77  CG1       93.6740   78.9090  -55.5000 C.3    56  VAL56       0.0019
     78  CG2       91.9590   77.1490  -55.1140 C.3    56  VAL56       0.0019
     79  N         98.5340   82.8300  -54.8630 N.3    72  PHE72      -0.1227
     80  CA        97.3970   82.0600  -55.3600 C.3    72  PHE72       0.1736
     81  C         96.2000   82.9570  -55.6470 C.2    72  PHE72       0.2595
     82  O         96.0380   84.0110  -55.0290 O.2    72  PHE72      -0.2718
     83  CB        96.9540   81.0300  -54.3090 C.3    72  PHE72       0.0547
     84  CG        97.7690   79.7530  -54.2950 C.ar   72  PHE72      -0.0202
     85  CD1       97.3910   78.6640  -55.0810 C.ar   72  PHE72      -0.0042
     86  CD2       98.8840   79.6280  -53.4640 C.ar   72  PHE72      -0.0042
     87  CE1       98.1040   77.4600  -55.0390 C.ar   72  PHE72      -0.0003
     88  CE2       99.6040   78.4330  -53.4170 C.ar   72  PHE72      -0.0003
     89  CZ        99.2160   77.3470  -54.2000 C.ar   72  PHE72      -0.0000
     90  N         95.3490   82.5290  -56.5740 N.am   73  GLU73      -0.1965
     91  CA        94.1330   83.2940  -56.8690 C.3    73  GLU73       0.1733
     92  C         93.3170   83.2620  -55.5750 C.2    73  GLU73       0.2616
     93  O         93.3280   82.2720  -54.8440 O.2    73  GLU73      -0.2715
     94  CB        93.3370   82.6610  -58.0210 C.3    73  GLU73       0.0429
     95  CG        92.6490   81.3760  -57.6800 C.3    73  GLU73       0.1163
     96  CD        91.6560   80.9290  -58.7480 C.2    73  GLU73       0.3649
     97  OE1       90.5640   81.5350  -58.8780 O.co2  73  GLU73      -0.2457
     98  OE2       91.9730   79.9660  -59.4550 O.co2  73  GLU73      -0.2457
     99  N         92.6170   84.3530  -55.2930 N.am   74  PHE74      -0.1960
    100  CA        91.8390   84.4780  -54.0700 C.3    74  PHE74       0.1771
    101  C         90.3830   84.0550  -54.2330 C.2    74  PHE74       0.2619
    102  O         89.7580   84.3860  -55.2350 O.2    74  PHE74      -0.2715
    103  CB        91.9030   85.9480  -53.6040 C.3    74  PHE74       0.0574
    104  CG        91.1730   86.2280  -52.3220 C.ar   74  PHE74      -0.0200
    105  CD1       89.8560   86.6830  -52.3410 C.ar   74  PHE74      -0.0042
    106  CD2       91.7950   86.0210  -51.0950 C.ar   74  PHE74      -0.0042
    107  CE1       89.1680   86.9260  -51.1530 C.ar   74  PHE74      -0.0003
    108  CE2       91.1180   86.2590  -49.9020 C.ar   74  PHE74      -0.0003
    109  CZ        89.7920   86.7150  -49.9370 C.ar   74  PHE74      -0.0000
    110  N         89.8640   83.2990  -53.2650 N.am   75  LEU75      -0.1963
    111  CA        88.4480   82.9150  -53.2780 C.3    75  LEU75       0.1728
    112  C         87.8690   83.4000  -51.9520 C.2    75  LEU75       0.2616
    113  O         88.6080   83.5560  -50.9910 O.2    75  LEU75      -0.2715
    114  CB        88.2640   81.4010  -53.4790 C.3    75  LEU75       0.0311
    115  CG        88.3300   81.0400  -54.9710 C.3    75  LEU75       0.0022
    116  CD1       89.7350   80.6110  -55.3240 C.3    75  LEU75       0.0001
    117  CD2       87.3340   79.9380  -55.3080 C.3    75  LEU75       0.0001
    118  N         86.5590   83.6450  -51.8790 N.am   76  HIS76      -0.1959
    119  CA        86.0040   84.2070  -50.6440 C.3    76  HIS76       0.1787
    120  C         85.6070   83.3230  -49.4820 C.2    76  HIS76       0.2620
    121  O         85.3540   83.8290  -48.3850 O.2    76  HIS76      -0.2715
    122  CB        84.8410   85.1510  -50.9660 C.3    76  HIS76       0.0785
    123  CG        85.2820   86.4800  -51.4920 C.ar   76  HIS76       0.0821
    124  ND1       85.7040   86.6630  -52.7900 N.ar   76  HIS76      -0.2267
    125  CD2       85.3980   87.6860  -50.8830 C.ar   76  HIS76       0.1154
    126  CE1       86.0620   87.9240  -52.9590 C.ar   76  HIS76       0.1986
    127  NE2       85.8850   88.5650  -51.8180 N.ar   76  HIS76      -0.2212
    128  N         85.5590   82.0110  -49.6840 N.am   77  GLN77      -0.1963
    129  CA        85.1980   81.1490  -48.5680 C.3    77  GLN77       0.1733
    130  C         85.7360   79.7440  -48.7860 C.2    77  GLN77       0.2616
    131  O         85.9590   79.3480  -49.9240 O.2    77  GLN77      -0.2715
    132  CB        83.6760   81.1060  -48.4160 C.3    77  GLN77       0.0408
    133  CG        83.2010   80.5370  -47.0790 C.3    77  GLN77       0.0908
    134  CD        81.8070   81.0060  -46.7320 C.2    77  GLN77       0.2608
    135  OE1       81.5810   82.2000  -46.5070 O.2    77  GLN77      -0.2717
    136  NE2       80.8630   80.0810  -46.7040 N.am   77  GLN77      -0.0878
    137  N         86.0130   79.0270  -47.6960 N.am   78  ASP78      -0.1971
    138  CA        86.4650   77.6470  -47.8190 C.3    78  ASP78       0.1709
    139  C         85.3070   76.7350  -47.4140 C.2    78  ASP78       0.2293
    140  O         84.3300   77.1830  -46.8130 O.2    78  ASP78      -0.2864
    141  CB        87.7180   77.3500  -46.9740 C.3    78  ASP78       0.1436
    142  CG        87.4960   77.5230  -45.4780 C.2    78  ASP78       0.3671
    143  OD1       86.5040   77.0130  -44.9310 O.co2  78  ASP78      -0.2456
    144  OD2       88.3490   78.1670  -44.8390 O.co2  78  ASP78      -0.2456
    145  N         84.2700   76.4760  -43.5390 N.3    81  LYS81      -0.1245
    146  CA        83.3700   77.5170  -43.0470 C.3    81  LYS81       0.1561
    147  C         81.9700   77.3750  -43.6250 C.2    81  LYS81       0.2260
    148  O         80.9820   77.5800  -42.9160 O.2    81  LYS81      -0.2867
    149  CB        83.9260   78.9090  -43.3670 C.3    81  LYS81       0.0271
    150  CG        85.2540   79.1920  -42.6990 C.3    81  LYS81       0.0035
    151  CD        85.7390   80.5930  -43.0310 C.3    81  LYS81       0.0206
    152  CE        87.1170   80.8530  -42.4640 C.3    81  LYS81       0.1093
    153  NZ        88.1310   79.9190  -43.0240 N.3    81  LYS81      -0.1314
    154  N         91.5710   68.6170  -47.4480 N.3   121  LYS121     -0.1245
    155  CA        90.7330   68.8220  -46.2730 C.3   121  LYS121      0.1561
    156  C         89.8120   69.9970  -46.5890 C.2   121  LYS121      0.2260
    157  O         90.0880   70.7840  -47.4880 O.2   121  LYS121     -0.2867
    158  CB        91.5870   69.1130  -45.0270 C.3   121  LYS121      0.0271
    159  CG        92.6120   70.2180  -45.1930 C.3   121  LYS121      0.0035
    160  CD        93.6580   70.1270  -44.0700 C.3   121  LYS121      0.0206
    161  CE        94.8280   71.0520  -44.3180 C.3   121  LYS121      0.1093
    162  NZ        95.8660   70.8740  -43.2650 N.3   121  LYS121     -0.1314
    163  N         89.4690   72.7920  -45.3760 N.3   123  GLN123     -0.1231
    164  CA        90.2060   74.0540  -45.3300 C.3   123  GLN123      0.1698
    165  C         90.8480   74.4540  -46.6510 C.2   123  GLN123      0.2592
    166  O         91.0280   75.6510  -46.9190 O.2   123  GLN123     -0.2718
    167  CB        91.3130   73.9780  -44.2810 C.3   123  GLN123      0.0381
    168  CG        91.1030   74.8070  -43.0420 C.3   123  GLN123      0.0905
    169  CD        92.4050   74.9720  -42.2660 C.2   123  GLN123      0.2608
    170  OE1       93.1920   74.0250  -42.1440 O.2   123  GLN123     -0.2717
    171  NE2       92.6390   76.1710  -41.7380 N.am  123  GLN123     -0.0878
    172  N         91.2420   73.4800  -47.4680 N.am  124  ASN124     -0.1974
    173  CA        91.8520   73.8560  -48.7300 C.3   124  ASN124      0.1688
    174  C         90.9740   73.6460  -49.9480 C.2   124  ASN124      0.2292
    175  O         91.4670   73.5670  -51.0780 O.2   124  ASN124     -0.2864
    176  CB        93.2540   73.2380  -48.9280 C.3   124  ASN124      0.1181
    177  CG        93.3000   71.7380  -48.7280 C.2   124  ASN124      0.2629
    178  OD1       92.3970   71.0130  -49.1380 O.2   124  ASN124     -0.2716
    179  ND2       94.3970   71.2590  -48.1140 N.am  124  ASN124     -0.0877
    180  N         88.1360   75.5970  -51.7650 N.3   126  LEU126     -0.1245
    181  CA        87.6340   76.9740  -51.8030 C.3   126  LEU126      0.1561
    182  C         86.4380   77.1320  -52.7250 C.2   126  LEU126      0.2260
    183  O         86.3960   76.5420  -53.7880 O.2   126  LEU126     -0.2867
    184  CB        88.7410   77.9190  -52.2910 C.3   126  LEU126      0.0270
    185  CG        89.9720   78.2260  -51.4330 C.3   126  LEU126      0.0019
    186  CD1       89.5340   79.0060  -50.1960 C.3   126  LEU126      0.0001
    187  CD2       90.6890   76.9620  -51.0540 C.3   126  LEU126      0.0001
    188  N         93.0710   73.8100  -53.5690 N.3   136  ALA136     -0.1231
    189  CA        94.3090   74.5670  -53.4700 C.3   136  ALA136      0.1694
    190  C         95.4030   73.6690  -52.9080 C.2   136  ALA136      0.2592
    191  O         95.1060   72.7220  -52.1870 O.2   136  ALA136     -0.2718
    192  CB        94.1080   75.7480  -52.5550 C.3   136  ALA136      0.0304
    193  N         96.6530   73.9760  -53.2550 N.am  137  ASP137     -0.1974
    194  CA        97.8430   73.2790  -52.7590 C.3   137  ASP137      0.1709
    195  C         98.2360   71.9230  -53.3350 C.2   137  ASP137      0.2293
    196  O         99.0210   71.1890  -52.7280 O.2   137  ASP137     -0.2864
    197  CB        97.7930   73.2140  -51.2260 C.3   137  ASP137      0.1436
    198  CG        97.8090   74.5970  -50.5850 C.2   137  ASP137      0.3671
    199  OD1       98.0080   75.5930  -51.3220 O.co2 137  ASP137     -0.2456
    200  OD2       97.6240   74.6990  -49.3480 O.co2 137  ASP137     -0.2456
@<TRIPOS>BOND
     1    98    96   ar
     2    97    96   ar
     3    96    95    1
     4    74    75    2
     5    74    73    1
     6    94    95    1
     7    94    91    1
     8    72    73    1
     9    73    76    1
    10    91    90    1
    11    91    92    1
    12    90    81   am
    13    76    77    1
    14    76    78    1
    15    81    80    1
    16    81    82    2
    17    92    99   am
    18    92    93    2
    19    80    79    1
    20    80    83    1
    21   116   115    1
    22   117   115    1
    23    99   100    1
    24   102   101    2
    25    85    87   ar
    26    85    84   ar
    27    87    89   ar
    28   115   114    1
    29    83    84    1
    30    84    86   ar
    31   101   100    1
    32   101   110   am
    33    89    88   ar
    34   100   103    1
    35   183   182    2
    36   103   104    1
    37   188   189    1
    38   114   111    1
    39   189   190    1
    40   189   192    1
    41    86    88   ar
    42   195   194    1
    43   195   196    2
    44   111   110    1
    45   111   112    1
    46   193   190   am
    47   193   194    1
    48   126   124   ar
    49   126   127   ar
    50   190   191    2
    51   124   123   ar
    52   194   197    1
    53   182   181    1
    54    58    59    1
    55   105   104   ar
    56   105   107   ar
    57   104   106   ar
    58   184   181    1
    59   184   185    1
    60    61    60    2
    61   112   118   am
    62   112   113    2
    63   118   119    1
    64   127   125   ar
    65   181   180    1
    66   123   122    1
    67   123   125   ar
    68   185   187    1
    69   185   186    1
    70    60    59    1
    71   199   198   ar
    72    59    62    1
    73   197   198    1
    74   107   109   ar
    75   106   108   ar
    76   175   174    2
    77   122   119    1
    78   119   120    1
    79   198   200   ar
    80    70    71    1
    81    70    69    1
    82   174   173    1
    83   109   108   ar
    84   131   130    2
    85    69    68    1
    86    63    64    1
    87   128   120   am
    88   128   129    1
    89    68    67    1
    90   120   121    2
    91    56    57    1
    92    56    55    1
    93    66    65    2
    94    67    64    1
    95   178   177    2
    96   176   173    1
    97   176   177    1
    98    54    55    1
    99    54    53    1
   100   130   129    1
   101   130   137   am
   102    64    65    1
   103   173   172    1
   104   177   179   am
   105   129   132    1
   106    51    50    1
   107    51    52    2
   108   132   133    1
   109    50    53    1
   110    50    49    1
   111   138   137    1
   112   138   139    1
   113   138   141    1
   114   157   156    2
   115   172   165   am
   116   154   155    1
   117   139   140    2
   118    17    15    1
   119    47    46    1
   120   133   134    1
   121   141   142    1
   122   166   165    2
   123   134   136   am
   124   134   135    2
   125   165   164    1
   126   156   155    1
   127   155   158    1
   128    48    46    1
   129    15    14    1
   130    46    43    1
   131   142   143   ar
   132   142   144   ar
   133    43    44    1
   134    43    42    1
   135   163   164    1
   136   164   167    1
   137    44    45    2
   138   159   158    1
   139   159   160    1
   140    16    14    1
   141    14    11    1
   142    39    40    1
   143    39    41    1
   144    39    36    1
   145     1     2    1
   146     4     3    2
   147     8     7   ar
   148   161   160    1
   149   161   162    1
   150   167   168    1
   151     6     7    1
   152     6     5    1
   153    35    36    1
   154    35    33   am
   155    37    36    1
   156    37    38    2
   157     7     9   ar
   158   147   146    1
   159   147   148    2
   160   145   146    1
   161    32    33    1
   162    32    31    1
   163     3     2    1
   164     2     5    1
   165   149   146    1
   166   149   150    1
   167    11    10    1
   168    11    12    1
   169    33    34    2
   170   168   169    1
   171   151   150    1
   172   151   152    1
   173   153   152    1
   174    31    24   am
   175    12    18   am
   176    12    13    2
   177   169   170    2
   178   169   171   am
   179    18    19    1
   180    21    20    2
   181    24    25    2
   182    24    23    1
   183    20    19    1
   184    20    22   am
   185    23    22    1
   186    23    26    1
   187    26    27    1
   188    29    28   ar
   189    28    27    1
   190    28    30   ar
