@<TRIPOS>MOLECULE
tmp/3raiA00.pdb
 192 181 0 0 0
SMALL
GASTEIGER

@<TRIPOS>ATOM
      1  N        -67.8930  -56.1150   -8.1440 N.3     8  GLU8       -0.1245
      2  CA       -67.6120  -55.4750   -6.8630 C.3     8  GLU8        0.1567
      3  C        -68.2560  -54.0980   -6.7940 C.2     8  GLU8        0.2260
      4  O        -68.6000  -53.5100   -7.8170 O.2     8  GLU8       -0.2867
      5  CB       -66.1020  -55.3330   -6.6370 C.3     8  GLU8        0.0388
      6  CG       -65.4010  -54.3920   -7.6070 C.3     8  GLU8        0.1160
      7  CD       -63.9330  -54.1820   -7.2680 C.2     8  GLU8        0.3649
      8  OE1      -63.2130  -55.1910   -7.1020 O.co2   8  GLU8       -0.2457
      9  OE2      -63.4970  -53.0100   -7.1760 O.co2   8  GLU8       -0.2457
     10  N        -68.1240  -50.3300   -6.5210 N.3    10  ILE10      -0.1231
     11  CA       -67.1620  -49.2630   -6.7660 C.3    10  ILE10       0.1692
     12  C        -67.3590  -48.1710   -5.7130 C.2    10  ILE10       0.2592
     13  O        -66.4130  -47.4880   -5.3210 O.2    10  ILE10      -0.2718
     14  CB       -67.3540  -48.6630   -8.1770 C.3    10  ILE10       0.0266
     15  CG1      -66.9480  -49.6850   -9.2400 C.3    10  ILE10       0.0019
     16  CG2      -66.5360  -47.4050   -8.3250 C.3    10  ILE10       0.0020
     17  CD1      -67.1330  -49.1990  -10.6680 C.3    10  ILE10       0.0001
     18  N        -68.5960  -48.0140   -5.2530 N.am   11  GLY11      -0.1957
     19  CA       -68.8740  -47.0140   -4.2440 C.3    11  GLY11       0.1869
     20  C        -70.2880  -46.4820   -4.2920 C.2    11  GLY11       0.2309
     21  O        -71.1320  -46.9830   -5.0320 O.2    11  GLY11      -0.2863
     22  N        -72.0390  -43.4030   -5.3720 N.3    13  GLY13      -0.1225
     23  CA       -71.9930  -42.1550   -6.1180 C.3    13  GLY13       0.1811
     24  C        -73.0080  -41.1110   -5.6920 C.2    13  GLY13       0.2280
     25  O        -73.7680  -41.3140   -4.7460 O.2    13  GLY13      -0.2866
     26  N        -72.8020  -47.6530   -7.2050 N.3    18  VAL18      -0.1245
     27  CA       -72.1510  -47.9710   -8.4710 C.3    18  VAL18       0.1561
     28  C        -71.3760  -49.2670   -8.3000 C.2    18  VAL18       0.2260
     29  O        -70.6110  -49.4170   -7.3510 O.2    18  VAL18      -0.2867
     30  CB       -71.1630  -46.8770   -8.9150 C.3    18  VAL18       0.0252
     31  CG1      -70.5880  -47.2340  -10.2870 C.3    18  VAL18       0.0019
     32  CG2      -71.8690  -45.5290   -9.0040 C.3    18  VAL18       0.0019
     33  N        -69.0160  -52.4530  -10.3390 N.3    20  LYS20      -0.1245
     34  CA       -68.2400  -52.8330  -11.5080 C.3    20  LYS20       0.1561
     35  C        -68.9900  -54.1210  -11.8290 C.2    20  LYS20       0.2260
     36  O        -69.2290  -54.9390  -10.9300 O.2    20  LYS20      -0.2867
     37  CB       -66.8050  -53.1490  -11.1260 C.3    20  LYS20       0.0271
     38  CG       -65.9450  -53.6170  -12.3050 C.3    20  LYS20       0.0035
     39  CD       -64.5740  -54.0070  -11.7920 C.3    20  LYS20       0.0206
     40  CE       -63.6550  -54.4400  -12.9250 C.3    20  LYS20       0.1093
     41  NZ       -62.3220  -54.7720  -12.3600 N.3    20  LYS20      -0.1314
     42  N        -69.4110  -50.1620  -15.6910 N.3    31  ALA31      -0.1245
     43  CA       -69.7500  -49.5610  -14.4020 C.3    31  ALA31       0.1562
     44  C        -71.2640  -49.4300  -14.4800 C.2    31  ALA31       0.2260
     45  O        -71.8070  -48.8460  -15.4190 O.2    31  ALA31      -0.2867
     46  CB       -69.0930  -48.1820  -14.2200 C.3    31  ALA31       0.0290
     47  N        -74.5320  -47.9710  -12.6600 N.3    33  LYS33      -0.1245
     48  CA       -75.0190  -47.0320  -11.6560 C.3    33  LYS33       0.1561
     49  C        -76.5110  -47.2540  -11.4380 C.2    33  LYS33       0.2260
     50  O        -77.2800  -47.2140  -12.3880 O.2    33  LYS33      -0.2867
     51  CB       -74.8310  -45.5880  -12.1150 C.3    33  LYS33       0.0271
     52  CG       -73.4110  -45.1060  -12.2980 C.3    33  LYS33       0.0035
     53  CD       -73.4580  -43.5980  -12.5730 C.3    33  LYS33       0.0206
     54  CE       -72.0910  -42.9250  -12.5600 C.3    33  LYS33       0.1093
     55  NZ       -71.1770  -43.4910  -13.5870 N.3    33  LYS33      -0.1314
     56  N        -66.4890  -40.3450  -20.8040 N.3    60  VAL60      -0.1245
     57  CA       -66.8540  -41.7200  -20.4490 C.3    60  VAL60       0.1561
     58  C        -68.1560  -42.0920  -21.1780 C.2    60  VAL60       0.2260
     59  O        -69.1930  -41.4680  -20.9760 O.2    60  VAL60      -0.2867
     60  CB       -67.0270  -41.8530  -18.9080 C.3    60  VAL60       0.0252
     61  CG1      -67.5080  -43.2710  -18.5440 C.3    60  VAL60       0.0019
     62  CG2      -65.6830  -41.5610  -18.2320 C.3    60  VAL60       0.0019
     63  N        -72.1260  -47.5180  -17.9540 N.3    76  PHE76      -0.1227
     64  CA       -71.0180  -46.7300  -18.4710 C.3    76  PHE76       0.1736
     65  C        -69.8000  -47.5710  -18.7850 C.2    76  PHE76       0.2595
     66  O        -69.5900  -48.6330  -18.1950 O.2    76  PHE76      -0.2718
     67  CB       -70.5810  -45.6870  -17.4310 C.3    76  PHE76       0.0547
     68  CG       -71.5550  -44.5820  -17.2340 C.ar   76  PHE76      -0.0202
     69  CD1      -71.6870  -43.5810  -18.1890 C.ar   76  PHE76      -0.0042
     70  CD2      -72.3350  -44.5240  -16.0830 C.ar   76  PHE76      -0.0042
     71  CE1      -72.5890  -42.5270  -17.9980 C.ar   76  PHE76      -0.0003
     72  CE2      -73.2370  -43.4690  -15.8890 C.ar   76  PHE76      -0.0003
     73  CZ       -73.3580  -42.4760  -16.8500 C.ar   76  PHE76      -0.0000
     74  N        -68.9770  -47.0890  -19.7100 N.am   77  GLU77      -0.1965
     75  CA       -67.7370  -47.7950  -20.0030 C.3    77  GLU77       0.1733
     76  C        -66.9330  -47.7420  -18.6860 C.2    77  GLU77       0.2616
     77  O        -67.0470  -46.7920  -17.9040 O.2    77  GLU77      -0.2715
     78  CB       -66.9560  -47.1140  -21.1430 C.3    77  GLU77       0.0429
     79  CG       -66.1990  -45.8660  -20.7570 C.3    77  GLU77       0.1163
     80  CD       -65.2920  -45.3210  -21.8730 C.2    77  GLU77       0.3649
     81  OE1      -64.1670  -45.8340  -22.0920 O.co2  77  GLU77      -0.2457
     82  OE2      -65.7080  -44.3630  -22.5380 O.co2  77  GLU77      -0.2457
     83  N        -66.1470  -48.7810  -18.4340 N.am   78  PHE78      -0.1960
     84  CA       -65.3610  -48.8780  -17.2070 C.3    78  PHE78       0.1771
     85  C        -63.9010  -48.4200  -17.3480 C.2    78  PHE78       0.2619
     86  O        -63.2360  -48.7410  -18.3420 O.2    78  PHE78      -0.2715
     87  CB       -65.3650  -50.3400  -16.7260 C.3    78  PHE78       0.0574
     88  CG       -64.5720  -50.5760  -15.4790 C.ar   78  PHE78      -0.0200
     89  CD1      -63.2520  -51.0370  -15.5400 C.ar   78  PHE78      -0.0042
     90  CD2      -65.1460  -50.3400  -14.2320 C.ar   78  PHE78      -0.0042
     91  CE1      -62.5270  -51.2590  -14.3740 C.ar   78  PHE78      -0.0003
     92  CE2      -64.4290  -50.5560  -13.0620 C.ar   78  PHE78      -0.0003
     93  CZ       -63.1090  -51.0180  -13.1310 C.ar   78  PHE78      -0.0000
     94  N        -63.4190  -47.6510  -16.3700 N.am   79  LEU79      -0.1963
     95  CA       -62.0170  -47.2200  -16.3250 C.3    79  LEU79       0.1728
     96  C        -61.5560  -47.6090  -14.9320 C.2    79  LEU79       0.2616
     97  O        -62.3390  -47.5450  -13.9930 O.2    79  LEU79      -0.2715
     98  CB       -61.8390  -45.7170  -16.5710 C.3    79  LEU79       0.0311
     99  CG       -61.7660  -45.3960  -18.0650 C.3    79  LEU79       0.0022
    100  CD1      -63.1710  -45.0290  -18.5560 C.3    79  LEU79       0.0001
    101  CD2      -60.8100  -44.2570  -18.3240 C.3    79  LEU79       0.0001
    102  N        -60.2960  -48.0230  -14.8100 N.am   80  HIS80      -0.1959
    103  CA       -59.7620  -48.5250  -13.5470 C.3    80  HIS80       0.1787
    104  C        -59.4400  -47.6000  -12.3870 C.2    80  HIS80       0.2620
    105  O        -59.3710  -48.0490  -11.2400 O.2    80  HIS80      -0.2715
    106  CB       -58.5190  -49.3780  -13.8300 C.3    80  HIS80       0.0785
    107  CG       -58.8290  -50.7080  -14.4430 C.ar   80  HIS80       0.0821
    108  ND1      -59.0320  -50.8800  -15.7950 N.ar   80  HIS80      -0.2267
    109  CD2      -59.0090  -51.9220  -13.8740 C.ar   80  HIS80       0.1154
    110  CE1      -59.3300  -52.1470  -16.0330 C.ar   80  HIS80       0.1986
    111  NE2      -59.3230  -52.7990  -14.8840 N.ar   80  HIS80      -0.2212
    112  N        -59.2130  -46.3230  -12.6540 N.am   81  GLN81      -0.1963
    113  CA       -58.8710  -45.4470  -11.5410 C.3    81  GLN81       0.1733
    114  C        -59.3950  -44.0610  -11.8050 C.2    81  GLN81       0.2616
    115  O        -59.6600  -43.7100  -12.9480 O.2    81  GLN81      -0.2715
    116  CB       -57.3570  -45.4040  -11.3700 C.3    81  GLN81       0.0408
    117  CG       -56.8530  -44.7410  -10.0830 C.3    81  GLN81       0.0908
    118  CD       -55.4170  -45.1250   -9.7690 C.2    81  GLN81       0.2608
    119  OE1      -55.1210  -46.2910   -9.4720 O.2    81  GLN81      -0.2717
    120  NE2      -54.5160  -44.1580   -9.8400 N.am   81  GLN81      -0.0878
    121  N        -59.5820  -43.2920  -10.7390 N.am   82  ASP82      -0.1971
    122  CA       -60.0430  -41.9160  -10.8930 C.3    82  ASP82       0.1709
    123  C        -58.8900  -40.9990  -10.5130 C.2    82  ASP82       0.2293
    124  O        -57.9200  -41.4300   -9.8950 O.2    82  ASP82      -0.2864
    125  CB       -61.2820  -41.6260  -10.0320 C.3    82  ASP82       0.1436
    126  CG       -61.0500  -41.8870   -8.5550 C.2    82  ASP82       0.3671
    127  OD1      -60.3740  -41.0750   -7.8930 O.co2  82  ASP82      -0.2456
    128  OD2      -61.5460  -42.9200   -8.0690 O.co2  82  ASP82      -0.2456
    129  N        -58.7510  -38.5520   -8.3560 N.3    84  LYS84      -0.1231
    130  CA       -58.5610  -38.2880   -6.9290 C.3    84  LYS84       0.1693
    131  C        -57.5990  -39.3410   -6.3550 C.2    84  LYS84       0.2591
    132  O        -56.6330  -39.0080   -5.6760 O.2    84  LYS84      -0.2718
    133  CB       -59.8920  -38.3230   -6.1700 C.3    84  LYS84       0.0285
    134  CG       -59.7250  -38.0420   -4.6690 C.3    84  LYS84       0.0035
    135  CD       -61.0680  -38.0200   -3.9620 C.3    84  LYS84       0.0206
    136  CE       -60.9350  -37.5090   -2.5160 C.3    84  LYS84       0.1093
    137  NZ       -59.9580  -38.3000   -1.7100 N.3    84  LYS84      -0.1314
    138  N        -57.8470  -40.6170   -6.6460 N.am   85  LYS85      -0.1980
    139  CA       -56.9600  -41.6610   -6.1420 C.3    85  LYS85       0.1596
    140  C        -55.5400  -41.5080   -6.7140 C.2    85  LYS85       0.2287
    141  O        -54.5480  -41.7010   -6.0030 O.2    85  LYS85      -0.2864
    142  CB       -57.5040  -43.0610   -6.4750 C.3    85  LYS85       0.0298
    143  CG       -56.5850  -44.1610   -5.9460 C.3    85  LYS85       0.0038
    144  CD       -57.2060  -45.5520   -5.9740 C.3    85  LYS85       0.0206
    145  CE       -56.2640  -46.5410   -5.2780 C.3    85  LYS85       0.1093
    146  NZ       -56.8010  -47.9320   -5.2250 N.3    85  LYS85      -0.1314
    147  N        -53.6840  -38.7570   -4.9360 N.3    88  ASP88      -0.1239
    148  CA       -53.2860  -39.1720   -3.5880 C.3    88  ASP88       0.1674
    149  C        -52.0540  -40.0620   -3.6930 C.2    88  ASP88       0.2266
    150  O        -51.0970  -39.9170   -2.9230 O.2    88  ASP88      -0.2867
    151  CB       -54.4150  -39.9260   -2.8830 C.3    88  ASP88       0.1410
    152  CG       -55.5680  -39.0280   -2.5020 C.2    88  ASP88       0.3668
    153  OD1      -55.3630  -37.7960   -2.3650 O.co2  88  ASP88      -0.2456
    154  OD2      -56.6840  -39.5530   -2.3260 O.co2  88  ASP88      -0.2456
    155  N        -62.7540  -36.9470   -8.5750 N.3   127  GLN127     -0.1231
    156  CA       -63.3680  -38.2620   -8.5080 C.3   127  GLN127      0.1698
    157  C        -64.1680  -38.5830   -9.7640 C.2   127  GLN127      0.2592
    158  O        -64.4260  -39.7530  -10.0280 O.2   127  GLN127     -0.2718
    159  CB       -64.2610  -38.3710   -7.2550 C.3   127  GLN127      0.0381
    160  CG       -65.5570  -37.5990   -7.3290 C.3   127  GLN127      0.0905
    161  CD       -66.2920  -37.5810   -6.0050 C.2   127  GLN127      0.2608
    162  OE1      -65.9220  -36.8480   -5.0890 O.2   127  GLN127     -0.2717
    163  NE2      -67.3310  -38.4010   -5.8920 N.am  127  GLN127     -0.0878
    164  N        -64.5450  -37.5530  -10.5350 N.am  128  ASN128     -0.1974
    165  CA       -65.2990  -37.7580  -11.7720 C.3   128  ASN128      0.1688
    166  C        -64.4110  -37.7780  -13.0040 C.2   128  ASN128      0.2292
    167  O        -64.9240  -37.8250  -14.1180 O.2   128  ASN128     -0.2864
    168  CB       -66.3520  -36.6600  -11.9790 C.3   128  ASN128      0.1181
    169  CG       -67.4740  -36.7500  -11.0020 C.2   128  ASN128      0.2629
    170  OD1      -67.7270  -37.8150  -10.4120 O.2   128  ASN128     -0.2716
    171  ND2      -68.1800  -35.6420  -10.8250 N.am  128  ASN128     -0.0877
    172  N        -61.7330  -39.9380  -14.9440 N.3   130  LEU130     -0.1245
    173  CA       -61.2030  -41.2980  -14.9590 C.3   130  LEU130      0.1561
    174  C        -60.0110  -41.4890  -15.8770 C.2   130  LEU130      0.2260
    175  O        -59.9570  -40.9170  -16.9520 O.2   130  LEU130     -0.2867
    176  CB       -62.3220  -42.2640  -15.3360 C.3   130  LEU130      0.0270
    177  CG       -63.6100  -42.0200  -14.5250 C.3   130  LEU130      0.0019
    178  CD1      -64.6740  -43.1000  -14.8490 C.3   130  LEU130      0.0001
    179  CD2      -63.2540  -42.0200  -13.0180 C.3   130  LEU130      0.0001
    180  N        -66.4910  -38.0410  -16.5320 N.3   140  ALA140     -0.1231
    181  CA       -67.6200  -38.9210  -16.2470 C.3   140  ALA140      0.1694
    182  C        -68.7700  -38.0950  -15.7100 C.2   140  ALA140      0.2592
    183  O        -68.5520  -37.1090  -15.0160 O.2   140  ALA140     -0.2718
    184  CB       -67.2220  -39.9820  -15.2310 C.3   140  ALA140      0.0304
    185  N        -69.9840  -38.5200  -16.0540 N.am  141  ASP141     -0.1974
    186  CA       -71.2250  -37.8790  -15.6170 C.3   141  ASP141      0.1709
    187  C        -71.6190  -36.5550  -16.2700 C.2   141  ASP141      0.2293
    188  O        -72.3320  -35.7610  -15.6660 O.2   141  ASP141     -0.2864
    189  CB       -71.1970  -37.7460  -14.0940 C.3   141  ASP141      0.1436
    190  CG       -71.0520  -39.0910  -13.4090 C.2   141  ASP141      0.3671
    191  OD1      -70.6290  -39.1350  -12.2360 O.co2 141  ASP141     -0.2456
    192  OD2      -71.3700  -40.1190  -14.0500 O.co2 141  ASP141     -0.2456
@<TRIPOS>BOND
     1    82    80   ar
     2    81    80   ar
     3    80    79    1
     4    58    59    2
     5    58    57    1
     6    78    79    1
     7    78    75    1
     8    56    57    1
     9    57    60    1
    10    75    74    1
    11    75    76    1
    12    74    65   am
    13    60    61    1
    14    60    62    1
    15    65    64    1
    16    65    66    2
    17    76    83   am
    18    76    77    2
    19   100    99    1
    20    64    63    1
    21    64    67    1
    22    83    84    1
    23    86    85    2
    24   101    99    1
    25    69    71   ar
    26    69    68   ar
    27    99    98    1
    28    71    73   ar
    29    67    68    1
    30    85    84    1
    31    85    94   am
    32    68    70   ar
    33    84    87    1
    34   175   174    2
    35    73    72   ar
    36    87    88    1
    37    98    95    1
    38   180   181    1
    39    94    95    1
    40    95    96    1
    41   187   188    2
    42   187   186    1
    43   181   182    1
    44   181   184    1
    45    70    72   ar
    46   185   182   am
    47   185   186    1
    48   110   108   ar
    49   110   111   ar
    50   174   173    1
    51   108   107   ar
    52   182   183    2
    53    42    43    1
    54   186   189    1
    55    89    88   ar
    56    89    91   ar
    57    88    90   ar
    58    45    44    2
    59   176   173    1
    60   176   177    1
    61   173   172    1
    62    96   102   am
    63    96    97    2
    64   111   109   ar
    65   178   177    1
    66   102   103    1
    67   177   179    1
    68    44    43    1
    69   107   109   ar
    70   107   106    1
    71    43    46    1
    72    91    93   ar
    73    90    92   ar
    74   167   166    2
    75   189   190    1
    76   192   190   ar
    77   106   103    1
    78    55    54    1
    79   103   104    1
    80   190   191   ar
    81    93    92   ar
    82   166   165    1
    83   115   114    2
    84    40    41    1
    85    40    39    1
    86    47    48    1
    87   112   104   am
    88   112   113    1
    89    53    54    1
    90    53    52    1
    91    50    49    2
    92   104   105    2
    93    38    39    1
    94    38    37    1
    95    52    51    1
    96    51    48    1
    97   168   165    1
    98   168   169    1
    99    35    34    1
   100    35    36    2
   101   114   113    1
   102   114   121   am
   103   165   164    1
   104    48    49    1
   105   113   116    1
   106    34    37    1
   107    34    33    1
   108   116   117    1
   109   169   171   am
   110   169   170    2
   111   122   121    1
   112   122   123    1
   113   122   125    1
   114    17    15    1
   115   164   157   am
   116   123   124    2
   117    31    30    1
   118   117   118    1
   119   125   126    1
   120   158   157    2
   121   120   118   am
   122   118   119    2
   123   157   156    1
   124    15    14    1
   125    32    30    1
   126    30    27    1
   127   155   156    1
   128   126   128   ar
   129   126   127   ar
   130   156   159    1
   131    27    28    1
   132    27    26    1
   133   129   130    1
   134    16    14    1
   135    28    29    2
   136    14    11    1
   137     1     2    1
   138     4     3    2
   139     6     7    1
   140     6     5    1
   141   160   159    1
   142   160   161    1
   143     7     9   ar
   144     7     8   ar
   145   130   131    1
   146   130   133    1
   147     2     3    1
   148     2     5    1
   149    11    10    1
   150    11    12    1
   151   140   139    1
   152   140   141    2
   153   138   131   am
   154   138   139    1
   155   142   139    1
   156   142   143    1
   157   131   132    2
   158   133   134    1
   159    23    24    1
   160    23    22    1
   161   161   163   am
   162   161   162    2
   163   144   143    1
   164   144   145    1
   165    12    13    2
   166    12    18   am
   167    24    25    2
   168   145   146    1
   169    18    19    1
   170    21    20    2
   171   147   148    1
   172   134   135    1
   173    20    19    1
   174   135   136    1
   175   149   148    1
   176   149   150    2
   177   148   151    1
   178   151   152    1
   179   136   137    1
   180   152   153   ar
   181   152   154   ar
