@<TRIPOS>MOLECULE
tmp/3ralA00.pdb
 170 162 0 0 0
SMALL
GASTEIGER

@<TRIPOS>ATOM
      1  N         94.3980   84.9650  -42.6720 N.3    10  ILE10      -0.1231
      2  CA        93.2010   84.1700  -42.9170 C.3    10  ILE10       0.1692
      3  C         93.4050   82.6710  -42.7370 C.2    10  ILE10       0.2593
      4  O         92.4610   81.8910  -42.8610 O.2    10  ILE10      -0.2718
      5  CB        92.6410   84.4260  -44.3330 C.3    10  ILE10       0.0266
      6  CG1       93.6710   84.0380  -45.3890 C.3    10  ILE10       0.0019
      7  CG2       92.2790   85.8900  -44.4880 C.3    10  ILE10       0.0020
      8  CD1       93.2000   84.2670  -46.8180 C.3    10  ILE10       0.0001
      9  N         94.6340   82.2620  -42.4440 N.am   11  GLY11      -0.1942
     10  CA        94.8880   80.8430  -42.2690 C.3    11  GLY11       0.2014
     11  C         96.3240   80.5010  -41.9390 C.2    11  GLY11       0.2639
     12  O         97.1970   81.3700  -41.9140 O.2    11  GLY11      -0.2714
     13  N         96.5720   79.2200  -41.6910 N.am   12  GLU12      -0.1963
     14  CA        97.9090   78.7690  -41.3480 C.3    12  GLU12       0.1733
     15  C         98.0550   77.2760  -41.6090 C.2    12  GLU12       0.2616
     16  O         97.2580   76.4710  -41.1240 O.2    12  GLU12      -0.2715
     17  CB        98.1830   79.0810  -39.8750 C.3    12  GLU12       0.0429
     18  CG        99.6300   78.9390  -39.4510 C.3    12  GLU12       0.1163
     19  CD        99.9040   79.6330  -38.1300 C.2    12  GLU12       0.3649
     20  OE1       99.6600   80.8580  -38.0460 O.co2  12  GLU12      -0.2457
     21  OE2      100.3610   78.9600  -37.1800 O.co2  12  GLU12      -0.2457
     22  N         99.0710   76.9160  -42.3890 N.am   13  GLY13      -0.1955
     23  CA        99.3160   75.5200  -42.7030 C.3    13  GLY13       0.1869
     24  C        100.4320   74.9550  -41.8450 C.2    13  GLY13       0.2309
     25  O        100.7810   75.5340  -40.8140 O.2    13  GLY13      -0.2863
     26  N        103.4510   77.2300  -43.5800 N.3    16  GLY16      -0.1225
     27  CA       103.3400   78.6710  -43.7200 C.3    16  GLY16       0.1811
     28  C        102.0190   79.2830  -43.2940 C.2    16  GLY16       0.2280
     29  O        101.0690   78.5800  -42.9560 O.2    16  GLY16      -0.2866
     30  N         98.9160   82.1390  -44.3030 N.3    18  VAL18      -0.1245
     31  CA        98.3190   82.8210  -45.4420 C.3    18  VAL18       0.1561
     32  C         97.5620   84.0800  -45.0250 C.2    18  VAL18       0.2260
     33  O         96.8450   84.0950  -44.0240 O.2    18  VAL18      -0.2867
     34  CB        97.3890   81.8720  -46.2400 C.3    18  VAL18       0.0252
     35  CG1       96.2450   81.3940  -45.3680 C.3    18  VAL18       0.0019
     36  CG2       96.8780   82.5820  -47.4910 C.3    18  VAL18       0.0019
     37  N         95.7510   86.0870  -52.1150 N.3    31  ALA31      -0.1245
     38  CA        96.0240   85.3260  -50.9030 C.3    31  ALA31       0.1562
     39  C         97.5390   85.1680  -50.9550 C.2    31  ALA31       0.2260
     40  O         98.0900   84.6920  -51.9520 O.2    31  ALA31      -0.2867
     41  CB        95.3530   83.9710  -50.9490 C.3    31  ALA31       0.0290
     42  N        100.7920   83.4880  -49.1470 N.3    33  LYS33      -0.1245
     43  CA       101.2790   82.5120  -48.1900 C.3    33  LYS33       0.1561
     44  C        102.7570   82.7870  -47.9540 C.2    33  LYS33       0.2260
     45  O        103.5360   82.8720  -48.8990 O.2    33  LYS33      -0.2867
     46  CB       101.0990   81.0930  -48.7180 C.3    33  LYS33       0.0271
     47  CG       101.4730   80.0350  -47.6880 C.3    33  LYS33       0.0035
     48  CD       101.3830   78.6320  -48.2570 C.3    33  LYS33       0.0206
     49  CE       101.6740   77.6070  -47.1670 C.3    33  LYS33       0.1093
     50  NZ       101.4940   76.2200  -47.6650 N.3    33  LYS33      -0.1314
     51  N         93.1330   76.3240  -57.4340 N.3    56  VAL56      -0.1245
     52  CA        93.4470   77.7320  -57.1530 C.3    56  VAL56       0.1561
     53  C         94.6910   78.1320  -57.9560 C.2    56  VAL56       0.2260
     54  O         95.7020   77.4250  -57.9490 O.2    56  VAL56      -0.2867
     55  CB        93.6740   77.9650  -55.6260 C.3    56  VAL56       0.0252
     56  CG1       94.0520   79.4180  -55.3510 C.3    56  VAL56       0.0019
     57  CG2       92.3900   77.6430  -54.8610 C.3    56  VAL56       0.0019
     58  N         98.5700   83.6520  -54.5560 N.3    72  PHE72      -0.1227
     59  CA        97.4630   82.9240  -55.1550 C.3    72  PHE72       0.1736
     60  C         96.2810   83.8360  -55.4010 C.2    72  PHE72       0.2595
     61  O         96.1230   84.8700  -54.7430 O.2    72  PHE72      -0.2718
     62  CB        96.9740   81.8270  -54.2060 C.3    72  PHE72       0.0547
     63  CG        97.9700   80.7540  -53.9480 C.ar   72  PHE72      -0.0202
     64  CD1       98.1450   79.7170  -54.8570 C.ar   72  PHE72      -0.0042
     65  CD2       98.7170   80.7640  -52.7780 C.ar   72  PHE72      -0.0042
     66  CE1       99.0490   78.6960  -54.5980 C.ar   72  PHE72      -0.0003
     67  CE2       99.6270   79.7470  -52.5110 C.ar   72  PHE72      -0.0003
     68  CZ        99.7880   78.7130  -53.4230 C.ar   72  PHE72      -0.0000
     69  N         95.4480   83.4390  -56.3510 N.am   73  GLU73      -0.1965
     70  CA        94.2240   84.1750  -56.6170 C.3    73  GLU73       0.1733
     71  C         93.4300   84.0060  -55.3150 C.2    73  GLU73       0.2616
     72  O         93.5040   82.9560  -54.6680 O.2    73  GLU73      -0.2715
     73  CB        93.4550   83.5370  -57.7720 C.3    73  GLU73       0.0429
     74  CG        92.9970   82.1290  -57.4820 C.3    73  GLU73       0.1163
     75  CD        91.9950   81.5890  -58.4910 C.2    73  GLU73       0.3649
     76  OE1       91.0060   82.2890  -58.8050 O.co2  73  GLU73      -0.2457
     77  OE2       92.1860   80.4560  -58.9670 O.co2  73  GLU73      -0.2457
     78  N         92.6740   85.0270  -54.9350 N.am   74  PHE74      -0.1960
     79  CA        91.8960   84.9980  -53.6940 C.3    74  PHE74       0.1771
     80  C         90.4630   84.5110  -53.8850 C.2    74  PHE74       0.2619
     81  O         89.7870   84.9390  -54.8140 O.2    74  PHE74      -0.2715
     82  CB        91.8640   86.4150  -53.0900 C.3    74  PHE74       0.0574
     83  CG        91.0660   86.5310  -51.8130 C.ar   74  PHE74      -0.0200
     84  CD1       89.7500   86.9930  -51.8330 C.ar   74  PHE74      -0.0042
     85  CD2       91.6420   86.2000  -50.5800 C.ar   74  PHE74      -0.0042
     86  CE1       89.0180   87.1320  -50.6440 C.ar   74  PHE74      -0.0003
     87  CE2       90.9210   86.3320  -49.3790 C.ar   74  PHE74      -0.0003
     88  CZ        89.6000   86.8040  -49.4170 C.ar   74  PHE74      -0.0000
     89  N         90.0210   83.5880  -53.0290 N.am   75  LEU75      -0.1963
     90  CA        88.6310   83.1210  -53.0560 C.3    75  LEU75       0.1728
     91  C         88.0480   83.5880  -51.7280 C.2    75  LEU75       0.2616
     92  O         88.7780   83.7290  -50.7630 O.2    75  LEU75      -0.2715
     93  CB        88.5400   81.5990  -53.2540 C.3    75  LEU75       0.0311
     94  CG        88.5330   81.3020  -54.7650 C.3    75  LEU75       0.0022
     95  CD1       89.9660   81.1420  -55.2690 C.3    75  LEU75       0.0001
     96  CD2       87.7120   80.0520  -55.0680 C.3    75  LEU75       0.0001
     97  N         86.7400   83.8420  -51.6620 N.am   76  HIS76      -0.1959
     98  CA        86.1860   84.4030  -50.4350 C.3    76  HIS76       0.1787
     99  C         85.8190   83.5640  -49.2440 C.2    76  HIS76       0.2620
    100  O         85.5720   84.1120  -48.1630 O.2    76  HIS76      -0.2715
    101  CB        84.9920   85.2960  -50.7670 C.3    76  HIS76       0.0785
    102  CG        85.3840   86.6410  -51.2870 C.ar   76  HIS76       0.0821
    103  ND1       85.8770   86.8300  -52.5600 N.ar   76  HIS76      -0.2267
    104  CD2       85.3760   87.8610  -50.6980 C.ar   76  HIS76       0.1154
    105  CE1       86.1540   88.1100  -52.7330 C.ar   76  HIS76       0.1986
    106  NE2       85.8580   88.7560  -51.6190 N.ar   76  HIS76      -0.2212
    107  N         85.7830   82.2480  -49.3960 N.am   77  GLN77      -0.1963
    108  CA        85.4200   81.4350  -48.2470 C.3    77  GLN77       0.1733
    109  C         85.9000   80.0110  -48.4410 C.2    77  GLN77       0.2616
    110  O         86.0590   79.5740  -49.5770 O.2    77  GLN77      -0.2715
    111  CB        83.9040   81.4480  -48.0830 C.3    77  GLN77       0.0408
    112  CG        83.3800   80.8040  -46.8020 C.3    77  GLN77       0.0908
    113  CD        81.9760   81.2790  -46.4790 C.2    77  GLN77       0.2608
    114  OE1       81.7720   82.4290  -46.0570 O.2    77  GLN77      -0.2717
    115  NE2       80.9970   80.4130  -46.6950 N.am   77  GLN77      -0.0878
    116  N         86.1560   79.3020  -47.3400 N.am   78  ASP78      -0.1971
    117  CA        86.5670   77.9060  -47.4620 C.3    78  ASP78       0.1709
    118  C         85.3850   77.0130  -47.1020 C.2    78  ASP78       0.2293
    119  O         84.3780   77.4720  -46.5360 O.2    78  ASP78      -0.2864
    120  CB        87.8100   77.5650  -46.6080 C.3    78  ASP78       0.1436
    121  CG        87.5970   77.7660  -45.1070 C.2    78  ASP78       0.3671
    122  OD1       86.6040   77.2710  -44.5420 O.co2  78  ASP78      -0.2456
    123  OD2       88.4590   78.4110  -44.4820 O.co2  78  ASP78      -0.2456
    124  N         84.2280   76.7430  -43.3390 N.3    81  LYS81      -0.1245
    125  CA        83.3550   77.8230  -42.8940 C.3    81  LYS81       0.1561
    126  C         81.9450   77.6470  -43.4460 C.2    81  LYS81       0.2260
    127  O         80.9610   77.8210  -42.7220 O.2    81  LYS81      -0.2867
    128  CB        83.9100   79.1880  -43.3180 C.3    81  LYS81       0.0271
    129  CG        83.0600   80.3690  -42.8520 C.3    81  LYS81       0.0035
    130  CD        83.8550   81.6720  -42.9770 C.3    81  LYS81       0.0206
    131  CE        83.0870   82.8900  -42.5010 C.3    81  LYS81       0.1093
    132  NZ        83.9090   84.1350  -42.6940 N.3    81  LYS81      -0.1314
    133  N         89.2580   73.0120  -44.9140 N.3   123  GLN123     -0.1231
    134  CA        89.9410   74.2960  -44.8420 C.3   123  GLN123      0.1698
    135  C         90.7280   74.6710  -46.0920 C.2   123  GLN123      0.2592
    136  O         91.0080   75.8560  -46.3020 O.2   123  GLN123     -0.2718
    137  CB        90.8540   74.3650  -43.6090 C.3   123  GLN123      0.0381
    138  CG        90.1130   74.6580  -42.3220 C.3   123  GLN123      0.0905
    139  CD        91.0450   75.0180  -41.1830 C.2   123  GLN123      0.2608
    140  OE1       90.6030   75.4630  -40.1250 O.2   123  GLN123     -0.2717
    141  NE2       92.3430   74.8270  -41.3950 N.am  123  GLN123     -0.0878
    142  N         91.0990   73.6960  -46.9240 N.am  124  ASN124     -0.1974
    143  CA        91.7890   74.0850  -48.1470 C.3   124  ASN124      0.1688
    144  C         91.0020   73.8520  -49.4360 C.2   124  ASN124      0.2292
    145  O         91.5760   73.7350  -50.5190 O.2   124  ASN124     -0.2864
    146  CB        93.2070   73.5020  -48.2570 C.3   124  ASN124      0.1181
    147  CG        93.2610   72.0200  -48.1110 C.2   124  ASN124      0.2629
    148  OD1       92.4270   71.2860  -48.6510 O.2   124  ASN124     -0.2716
    149  ND2       94.2860   71.5490  -47.3940 N.am  124  ASN124     -0.0877
    150  N         88.2820   75.8230  -51.4730 N.3   126  LEU126     -0.1245
    151  CA        87.7620   77.1910  -51.4970 C.3   126  LEU126      0.1561
    152  C         86.6160   77.3820  -52.4610 C.2   126  LEU126      0.2260
    153  O         86.6340   76.8340  -53.5610 O.2   126  LEU126     -0.2867
    154  CB        88.8860   78.1560  -51.8690 C.3   126  LEU126      0.0270
    155  CG        90.1770   77.9090  -51.0910 C.3   126  LEU126      0.0019
    156  CD1       91.2890   78.7930  -51.6580 C.3   126  LEU126      0.0001
    157  CD2       89.9380   78.1700  -49.6000 C.3   126  LEU126      0.0001
    158  N         93.1370   73.9600  -52.9920 N.3   136  ALA136     -0.1231
    159  CA        94.1520   74.9180  -52.5740 C.3   136  ALA136      0.1694
    160  C         95.1450   74.3000  -51.6070 C.2   136  ALA136      0.2592
    161  O         94.9220   73.2100  -51.0830 O.2   136  ALA136     -0.2718
    162  CB        93.5000   76.1320  -51.9200 C.3   136  ALA136      0.0304
    163  N         96.2380   75.0210  -51.3810 N.am  137  ASP137     -0.1974
    164  CA        97.2990   74.6160  -50.4630 C.3   137  ASP137      0.1709
    165  C         97.8150   73.1930  -50.6680 C.2   137  ASP137      0.2293
    166  O         97.8070   72.3700  -49.7480 O.2   137  ASP137     -0.2864
    167  CB        96.8290   74.8130  -49.0210 C.3   137  ASP137      0.1436
    168  CG        97.9860   74.8590  -48.0290 C.2   137  ASP137      0.3671
    169  OD1       99.0600   75.3830  -48.3830 O.co2 137  ASP137     -0.2456
    170  OD2       97.8100   74.3900  -46.8950 O.co2 137  ASP137     -0.2456
@<TRIPOS>BOND
     1    77    75   ar
     2    76    75   ar
     3    75    74    1
     4    53    54    2
     5    53    52    1
     6    73    74    1
     7    73    70    1
     8    51    52    1
     9    52    55    1
    10    70    69    1
    11    70    71    1
    12    69    60   am
    13    55    56    1
    14    55    57    1
    15    60    59    1
    16    60    61    2
    17    71    78   am
    18    71    72    2
    19    95    94    1
    20    59    58    1
    21    59    62    1
    22    96    94    1
    23    78    79    1
    24    64    66   ar
    25    64    63   ar
    26    81    80    2
    27    94    93    1
    28    66    68   ar
    29    62    63    1
    30    63    65   ar
    31    80    79    1
    32    80    89   am
    33    79    82    1
    34   153   152    2
    35    68    67   ar
    36    93    90    1
    37    82    83    1
    38    90    89    1
    39    90    91    1
    40   158   159    1
    41    65    67   ar
    42   105   103   ar
    43   105   106   ar
    44   159   162    1
    45   159   160    1
    46   103   102   ar
    47   152   151    1
    48    37    38    1
    49    40    39    2
    50   154   151    1
    51   154   155    1
    52    84    83   ar
    53    84    86   ar
    54    83    85   ar
    55    91    97   am
    56    91    92    2
    57    97    98    1
    58   156   155    1
    59   106   104   ar
    60   160   163   am
    61   160   161    2
    62   151   150    1
    63   163   164    1
    64   102   101    1
    65   102   104   ar
    66   155   157    1
    67    39    38    1
    68    41    38    1
    69   101    98    1
    70   165   164    1
    71   165   166    2
    72    86    88   ar
    73    85    87   ar
    74   145   144    2
    75   164   167    1
    76    98    99    1
    77   110   109    2
    78   144   143    1
    79    88    87   ar
    80   107    99   am
    81   107   108    1
    82    99   100    2
    83    42    43    1
    84   167   168    1
    85    45    44    2
    86    46    43    1
    87    46    47    1
    88   148   147    2
    89   109   108    1
    90   109   116   am
    91   169   168   ar
    92    48    47    1
    93    48    49    1
    94   146   143    1
    95   146   147    1
    96   108   111    1
    97    43    44    1
    98   143   142    1
    99   147   149   am
   100   111   112    1
   101   168   170   ar
   102    50    49    1
   103    36    34    1
   104   117   116    1
   105   117   118    1
   106   117   120    1
   107   118   119    2
   108   142   135   am
   109     8     6    1
   110   112   113    1
   111   115   113   am
   112   120   121    1
   113   113   114    2
   114   136   135    2
   115    34    31    1
   116    34    35    1
   117   135   134    1
   118    31    32    1
   119    31    30    1
   120     6     5    1
   121   121   122   ar
   122   121   123   ar
   123    32    33    2
   124   133   134    1
   125   134   137    1
   126     7     5    1
   127     5     2    1
   128    27    26    1
   129    27    28    1
   130   137   138    1
   131   126   125    1
   132   126   127    2
   133   124   125    1
   134   128   125    1
   135   128   129    1
   136    28    29    2
   137   130   129    1
   138   130   131    1
   139     2     3    1
   140     2     1    1
   141     4     3    2
   142     3     9   am
   143    23    22    1
   144    23    24    1
   145   132   131    1
   146     9    10    1
   147    22    15   am
   148   138   139    1
   149    10    11    1
   150    11    12    2
   151    11    13   am
   152    24    25    2
   153    13    14    1
   154    15    14    1
   155    15    16    2
   156   141   139   am
   157    14    17    1
   158   139   140    2
   159    17    18    1
   160    18    19    1
   161    19    20   ar
   162    19    21   ar
