@<TRIPOS>MOLECULE
tmp/3rapB00.pdb
 181 177 0 0 0
SMALL
GASTEIGER

@<TRIPOS>ATOM
      1  N         32.2640   18.4130   64.5930 N.3    12  GLY12      -0.1210
      2  CA        33.6250   18.0480   64.2610 C.3    12  GLY12       0.1956
      3  C         34.1620   17.0170   65.2230 C.2    12  GLY12       0.2612
      4  O         33.8660   17.0160   66.4130 O.2    12  GLY12      -0.2717
      5  N         34.9560   16.1180   64.6650 N.am   13  GLY13      -0.1942
      6  CA        35.6300   15.1160   65.4570 C.3    13  GLY13       0.2014
      7  C         34.7370   14.1000   66.1490 C.2    13  GLY13       0.2639
      8  O         35.3130   13.3430   66.9270 O.2    13  GLY13      -0.2714
      9  N         33.4150   13.9720   65.9230 N.am   14  VAL14      -0.1963
     10  CA        32.6510   12.9090   66.5860 C.3    14  VAL14       0.1727
     11  C         32.9440   11.4900   66.1060 C.2    14  VAL14       0.2617
     12  O         32.5780   10.4930   66.7330 O.2    14  VAL14      -0.2715
     13  CB        31.1400   13.1700   66.5850 C.3    14  VAL14       0.0290
     14  CG1       30.8440   14.4790   67.3230 C.3    14  VAL14       0.0023
     15  CG2       30.5720   13.2110   65.1700 C.3    14  VAL14       0.0023
     16  N         33.5980   11.3880   64.9580 N.am   15  GLY15      -0.1940
     17  CA        33.9160   10.0960   64.3900 C.3    15  GLY15       0.2014
     18  C         33.0420    9.7120   63.2070 C.2    15  GLY15       0.2639
     19  O         33.0060    8.5400   62.8670 O.2    15  GLY15      -0.2714
     20  N         32.3900   10.6680   62.5360 N.am   16  LYS16      -0.1963
     21  CA        31.7440   10.4540   61.2310 C.3    16  LYS16       0.1728
     22  C         32.6290    9.7920   60.1810 C.2    16  LYS16       0.2617
     23  O         32.2650    8.7510   59.6440 O.2    16  LYS16      -0.2715
     24  CB        31.2590   11.7750   60.6620 C.3    16  LYS16       0.0311
     25  CG        30.1870   12.4510   61.5060 C.3    16  LYS16       0.0038
     26  CD        29.6180   13.6880   60.8160 C.3    16  LYS16       0.0206
     27  CE        30.6390   14.7820   60.5300 C.3    16  LYS16       0.1093
     28  NZ        31.3540   15.2080   61.7190 N.3    16  LYS16      -0.1314
     29  N         33.8140   10.3190   59.8800 N.am   17  SER17      -0.1936
     30  CA        34.7170    9.6690   58.9390 C.3    17  SER17       0.2055
     31  C         35.2450    8.3200   59.4250 C.2    17  SER17       0.2642
     32  O         35.3810    7.3860   58.6260 O.2    17  SER17      -0.2714
     33  CB        35.8670   10.6080   58.6020 C.3    17  SER17       0.2130
     34  OG        35.3580   11.8960   58.2430 O.3    17  SER17      -0.2179
     35  N         35.5110    8.1630   60.7370 N.am   18  ALA18      -0.1977
     36  CA        36.0170    6.8860   61.2020 C.3    18  ALA18       0.1597
     37  C         34.9070    5.8630   61.0670 C.2    18  ALA18       0.2287
     38  O         35.2090    4.7410   60.6600 O.2    18  ALA18      -0.2864
     39  CB        36.4820    6.9450   62.6540 C.3    18  ALA18       0.0319
     40  N         40.4380    1.3050   60.8870 N.3    28  PHE28      -0.1227
     41  CA        40.1130    2.3790   61.8120 C.3    28  PHE28       0.1736
     42  C         41.0890    3.5130   61.5690 C.2    28  PHE28       0.2595
     43  O         42.2940    3.2730   61.6510 O.2    28  PHE28      -0.2718
     44  CB        40.2270    1.8850   63.2720 C.3    28  PHE28       0.0547
     45  CG        40.0630    2.9890   64.3180 C.ar   28  PHE28      -0.0202
     46  CD1       38.8890    3.7190   64.3920 C.ar   28  PHE28      -0.0042
     47  CD2       41.1260    3.3030   65.1420 C.ar   28  PHE28      -0.0042
     48  CE1       38.8040    4.7770   65.2790 C.ar   28  PHE28      -0.0003
     49  CE2       41.0380    4.3690   66.0140 C.ar   28  PHE28      -0.0003
     50  CZ        39.8800    5.1060   66.0820 C.ar   28  PHE28      -0.0000
     51  N         40.6440    4.7300   61.2640 N.am   29  ILE29      -0.1966
     52  CA        41.5550    5.8550   61.1150 C.3    29  ILE29       0.1727
     53  C         41.8750    6.3270   62.5230 C.2    29  ILE29       0.2616
     54  O         40.9460    6.5630   63.2950 O.2    29  ILE29      -0.2715
     55  CB        40.9040    7.0380   60.3670 C.3    29  ILE29       0.0290
     56  CG1       40.3180    6.6980   59.0100 C.3    29  ILE29       0.0022
     57  CG2       41.9310    8.1630   60.2020 C.3    29  ILE29       0.0023
     58  CD1       39.4170    7.8600   58.5180 C.3    29  ILE29       0.0001
     59  N         43.1560    6.4730   62.8540 N.am   30  GLU30      -0.1963
     60  CA        43.5510    6.9390   64.1750 C.3    30  GLU30       0.1733
     61  C         43.8880    8.4180   64.1520 C.2    30  GLU30       0.2616
     62  O         43.7760    9.1060   65.1560 O.2    30  GLU30      -0.2715
     63  CB        44.7590    6.1770   64.7110 C.3    30  GLU30       0.0429
     64  CG        44.6220    4.6560   64.6630 C.3    30  GLU30       0.1163
     65  CD        45.6510    3.9100   65.4990 C.2    30  GLU30       0.3649
     66  OE1       46.8500    4.0440   65.2470 O.co2  30  GLU30      -0.2457
     67  OE2       45.2440    3.1900   66.4110 O.co2  30  GLU30      -0.2457
     68  N         44.3930    8.9400   63.0360 N.am   31  LYS31      -0.1963
     69  CA        44.6490   10.3660   62.9440 C.3    31  LYS31       0.1728
     70  C         43.3850   11.1560   62.6460 C.2    31  LYS31       0.2616
     71  O         42.4190   10.6340   62.0810 O.2    31  LYS31      -0.2715
     72  CB        45.7040   10.6690   61.8930 C.3    31  LYS31       0.0311
     73  CG        47.1460   10.7620   62.4070 C.3    31  LYS31       0.0038
     74  CD        47.7880    9.4510   62.8480 C.3    31  LYS31       0.0206
     75  CE        49.2720    9.7020   63.1330 C.3    31  LYS31       0.1093
     76  NZ        49.9710    8.4590   63.4150 N.3    31  LYS31      -0.1314
     77  N         43.4030   12.4400   62.9860 N.am   32  TYR32      -0.1960
     78  CA        42.2700   13.2990   62.7370 C.3    32  TYR32       0.1771
     79  C         42.5580   14.1750   61.5270 C.2    32  TYR32       0.2620
     80  O         43.4120   15.0660   61.5930 O.2    32  TYR32      -0.2715
     81  CB        41.9780   14.1680   63.9670 C.3    32  TYR32       0.0574
     82  CG        40.7990   15.1210   63.7920 C.ar   32  TYR32      -0.0198
     83  CD1       39.6880   14.7390   63.0600 C.ar   32  TYR32      -0.0009
     84  CD2       40.8510   16.3720   64.3640 C.ar   32  TYR32      -0.0009
     85  CE1       38.6250   15.5890   62.9090 C.ar   32  TYR32       0.0417
     86  CE2       39.7800   17.2300   64.2250 C.ar   32  TYR32       0.0417
     87  CZ        38.6770   16.8280   63.4990 C.ar   32  TYR32       0.1957
     88  OH        37.6060   17.6840   63.3430 O.3    32  TYR32      -0.2866
     89  N         41.8610   13.9320   60.4210 N.am   33  ASP33      -0.1958
     90  CA        41.9030   14.8300   59.2830 C.3    33  ASP33       0.1825
     91  C         40.4900   15.3750   59.1020 C.2    33  ASP33       0.2464
     92  O         39.5920   14.6080   58.7340 O.2    33  ASP33      -0.2730
     93  CB        42.3530   14.0760   58.0250 C.3    33  ASP33       0.1450
     94  CG        42.6240   14.9070   56.7640 C.2    33  ASP33       0.3671
     95  OD1       42.4240   16.1290   56.7450 O.co2  33  ASP33      -0.2456
     96  OD2       43.0510   14.3110   55.7760 O.co2  33  ASP33      -0.2456
     97  N         40.2230   16.6560   59.3850 N.am   34  PRO34      -0.2715
     98  CA        38.9340   17.3030   59.1680 C.3    34  PRO34       0.1536
     99  C         38.5090   17.1370   57.7070 C.2    34  PRO34       0.2599
    100  O         39.3170   17.2590   56.7730 O.2    34  PRO34      -0.2715
    101  CB        39.2110   18.7580   59.4630 C.3    34  PRO34       0.0310
    102  CG        40.4090   18.7390   60.3670 C.3    34  PRO34       0.0237
    103  CD        41.2370   17.6400   59.7460 C.3    34  PRO34       0.0939
    104  N         37.2290   16.8280   57.5340 N.am   35  THR35      -0.1951
    105  CA        36.7110   16.4230   56.2420 C.3    35  THR35       0.1897
    106  C         36.2030   17.6650   55.5040 C.2    35  THR35       0.2313
    107  O         35.6590   18.5810   56.1300 O.2    35  THR35      -0.2863
    108  CB        35.5970   15.3770   56.5040 C.3    35  THR35       0.1794
    109  OG1       36.2180   14.2750   57.1820 O.3    35  THR35      -0.2208
    110  CG2       34.8740   14.9070   55.2460 C.3    35  THR35       0.0378
    111  N         30.1070   14.2730   55.7890 N.3    58  THR58      -0.1218
    112  CA        30.1980   15.7380   55.7070 C.3    58  THR58       0.1862
    113  C         31.2510   16.2810   56.6920 C.2    58  THR58       0.2287
    114  O         31.8480   15.5340   57.4790 O.2    58  THR58      -0.2866
    115  CB        28.8360   16.3460   56.0560 C.3    58  THR58       0.1770
    116  OG1       28.4400   15.9380   57.3620 O.3    58  THR58      -0.2211
    117  CG2       27.7400   15.9130   55.0820 C.3    58  THR58       0.0375
    118  N         32.2490   18.5180   59.8810 N.3    60  GLY60      -0.1210
    119  CA        31.6890   18.8380   61.2020 C.3    60  GLY60       0.1956
    120  C         32.3490   20.1020   61.7620 C.2    60  GLY60       0.2612
    121  O         31.6840   20.9910   62.3130 O.2    60  GLY60      -0.2717
    122  N         33.6590   20.1620   61.6170 N.am   61  THR61      -0.1952
    123  CA        34.4270   21.3180   62.0890 C.3    61  THR61       0.1897
    124  C         34.0130   22.5260   61.2370 C.2    61  THR61       0.2313
    125  O         34.3160   22.5830   60.0340 O.2    61  THR61      -0.2863
    126  CB        35.9270   21.0350   61.9730 C.3    61  THR61       0.1794
    127  OG1       36.1590   19.6330   62.0190 O.3    61  THR61      -0.2208
    128  CG2       36.7410   21.6680   63.1060 C.3    61  THR61       0.0378
    129  N         28.6610    7.8250   69.4640 N.3   116  ASN116     -0.1225
    130  CA        29.8570    7.1220   69.0890 C.3   116  ASN116      0.1785
    131  C         30.9030    7.2150   70.1970 C.2   116  ASN116      0.2597
    132  O         30.7700    8.0190   71.1260 O.2   116  ASN116     -0.2718
    133  CB        30.3570    7.7090   67.7640 C.3   116  ASN116      0.1169
    134  CG        31.5260    6.9400   67.1700 C.2   116  ASN116      0.2627
    135  OD1       31.5150    5.7150   67.0420 O.2   116  ASN116     -0.2716
    136  ND2       32.5960    7.6250   66.8230 N.am  116  ASN116     -0.0877
    137  N         31.9360    6.3800   70.0980 N.am  117  LYS117     -0.1980
    138  CA        33.1330    6.3380   70.9380 C.3   117  LYS117      0.1596
    139  C         32.9050    5.6180   72.2750 C.2   117  LYS117      0.2287
    140  O         33.5200    5.9320   73.3070 O.2   117  LYS117     -0.2864
    141  CB        33.8300    7.6940   71.1640 C.3   117  LYS117      0.0298
    142  CG        34.1890    8.5010   69.9310 C.3   117  LYS117      0.0038
    143  CD        35.1420    9.6520   70.2110 C.3   117  LYS117      0.0206
    144  CE        35.2630   10.4580   68.9290 C.3   117  LYS117      0.1093
    145  NZ        36.3870   11.3610   68.9770 N.3   117  LYS117     -0.1314
    146  N         34.0120    2.8150   73.2890 N.3   119  ASP119     -0.1225
    147  CA        35.2490    2.2810   73.8440 C.3   119  ASP119      0.1805
    148  C         35.9760    3.2850   74.7440 C.2   119  ASP119      0.2597
    149  O         36.9910    2.9680   75.3740 O.2   119  ASP119     -0.2718
    150  CB        36.1840    1.8820   72.6900 C.3   119  ASP119      0.1424
    151  CG        36.6030    3.0560   71.8040 C.2   119  ASP119      0.3668
    152  OD1       35.7470    3.6460   71.1390 O.co2 119  ASP119     -0.2456
    153  OD2       37.7850    3.3900   71.8040 O.co2 119  ASP119     -0.2456
    154  N         35.5390    4.5370   74.7370 N.am  120  LEU120     -0.1979
    155  CA        36.0900    5.5370   75.6160 C.3   120  LEU120      0.1596
    156  C         35.0800    5.8300   76.7290 C.2   120  LEU120      0.2287
    157  O         35.2370    6.8140   77.4590 O.2   120  LEU120     -0.2864
    158  CB        36.4520    6.8130   74.8420 C.3   120  LEU120      0.0297
    159  CG        37.4720    6.6980   73.6960 C.3   120  LEU120      0.0022
    160  CD1       37.7220    8.0500   73.0130 C.3   120  LEU120      0.0001
    161  CD2       38.7800    6.0990   74.2120 C.3   120  LEU120      0.0001
    162  N         31.3890    2.0430   68.4910 N.3   146  SER146     -0.1202
    163  CA        32.7870    2.3970   68.4190 C.3   146  SER146      0.2020
    164  C         33.1410    2.1940   66.9480 C.2   146  SER146      0.2619
    165  O         32.9020    1.1130   66.3840 O.2   146  SER146     -0.2717
    166  CB        33.6150    1.4030   69.2120 C.3   146  SER146      0.2103
    167  OG        34.9980    1.7390   69.1050 O.3   146  SER146     -0.2182
    168  N         33.7880    3.1980   66.3630 N.am  147  ALA147     -0.1965
    169  CA        34.3430    3.0780   65.0170 C.3   147  ALA147      0.1728
    170  C         35.4740    2.0560   64.9420 C.2   147  ALA147      0.2616
    171  O         35.8570    1.6110   63.8610 O.2   147  ALA147     -0.2715
    172  CB        34.8770    4.4220   64.5590 C.3   147  ALA147      0.0334
    173  N         36.0010    1.6340   66.0950 N.am  148  LYS148     -0.1977
    174  CA        36.9620    0.5560   66.1360 C.3   148  LYS148      0.1596
    175  C         36.3740   -0.7960   65.7700 C.2   148  LYS148      0.2287
    176  O         37.1470   -1.6920   65.4200 O.2   148  LYS148     -0.2864
    177  CB        37.6200    0.4620   67.4950 C.3   148  LYS148      0.0298
    178  CG        38.5190    1.6390   67.8200 C.3   148  LYS148      0.0038
    179  CD        39.1320    1.4290   69.1900 C.3   148  LYS148      0.0206
    180  CE        40.1170    2.5510   69.4940 C.3   148  LYS148      0.1093
    181  NZ        41.4820    2.0670   69.4370 N.3   148  LYS148     -0.1314
@<TRIPOS>BOND
     1   117   115    1
     2   110   108    1
     3   106   107    2
     4   106   105    1
     5   112   111    1
     6   112   115    1
     7   112   113    1
     8    96    94   ar
     9   115   116    1
    10   105   108    1
    11   105   104    1
    12   108   109    1
    13   113   114    2
    14    95    94   ar
    15    94    93    1
    16   100    99    2
    17   104    99   am
    18    99    98    1
    19    93    90    1
    20    34    33    1
    21    58    56    1
    22    33    30    1
    23    32    31    2
    24    92    91    2
    25    30    31    1
    26    30    29    1
    27    56    55    1
    28    91    90    1
    29    91    97   am
    30    98    97    1
    31    98   101    1
    32    90    89    1
    33    97   103    1
    34    31    35   am
    35   101   102    1
    36    23    22    2
    37   103   102    1
    38    29    22   am
    39   118   119    1
    40   125   124    2
    41    22    21    1
    42    57    55    1
    43    55    52    1
    44    89    79   am
    45    27    26    1
    46    27    28    1
    47    38    37    2
    48    24    21    1
    49    24    25    1
    50    35    36    1
    51    26    25    1
    52    40    41    1
    53    37    36    1
    54    52    51    1
    55    52    53    1
    56    36    39    1
    57   119   120    1
    58    21    20    1
    59   124   123    1
    60    51    42   am
    61    79    80    2
    62    79    78    1
    63    42    43    2
    64    42    41    1
    65   122   120   am
    66   122   123    1
    67   120   121    2
    68    41    44    1
    69    72    73    1
    70    72    69    1
    71   126   127    1
    72   126   123    1
    73   126   128    1
    74    71    70    2
    75    73    74    1
    76    53    59   am
    77    53    54    2
    78    20    18   am
    79    70    69    1
    80    70    77   am
    81    78    77    1
    82    78    81    1
    83    74    75    1
    84    59    60    1
    85    19    18    2
    86    85    83   ar
    87    85    87   ar
    88    69    68    1
    89    68    61   am
    90    83    82   ar
    91    75    76    1
    92    18    17    1
    93    44    45    1
    94    88    87    1
    95    87    86   ar
    96    82    81    1
    97    82    84   ar
    98   171   170    2
    99    61    60    1
   100    61    62    2
   101    60    63    1
   102    86    84   ar
   103     2     1    1
   104     2     3    1
   105    45    46   ar
   106    45    47   ar
   107    17    16    1
   108    46    48   ar
   109   172   169    1
   110    64    63    1
   111    64    65    1
   112     5     3   am
   113     5     6    1
   114   170   169    1
   115   170   173   am
   116    16    11   am
   117   169   168    1
   118    47    49   ar
   119    15    13    1
   120     3     4    2
   121    66    65   ar
   122    48    50   ar
   123   176   175    2
   124     6     7    1
   125    65    67   ar
   126   175   174    1
   127     9     7   am
   128     9    10    1
   129    49    50   ar
   130   173   174    1
   131    11    10    1
   132    11    12    2
   133   174   177    1
   134     7     8    2
   135   168   164   am
   136   165   164    2
   137    13    10    1
   138    13    14    1
   139   136   134   am
   140   164   163    1
   141   135   134    2
   142   134   133    1
   143   177   178    1
   144   133   130    1
   145   178   179    1
   146   163   162    1
   147   163   166    1
   148   144   145    1
   149   144   143    1
   150   130   129    1
   151   130   131    1
   152   167   166    1
   153   179   180    1
   154   181   180    1
   155   142   143    1
   156   142   141    1
   157   137   131   am
   158   137   138    1
   159   131   132    2
   160   138   141    1
   161   138   139    1
   162   152   151   ar
   163   153   151   ar
   164   151   150    1
   165   139   140    2
   166   150   147    1
   167   160   159    1
   168   146   147    1
   169   159   161    1
   170   159   158    1
   171   147   148    1
   172   154   148   am
   173   154   155    1
   174   148   149    2
   175   158   155    1
   176   155   156    1
   177   156   157    2
