@<TRIPOS>MOLECULE
tmp/3rarA02.pdb
 124 119 0 0 0
SMALL
GASTEIGER

@<TRIPOS>ATOM
      1  N         72.5720   52.2250  -18.1130 N.3   122  GLY122     -0.1210
      2  CA        71.5130   53.1810  -17.8610 C.3   122  GLY122      0.1956
      3  C         71.5150   53.5560  -16.3910 C.2   122  GLY122      0.2612
      4  O         71.9710   52.7840  -15.5510 O.2   122  GLY122     -0.2717
      5  N         71.0070   54.7390  -16.0740 N.am  123  GLY123     -0.1942
      6  CA        70.9640   55.1750  -14.6900 C.3   123  GLY123      0.2014
      7  C         70.2450   56.4990  -14.5990 C.2   123  GLY123      0.2639
      8  O         70.7090   57.4290  -13.9440 O.2   123  GLY123     -0.2714
      9  N         69.1080   56.5820  -15.2830 N.am  124  GLY124     -0.1939
     10  CA        68.3200   57.8010  -15.2870 C.3   124  GLY124      0.2014
     11  C         69.0790   58.9930  -15.8420 C.2   124  GLY124      0.2638
     12  O         68.6950   60.1310  -15.5840 O.2   124  GLY124     -0.2714
     13  N         70.1470   58.7340  -16.6020 N.am  125  PHE125     -0.1973
     14  CA        70.9860   59.7900  -17.1830 C.3   125  PHE125      0.1639
     15  C         71.5840   60.6720  -16.0850 C.2   125  PHE125      0.2290
     16  O         72.0210   61.7950  -16.3540 O.2   125  PHE125     -0.2864
     17  CB        70.1650   60.6700  -18.1390 C.3   125  PHE125      0.0560
     18  CG        69.6750   59.9480  -19.3650 C.ar  125  PHE125     -0.0200
     19  CD1       70.5620   59.5680  -20.3660 C.ar  125  PHE125     -0.0042
     20  CD2       68.3230   59.6280  -19.5090 C.ar  125  PHE125     -0.0042
     21  CE1       70.1120   58.8750  -21.4970 C.ar  125  PHE125     -0.0003
     22  CE2       67.8620   58.9380  -20.6310 C.ar  125  PHE125     -0.0003
     23  CZ        68.7590   58.5610  -21.6270 C.ar  125  PHE125     -0.0000
     24  N         70.3080   49.1240  -21.2580 N.3   208  GLU208     -0.1231
     25  CA        69.0690   48.9840  -20.5100 C.3   208  GLU208      0.1699
     26  C         68.6310   50.3300  -19.9450 C.2   208  GLU208      0.2593
     27  O         69.4620   51.1610  -19.5630 O.2   208  GLU208     -0.2718
     28  CB        69.2470   47.9510  -19.3880 C.3   208  GLU208      0.0402
     29  CG        67.9960   47.6910  -18.5590 C.3   208  GLU208      0.1161
     30  CD        67.8760   48.6290  -17.3620 C.2   208  GLU208      0.3649
     31  OE1       66.8150   48.6250  -16.7010 O.co2 208  GLU208     -0.2457
     32  OE2       68.8510   49.3650  -17.0750 O.co2 208  GLU208     -0.2457
     33  N         67.3210   50.5550  -19.9320 N.am  209  SER209     -0.1938
     34  CA        66.7720   51.7940  -19.4050 C.3   209  SER209      0.2055
     35  C         67.3760   53.0220  -20.1040 C.2   209  SER209      0.2642
     36  O         67.1990   53.2050  -21.3150 O.2   209  SER209     -0.2714
     37  CB        67.0360   51.8410  -17.9010 C.3   209  SER209      0.2130
     38  OG        66.2970   52.8430  -17.2990 O.3   209  SER209     -0.2179
     39  N         68.0840   53.8640  -19.3530 N.am  210  ALA210     -0.1977
     40  CA        68.6990   55.0500  -19.9430 C.3   210  ALA210      0.1597
     41  C         69.6490   54.6160  -21.0490 C.2   210  ALA210      0.2287
     42  O         69.8410   55.3310  -22.0390 O.2   210  ALA210     -0.2864
     43  CB        69.4550   55.8390  -18.8890 C.3   210  ALA210      0.0319
     44  N         67.4590   53.8940  -24.0580 N.3   213  MET213     -0.1245
     45  CA        67.0320   55.1100  -24.7250 C.3   213  MET213      0.1570
     46  C         68.2130   55.6680  -25.5170 C.2   213  MET213      0.2261
     47  O         68.0190   56.2760  -26.5680 O.2   213  MET213     -0.2867
     48  CB        66.5430   56.1310  -23.7020 C.3   213  MET213      0.0387
     49  CG        65.2630   55.7130  -23.0120 C.3   213  MET213      0.0595
     50  SD        64.6180   57.0180  -21.9680 S.3   213  MET213     -0.1393
     51  CE        63.0620   56.2750  -21.3760 C.3   213  MET213      0.0692
     52  N         66.2100   61.5940  -10.0910 N.3   296  PHE296     -0.1241
     53  CA        65.1160   60.7680  -10.6020 C.3   296  PHE296      0.1605
     54  C         64.2320   60.0750   -9.5550 C.2   296  PHE296      0.2264
     55  O         63.1280   59.6220   -9.8690 O.2   296  PHE296     -0.2867
     56  CB        65.6460   59.7480  -11.6260 C.3   296  PHE296      0.0534
     57  CG        66.6490   58.7680  -11.0730 C.ar  296  PHE296     -0.0203
     58  CD1       66.2570   57.7660  -10.1870 C.ar  296  PHE296     -0.0042
     59  CD2       67.9760   58.8110  -11.4860 C.ar  296  PHE296     -0.0042
     60  CE1       67.1710   56.8190   -9.7270 C.ar  296  PHE296     -0.0003
     61  CE2       68.9030   57.8670  -11.0300 C.ar  296  PHE296     -0.0003
     62  CZ        68.4980   56.8690  -10.1510 C.ar  296  PHE296     -0.0000
     63  N         59.8260   60.9220  -13.2990 N.3   302  LEU302     -0.1245
     64  CA        60.1300   60.8630  -14.7270 C.3   302  LEU302      0.1561
     65  C         60.4080   62.1960  -15.4230 C.2   302  LEU302      0.2260
     66  O         60.9740   62.2120  -16.5110 O.2   302  LEU302     -0.2867
     67  CB        59.0110   60.1350  -15.4680 C.3   302  LEU302      0.0270
     68  CG        59.4630   59.3610  -16.7070 C.3   302  LEU302      0.0019
     69  CD1       60.2630   58.1370  -16.2590 C.3   302  LEU302      0.0001
     70  CD2       58.2540   58.9310  -17.5240 C.3   302  LEU302      0.0001
     71  N         62.6320   64.2250  -15.6870 N.3   304  LEU304     -0.1245
     72  CA        64.0600   64.3290  -15.4010 C.3   304  LEU304      0.1561
     73  C         64.7010   65.6870  -15.6030 C.2   304  LEU304      0.2260
     74  O         64.3910   66.4130  -16.5470 O.2   304  LEU304     -0.2867
     75  CB        64.8400   63.3090  -16.2340 C.3   304  LEU304      0.0270
     76  CG        64.5080   61.8310  -16.0340 C.3   304  LEU304      0.0019
     77  CD1       65.4670   60.9950  -16.8770 C.3   304  LEU304      0.0001
     78  CD2       64.6320   61.4680  -14.5610 C.3   304  LEU304      0.0001
     79  N         68.5820   64.8090  -19.4100 N.3   307  LEU307     -0.1245
     80  CA        68.2710   63.7360  -20.3490 C.3   307  LEU307      0.1561
     81  C         68.4570   64.2110  -21.7930 C.2   307  LEU307      0.2260
     82  O         68.5490   65.4060  -22.0460 O.2   307  LEU307     -0.2867
     83  CB        66.8280   63.2520  -20.1460 C.3   307  LEU307      0.0270
     84  CG        65.6600   64.0360  -20.7640 C.3   307  LEU307      0.0019
     85  CD1       64.3660   63.2750  -20.4860 C.3   307  LEU307      0.0001
     86  CD2       65.5780   65.4550  -20.1960 C.3   307  LEU307      0.0001
     87  N         59.2140   54.0980  -10.0150 N.3   345  PHE345     -0.1241
     88  CA        58.9800   55.5250  -10.1100 C.3   345  PHE345      0.1605
     89  C         57.7510   55.9580   -9.3250 C.2   345  PHE345      0.2264
     90  O         57.6670   57.0960   -8.8730 O.2   345  PHE345     -0.2867
     91  CB        58.8490   55.8940  -11.5880 C.3   345  PHE345      0.0534
     92  CG        59.9700   55.3500  -12.4330 C.ar  345  PHE345     -0.0203
     93  CD1       61.2170   55.9710  -12.4440 C.ar  345  PHE345     -0.0042
     94  CD2       59.8090   54.1650  -13.1510 C.ar  345  PHE345     -0.0042
     95  CE1       62.2910   55.4150  -13.1550 C.ar  345  PHE345     -0.0003
     96  CE2       60.8780   53.6030  -13.8630 C.ar  345  PHE345     -0.0003
     97  CZ        62.1200   54.2300  -13.8620 C.ar  345  PHE345     -0.0000
     98  N         58.2510   53.7290  -21.0640 N.3   415  PHE415     -0.1241
     99  CA        58.8150   52.5110  -21.6490 C.3   415  PHE415      0.1605
    100  C         57.9280   51.5570  -22.4590 C.2   415  PHE415      0.2264
    101  O         58.0550   51.4560  -23.6830 O.2   415  PHE415     -0.2867
    102  CB        59.4770   51.6950  -20.5340 C.3   415  PHE415      0.0534
    103  CG        60.2890   52.5210  -19.5740 C.ar  415  PHE415     -0.0203
    104  CD1       61.6190   52.8330  -19.8480 C.ar  415  PHE415     -0.0042
    105  CD2       59.7110   53.0200  -18.4110 C.ar  415  PHE415     -0.0042
    106  CE1       62.3580   53.6310  -18.9770 C.ar  415  PHE415     -0.0003
    107  CE2       60.4380   53.8210  -17.5340 C.ar  415  PHE415     -0.0003
    108  CZ        61.7660   54.1270  -17.8170 C.ar  415  PHE415     -0.0000
    109  N         61.4370   47.3620  -12.9200 N.3   449  HIS449     -0.1226
    110  CA        62.4040   48.0200  -13.7710 C.3   449  HIS449      0.1752
    111  C         63.8240   47.6320  -13.3840 C.2   449  HIS449      0.2596
    112  O         64.2080   47.7360  -12.2190 O.2   449  HIS449     -0.2718
    113  CB        62.2050   49.5290  -13.6410 C.3   449  HIS449      0.0759
    114  CG        63.0070   50.3370  -14.6100 C.ar  449  HIS449      0.0818
    115  ND1       62.8880   50.1940  -15.9760 N.ar  449  HIS449     -0.2268
    116  CD2       63.9170   51.3190  -14.4110 C.ar  449  HIS449      0.1154
    117  CE1       63.6900   51.0550  -16.5770 C.ar  449  HIS449      0.1986
    118  NE2       64.3250   51.7500  -15.6500 N.ar  449  HIS449     -0.2212
    119  N         64.5780   47.1700  -14.3800 N.am  450  SER450     -0.1952
    120  CA        65.9780   46.7530  -14.2580 C.3   450  SER450      0.1924
    121  C         66.2500   45.3750  -13.6570 C.2   450  SER450      0.2314
    122  O         67.4120   45.0120  -13.4610 O.2   450  SER450     -0.2863
    123  CB        66.7950   47.8020  -13.4940 C.3   450  SER450      0.2116
    124  OG        66.5300   47.7640  -12.1050 O.3   450  SER450     -0.2180
@<TRIPOS>BOND
     1    47    46    2
     2    46    45    1
     3    45    44    1
     4    45    48    1
     5    48    49    1
     6   101   100    2
     7    49    50    1
     8   100    99    1
     9    82    81    2
    10    42    41    2
    11    50    51    1
    12    81    80    1
    13    99    98    1
    14    99   102    1
    15    23    21   ar
    16    23    22   ar
    17    21    19   ar
    18    36    35    2
    19    24    25    1
    20    41    40    1
    21    84    85    1
    22    84    86    1
    23    84    83    1
    24    22    20   ar
    25   102   103    1
    26    25    26    1
    27    25    28    1
    28    19    18   ar
    29    80    83    1
    30    80    79    1
    31    35    34    1
    32    35    39   am
    33    26    33   am
    34    26    27    2
    35    40    39    1
    36    40    43    1
    37    33    34    1
    38   104   103   ar
    39   104   106   ar
    40   103   105   ar
    41    20    18   ar
    42    34    37    1
    43    28    29    1
    44    18    17    1
    45   106   108   ar
    46    29    30    1
    47   105   107   ar
    48    17    14    1
    49     1     2    1
    50    37    38    1
    51     2     3    1
    52   108   107   ar
    53    70    68    1
    54    30    32   ar
    55    30    31   ar
    56    14    13    1
    57    14    15    1
    58    77    76    1
    59    68    69    1
    60    68    67    1
    61    13    11   am
    62   117   115   ar
    63   117   118   ar
    64    74    73    2
    65    66    65    2
    66     3     5   am
    67     3     4    2
    68    16    15    2
    69    75    76    1
    70    75    72    1
    71     5     6    1
    72    76    78    1
    73   115   114   ar
    74    11    12    2
    75    11    10    1
    76    71    72    1
    77   118   116   ar
    78    73    72    1
    79    67    64    1
    80    65    64    1
    81    10     9    1
    82     9     7   am
    83    64    63    1
    84     6     7    1
    85   114   116   ar
    86   114   113    1
    87     7     8    2
    88   119   120    1
    89   119   111   am
    90   120   121    1
    91   120   123    1
    92    96    97   ar
    93    96    94   ar
    94    97    95   ar
    95   110   113    1
    96   110   111    1
    97   110   109    1
    98   121   122    2
    99   123   124    1
   100   111   112    2
   101    95    93   ar
   102    94    92   ar
   103    93    92   ar
   104    92    91    1
   105    56    57    1
   106    56    53    1
   107    91    88    1
   108    59    57   ar
   109    59    61   ar
   110    57    58   ar
   111    61    62   ar
   112    53    52    1
   113    53    54    1
   114    58    60   ar
   115    62    60   ar
   116    88    87    1
   117    88    89    1
   118    55    54    2
   119    89    90    2
