@<TRIPOS>MOLECULE
tmp/3rasB01.pdb
 79 76 0 0 0
SMALL
GASTEIGER

@<TRIPOS>ATOM
      1  N         35.9200   -7.2620    7.3050 N.3    11  THR11      -0.1203
      2  CA        35.7550   -8.7060    7.2950 C.3    11  THR11       0.1994
      3  C         34.5110   -9.1670    6.5200 C.2    11  THR11       0.2618
      4  O         34.2970  -10.3700    6.3050 O.2    11  THR11      -0.2717
      5  CB        35.7260   -9.2430    8.7380 C.3    11  THR11       0.1784
      6  OG1       34.6430   -8.6430    9.4490 O.3    11  THR11      -0.2211
      7  CG2       37.0430   -8.8960    9.4680 C.3    11  THR11       0.0376
      8  N         33.7140   -8.2040    6.0660 N.am   12  GLY12      -0.1956
      9  CA        32.5130   -8.5440    5.3360 C.3    12  GLY12       0.1869
     10  C         32.7300   -8.8810    3.8760 C.2    12  GLY12       0.2309
     11  O         33.8530   -9.0600    3.4160 O.2    12  GLY12      -0.2863
     12  N         35.9930   -7.4690    1.9510 N.3    16  THR16      -0.1218
     13  CA        37.0790   -8.3770    1.5800 C.3    16  THR16       0.1862
     14  C         37.3940   -8.2830    0.1090 C.2    16  THR16       0.2287
     15  O         38.5450   -8.4840   -0.2980 O.2    16  THR16      -0.2866
     16  CB        36.8080   -9.8660    1.9580 C.3    16  THR16       0.1770
     17  OG1       35.4780  -10.2510    1.5930 O.3    16  THR16      -0.2211
     18  CG2       37.0240  -10.0650    3.4350 C.3    16  THR16       0.0375
     19  N         32.8210   -9.8240   15.3670 N.3    39  ALA39      -0.1231
     20  CA        32.2440  -11.1350   15.1580 C.3    39  ALA39       0.1694
     21  C         33.3010  -12.0130   14.4970 C.2    39  ALA39       0.2592
     22  O         33.2890  -13.2280   14.6470 O.2    39  ALA39      -0.2718
     23  CB        31.0080  -11.0390   14.2750 C.3    39  ALA39       0.0304
     24  N         34.2210  -11.3960   13.7660 N.am   40  HIS40      -0.1976
     25  CA        35.2580  -12.1720   13.1060 C.3    40  HIS40       0.1656
     26  C         36.6210  -11.5910   13.3770 C.2    40  HIS40       0.2291
     27  O         37.4010  -11.3370   12.4700 O.2    40  HIS40      -0.2864
     28  CB        34.9830  -12.2600   11.6040 C.3    40  HIS40       0.0771
     29  CG        33.7160  -12.9860   11.2810 C.ar   40  HIS40       0.0820
     30  ND1       32.5950  -12.3500   10.7930 N.ar   40  HIS40      -0.2267
     31  CD2       33.3630  -14.2790   11.4640 C.ar   40  HIS40       0.1154
     32  CE1       31.6040  -13.2180   10.6930 C.ar   40  HIS40       0.1986
     33  NE2       32.0440  -14.3960   11.0950 N.ar   40  HIS40      -0.2212
     34  N         39.3660  -12.8370   14.5260 N.3    42  ASP42      -0.1225
     35  CA        40.4980  -13.5710   14.0020 C.3    42  ASP42       0.1805
     36  C         40.7920  -13.1430   12.5780 C.2    42  ASP42       0.2598
     37  O         41.9460  -12.9410   12.2220 O.2    42  ASP42      -0.2718
     38  CB        40.2120  -15.0620   14.0800 C.3    42  ASP42       0.1424
     39  CG        39.8490  -15.4990   15.4870 C.2    42  ASP42       0.3668
     40  OD1       40.6880  -15.3240   16.4040 O.co2  42  ASP42      -0.2456
     41  OD2       38.7190  -16.0050   15.6780 O.co2  42  ASP42      -0.2456
     42  N         39.7580  -12.9980   11.7560 N.am   43  THR43      -0.1953
     43  CA        39.9620  -12.5600   10.3730 C.3    43  THR43       0.1897
     44  C         40.5830  -11.1560   10.3160 C.2    43  THR43       0.2313
     45  O         41.4330  -10.8830    9.4760 O.2    43  THR43      -0.2863
     46  CB        38.6440  -12.5380    9.6030 C.3    43  THR43       0.1794
     47  OG1       38.1550  -13.8750    9.4890 O.3    43  THR43      -0.2208
     48  CG2       38.8420  -11.9510    8.2150 C.3    43  THR43       0.0378
     49  N         44.2150  -11.3360   11.2600 N.3    46  ARG46      -0.1245
     50  CA        44.9380  -11.9420   10.1450 C.3    46  ARG46       0.1563
     51  C         45.1260  -10.8730    9.0780 C.2    46  ARG46       0.2260
     52  O         46.1420  -10.8530    8.3860 O.2    46  ARG46      -0.2867
     53  CB        44.1550  -13.1080    9.5460 C.3    46  ARG46       0.0307
     54  CG        44.1520  -14.3800   10.3730 C.3    46  ARG46       0.0489
     55  CD        43.4770  -15.5020    9.6110 C.3    46  ARG46       0.2205
     56  NE        43.5310  -16.7840   10.3160 N.pl3  46  ARG46      -0.0865
     57  CZ        42.7420  -17.1330   11.3330 C.cat  46  ARG46       0.5346
     58  NH1       41.8210  -16.2910   11.7820 N.pl3  46  ARG46       0.1354
     59  NH2       42.8660  -18.3340   11.8950 N.pl3  46  ARG46       0.1354
     60  N         26.9730  -18.7740    4.8390 N.3   193  TRP193     -0.1227
     61  CA        28.0940  -18.4780    5.7170 C.3   193  TRP193      0.1737
     62  C         28.4880  -16.9970    5.8480 C.2   193  TRP193      0.2596
     63  O         29.0360  -16.5940    6.8810 O.2   193  TRP193     -0.2718
     64  CB        29.3140  -19.2740    5.2530 C.3   193  TRP193      0.0564
     65  CG        29.9020  -18.7180    4.0140 C.ar  193  TRP193      0.0003
     66  CD1       29.3830  -18.7880    2.7560 C.ar  193  TRP193      0.0946
     67  CD2       31.0870  -17.9220    3.9180 C.ar  193  TRP193      0.0152
     68  NE1       30.1700  -18.0800    1.8790 N.ar  193  TRP193     -0.2442
     69  CE2       31.2230  -17.5380    2.5670 C.ar  193  TRP193      0.0810
     70  CE3       32.0450  -17.4930    4.8460 C.ar  193  TRP193      0.0012
     71  CZ2       32.2830  -16.7430    2.1180 C.ar  193  TRP193      0.0191
     72  CZ3       33.1000  -16.7010    4.4010 C.ar  193  TRP193      0.0001
     73  CH2       33.2090  -16.3360    3.0480 C.ar  193  TRP193      0.0015
     74  N         28.2150  -16.1940    4.8180 N.am  194  SER194     -0.1952
     75  CA        28.5940  -14.7770    4.8280 C.3   194  SER194      0.1924
     76  C         27.5090  -13.7470    5.1510 C.2   194  SER194      0.2314
     77  O         27.5970  -13.0610    6.1700 O.2   194  SER194     -0.2863
     78  CB        29.2370  -14.4130    3.4920 C.3   194  SER194      0.2116
     79  OG        28.3440  -14.6700    2.4240 O.3   194  SER194     -0.2180
@<TRIPOS>BOND
     1    15    14    2
     2    14    13    1
     3    13    12    1
     4    13    16    1
     5    17    16    1
     6    68    69   ar
     7    68    66   ar
     8    16    18    1
     9    71    69   ar
    10    71    73   ar
    11    79    78    1
    12    69    67   ar
    13    66    65   ar
    14    73    72   ar
    15    11    10    2
    16    78    75    1
    17    10     9    1
    18    67    65   ar
    19    67    70   ar
    20    65    64    1
    21    72    70   ar
    22    74    75    1
    23    74    62   am
    24    75    76    1
    25    60    61    1
    26    76    77    2
    27    64    61    1
    28     9     8    1
    29    61    62    1
    30    62    63    2
    31     8     3   am
    32     4     3    2
    33     3     2    1
    34     2     1    1
    35     2     5    1
    36    48    46    1
    37    52    51    2
    38     5     6    1
    39     5     7    1
    40    51    50    1
    41    45    44    2
    42    47    46    1
    43    53    50    1
    44    53    54    1
    45    46    43    1
    46    55    56    1
    47    55    54    1
    48    50    49    1
    49    44    43    1
    50    56    57    2
    51    43    42    1
    52    32    30   ar
    53    32    33   ar
    54    30    29   ar
    55    33    31   ar
    56    29    31   ar
    57    29    28    1
    58    57    58    1
    59    57    59    1
    60    28    25    1
    61    42    36   am
    62    37    36    2
    63    27    26    2
    64    36    35    1
    65    25    26    1
    66    25    24    1
    67    24    21   am
    68    35    38    1
    69    35    34    1
    70    38    39    1
    71    23    20    1
    72    21    22    2
    73    21    20    1
    74    20    19    1
    75    39    41   ar
    76    39    40   ar
