@<TRIPOS>MOLECULE
tmp/3rasA01.pdb
 177 168 0 0 0
SMALL
GASTEIGER

@<TRIPOS>ATOM
      1  N         28.9180    7.8290  -45.3280 N.3   118  LYS118     -0.1245
      2  CA        30.0930    7.1390  -44.8080 C.3   118  LYS118      0.1561
      3  C         31.1520    6.8580  -45.8730 C.2   118  LYS118      0.2260
      4  O         32.3470    6.8410  -45.5820 O.2   118  LYS118     -0.2867
      5  CB        29.6600    5.8370  -44.1210 C.3   118  LYS118      0.0271
      6  CG        28.8390    4.9200  -45.0130 C.3   118  LYS118      0.0035
      7  CD        28.1620    3.7990  -44.2320 C.3   118  LYS118      0.0206
      8  CE        26.9920    4.3220  -43.4200 C.3   118  LYS118      0.1093
      9  NZ        26.1730    3.2270  -42.8200 N.3   118  LYS118     -0.1314
     10  N         25.4120    8.2530  -38.5830 N.3   141  ASP141     -0.1225
     11  CA        25.2030    6.8140  -38.6470 C.3   141  ASP141      0.1805
     12  C         24.9270    6.3810  -37.2090 C.2   141  ASP141      0.2598
     13  O         25.6590    6.7680  -36.2990 O.2   141  ASP141     -0.2718
     14  CB        26.4830    6.1540  -39.1520 C.3   141  ASP141      0.1424
     15  CG        26.2480    4.7910  -39.7370 C.2   141  ASP141      0.3668
     16  OD1       25.3420    4.0800  -39.2580 O.co2 141  ASP141     -0.2456
     17  OD2       26.9890    4.4260  -40.6670 O.co2 141  ASP141     -0.2456
     18  N         23.8910    5.5750  -37.0010 N.am  142  SER142     -0.1938
     19  CA        23.5190    5.1450  -35.6550 C.3   142  SER142      0.2055
     20  C         24.5340    4.3440  -34.8420 C.2   142  SER142      0.2642
     21  O         24.5400    4.4450  -33.6180 O.2   142  SER142     -0.2714
     22  CB        22.2170    4.3710  -35.7040 C.3   142  SER142      0.2130
     23  OG        22.4180    3.1620  -36.3870 O.3   142  SER142     -0.2179
     24  N         25.3760    3.5370  -35.4810 N.am  143  GLU143     -0.1976
     25  CA        26.3660    2.7950  -34.7000 C.3   143  GLU143      0.1602
     26  C         27.3660    3.7660  -34.0970 C.2   143  GLU143      0.2287
     27  O         27.7270    3.6620  -32.9290 O.2   143  GLU143     -0.2864
     28  CB        27.1370    1.7920  -35.5550 C.3   143  GLU143      0.0415
     29  CG        26.3570    0.5730  -36.0080 C.3   143  GLU143      0.1163
     30  CD        25.3370    0.9080  -37.0670 C.2   143  GLU143      0.3649
     31  OE1       25.5180    1.9500  -37.7300 O.co2 143  GLU143     -0.2457
     32  OE2       24.3690    0.1290  -37.2410 O.co2 143  GLU143     -0.2457
     33  N         27.1460   -3.4410  -33.4100 N.3   165  THR165     -0.1203
     34  CA        26.0830   -4.4190  -33.5580 C.3   165  THR165      0.1994
     35  C         25.5660   -4.3650  -34.9750 C.2   165  THR165      0.2618
     36  O         25.5310   -3.3010  -35.5850 O.2   165  THR165     -0.2717
     37  CB        24.9210   -4.1340  -32.6240 C.3   165  THR165      0.1784
     38  OG1       24.5100   -2.7750  -32.7830 O.3   165  THR165     -0.2211
     39  CG2       25.3230   -4.3890  -31.1900 C.3   165  THR165      0.0376
     40  N         25.1580   -5.5150  -35.4950 N.am  166  ALA166     -0.1965
     41  CA        24.6480   -5.6060  -36.8590 C.3   166  ALA166      0.1728
     42  C         23.3500   -6.3960  -36.8730 C.2   166  ALA166      0.2617
     43  O         23.2490   -7.4470  -36.2430 O.2   166  ALA166     -0.2715
     44  CB        25.6680   -6.2850  -37.7350 C.3   166  ALA166      0.0334
     45  N         22.3590   -5.9000  -37.6020 N.am  167  SER167     -0.1936
     46  CA        21.0680   -6.5740  -37.6770 C.3   167  SER167      0.2055
     47  C         21.2030   -7.9910  -38.2190 C.2   167  SER167      0.2644
     48  O         20.3580   -8.8470  -37.9540 O.2   167  SER167     -0.2714
     49  CB        20.1080   -5.7850  -38.5650 C.3   167  SER167      0.2130
     50  OG        20.1290   -6.2770  -39.8950 O.3   167  SER167     -0.2179
     51  N         22.2690   -8.2340  -38.9750 N.am  168  GLY168     -0.1939
     52  CA        22.4830   -9.5530  -39.5430 C.3   168  GLY168      0.2014
     53  C         21.8930   -9.6180  -40.9380 C.2   168  GLY168      0.2639
     54  O         22.0820  -10.5950  -41.6610 O.2   168  GLY168     -0.2714
     55  N         21.1790   -8.5630  -41.3160 N.am  169  GLY169     -0.1954
     56  CA        20.5770   -8.5140  -42.6300 C.3   169  GLY169      0.1869
     57  C         19.4470   -9.5050  -42.6600 C.2   169  GLY169      0.2309
     58  O         19.2660  -10.2390  -41.6930 O.2   169  GLY169     -0.2863
     59  N         12.1670   -4.3700  -46.9160 N.3   190  HIS190     -0.1241
     60  CA        12.4190   -4.4540  -45.5090 C.3   190  HIS190      0.1621
     61  C         11.1040   -4.5250  -44.7740 C.2   190  HIS190      0.2264
     62  O         10.2340   -3.6790  -45.0270 O.2   190  HIS190     -0.2867
     63  CB        13.3220   -3.2770  -45.1200 C.3   190  HIS190      0.0745
     64  CG        14.0970   -3.5570  -43.8240 C.ar  190  HIS190      0.0817
     65  ND1       13.4690   -3.4680  -42.5990 N.ar  190  HIS190     -0.2268
     66  CD2       15.3760   -3.9230  -43.5640 C.ar  190  HIS190      0.1154
     67  CE1       14.3320   -3.7570  -41.6390 C.ar  190  HIS190      0.1986
     68  NE2       15.4970   -4.0370  -42.1970 N.ar  190  HIS190     -0.2212
     69  N         11.1840   -1.0190  -41.4910 N.3   193  TRP193     -0.1241
     70  CA        11.4670    0.4190  -41.5160 C.3   193  TRP193      0.1605
     71  C         12.2230    0.5740  -42.7770 C.2   193  TRP193      0.2264
     72  O         12.6440   -0.4380  -43.3540 O.2   193  TRP193     -0.2867
     73  CB        12.2230    0.9460  -40.2760 C.3   193  TRP193      0.0550
     74  CG        12.6070   -0.1440  -39.3180 C.ar  193  TRP193      0.0003
     75  CD1       13.5080   -1.1450  -39.5560 C.ar  193  TRP193      0.0946
     76  CD2       12.0920   -0.3760  -37.9960 C.ar  193  TRP193      0.0152
     77  NE1       13.5820   -1.9870  -38.4700 N.ar  193  TRP193     -0.2442
     78  CE2       12.7260   -1.5400  -37.4980 C.ar  193  TRP193      0.0810
     79  CE3       11.1550    0.2830  -37.1850 C.ar  193  TRP193      0.0012
     80  CZ2       12.4540   -2.0600  -36.2230 C.ar  193  TRP193      0.0191
     81  CZ3       10.8850   -0.2360  -35.9160 C.ar  193  TRP193      0.0001
     82  CH2       11.5350   -1.3970  -35.4500 C.ar  193  TRP193      0.0015
     83  N         15.2450    2.5760  -45.5470 N.3   195  MET195     -0.1245
     84  CA        16.4810    3.3120  -45.7780 C.3   195  MET195      0.1570
     85  C         16.6010    3.4330  -47.2840 C.2   195  MET195      0.2261
     86  O         15.7220    2.9800  -48.0130 O.2   195  MET195     -0.2867
     87  CB        17.6890    2.5230  -45.2750 C.3   195  MET195      0.0387
     88  CG        17.4740    1.7730  -43.9800 C.3   195  MET195      0.0595
     89  SD        18.7890    0.5750  -43.7410 S.3   195  MET195     -0.1393
     90  CE        18.2310   -0.7560  -44.7550 C.3   195  MET195      0.0692
     91  N         22.0820    1.4970  -49.2710 N.3   199  ASN199     -0.1240
     92  CA        22.3250    1.1850  -47.8630 C.3   199  ASN199      0.1653
     93  C         21.5510   -0.0500  -47.4270 C.2   199  ASN199      0.2266
     94  O         21.9420   -0.7320  -46.4790 O.2   199  ASN199     -0.2867
     95  CB        21.9560    2.3820  -46.9780 C.3   199  ASN199      0.1155
     96  CG        22.4110    2.2080  -45.5400 C.2   199  ASN199      0.2627
     97  OD1       21.7830    1.4980  -44.7610 O.2   199  ASN199     -0.2716
     98  ND2       23.5210    2.8480  -45.1870 N.am  199  ASN199     -0.0877
     99  N         23.3320   -3.6960  -46.2860 N.3   203  SER203     -0.1217
    100  CA        22.8950   -4.2520  -45.0050 C.3   203  SER203      0.1889
    101  C         22.7680   -5.7610  -45.1670 C.2   203  SER203      0.2288
    102  O         23.1610   -6.5250  -44.2950 O.2   203  SER203     -0.2866
    103  CB        21.5390   -3.6640  -44.5960 C.3   203  SER203      0.2089
    104  OG        20.9650   -4.3730  -43.5020 O.3   203  SER203     -0.2183
    105  N         26.1690   -7.3070  -45.6320 N.3   206  LEU206     -0.1245
    106  CA        27.0240   -7.1130  -44.4620 C.3   206  LEU206      0.1561
    107  C         28.2110   -6.2290  -44.8130 C.2   206  LEU206      0.2260
    108  O         29.1140   -6.0250  -43.9990 O.2   206  LEU206     -0.2867
    109  CB        27.5290   -8.4570  -43.9110 C.3   206  LEU206      0.0270
    110  CG        26.8350   -9.0140  -42.6640 C.3   206  LEU206      0.0019
    111  CD1       27.1830   -8.1650  -41.4450 C.3   206  LEU206      0.0001
    112  CD2       25.3360   -9.0480  -42.8940 C.3   206  LEU206      0.0001
    113  N         27.8670   -3.1770  -45.4330 N.3   208  ASN208     -0.1225
    114  CA        27.5930   -1.9240  -44.7570 C.3   208  ASN208      0.1785
    115  C         28.3350   -1.9380  -43.4400 C.2   208  ASN208      0.2597
    116  O         28.9630   -0.9480  -43.0570 O.2   208  ASN208     -0.2718
    117  CB        26.1020   -1.7620  -44.4760 C.3   208  ASN208      0.1169
    118  CG        25.7870   -0.4460  -43.7720 C.2   208  ASN208      0.2627
    119  OD1       26.1000    0.6300  -44.2870 O.2   208  ASN208     -0.2716
    120  ND2       25.1740   -0.5250  -42.5940 N.am  208  ASN208     -0.0877
    121  N         28.2510   -3.0710  -42.7480 N.am  209  LYS209     -0.1980
    122  CA        28.9050   -3.2330  -41.4620 C.3   209  LYS209      0.1596
    123  C         30.4080   -3.1360  -41.6750 C.2   209  LYS209      0.2287
    124  O         31.1360   -2.5600  -40.8570 O.2   209  LYS209     -0.2864
    125  CB        28.5440   -4.5830  -40.8560 C.3   209  LYS209      0.0298
    126  CG        28.6370   -4.6010  -39.3550 C.3   209  LYS209      0.0038
    127  CD        27.8650   -3.4260  -38.7450 C.3   209  LYS209      0.0206
    128  CE        26.4420   -3.3370  -39.2820 C.3   209  LYS209      0.1093
    129  NZ        25.7270   -2.1410  -38.7660 N.3   209  LYS209     -0.1314
    130  N         31.2110    0.2910  -41.8480 N.3   212  GLU212     -0.1245
    131  CA        31.1550    0.9260  -40.5290 C.3   212  GLU212      0.1567
    132  C         32.3400    0.6120  -39.6350 C.2   212  GLU212      0.2260
    133  O         32.6650    1.3870  -38.7300 O.2   212  GLU212     -0.2867
    134  CB        29.8470    0.5640  -39.8320 C.3   212  GLU212      0.0388
    135  CG        28.6620    1.1500  -40.5720 C.3   212  GLU212      0.1160
    136  CD        27.3370    0.8820  -39.9190 C.2   212  GLU212      0.3649
    137  OE1       26.3960    1.6470  -40.1970 O.co2 212  GLU212     -0.2457
    138  OE2       27.2230   -0.0880  -39.1460 O.co2 212  GLU212     -0.2457
    139  N         18.1490   -4.8030  -33.1520 N.3   235  SER235     -0.1217
    140  CA        18.6620   -3.4820  -33.4780 C.3   235  SER235      0.1889
    141  C         18.1600   -2.4100  -32.5070 C.2   235  SER235      0.2288
    142  O         17.7740   -1.3190  -32.9240 O.2   235  SER235     -0.2866
    143  CB        18.2830   -3.1000  -34.9050 C.3   235  SER235      0.2089
    144  OG        19.0230   -3.8760  -35.8300 O.3   235  SER235     -0.2183
    145  N         22.4410   -0.0940  -30.2230 N.3   238  HIS238     -0.1241
    146  CA        23.0590    0.3650  -31.4590 C.3   238  HIS238      0.1621
    147  C         24.5690    0.2830  -31.5250 C.2   238  HIS238      0.2264
    148  O         25.1460    0.5430  -32.5750 O.2   238  HIS238     -0.2867
    149  CB        22.6030    1.7950  -31.7450 C.3   238  HIS238      0.0745
    150  CG        21.1270    1.9120  -31.9460 C.ar  238  HIS238      0.0817
    151  ND1       20.4680    1.2840  -32.9820 N.ar  238  HIS238     -0.2268
    152  CD2       20.1720    2.5230  -31.2080 C.ar  238  HIS238      0.1154
    153  CE1       19.1700    1.5000  -32.8690 C.ar  238  HIS238      0.1986
    154  NE2       18.9650    2.2480  -31.8020 N.ar  238  HIS238     -0.2212
    155  N         14.4960    1.6510  -33.1950 N.3   255  PRO255     -0.2102
    156  CA        15.0570    2.1720  -34.4390 C.3   255  PRO255      0.1504
    157  C         14.3640    3.4150  -34.9990 C.2   255  PRO255      0.2576
    158  O         13.1490    3.4170  -35.2220 O.2   255  PRO255     -0.2718
    159  CB        14.9650    0.9700  -35.3770 C.3   255  PRO255      0.0282
    160  CG        15.1330   -0.1870  -34.4350 C.3   255  PRO255      0.0208
    161  CD        14.2450    0.2050  -33.2920 C.3   255  PRO255      0.0893
    162  N         15.1530    4.4690  -35.2080 N.am  256  ASP256     -0.1960
    163  CA        14.6820    5.7350  -35.7760 C.3   256  ASP256      0.1840
    164  C         15.8470    6.7030  -35.9840 C.2   256  ASP256      0.2621
    165  O         16.2700    7.3830  -35.0630 O.2   256  ASP256     -0.2715
    166  CB        13.6240    6.4070  -34.8910 C.3   256  ASP256      0.1450
    167  CG        13.1110    7.7320  -35.4860 C.2   256  ASP256      0.3671
    168  OD1       13.4050    8.0390  -36.6660 O.co2 256  ASP256     -0.2456
    169  OD2       12.3990    8.4740  -34.7770 O.co2 256  ASP256     -0.2456
    170  N         16.3400    6.7670  -37.2130 N.am  257  MET257     -0.1977
    171  CA        17.4490    7.6440  -37.5480 C.3   257  MET257      0.1605
    172  C         17.2580    9.0930  -37.1110 C.2   257  MET257      0.2287
    173  O         18.2180    9.8570  -37.0570 O.2   257  MET257     -0.2864
    174  CB        17.7340    7.5860  -39.0520 C.3   257  MET257      0.0413
    175  CG        18.5210    6.3500  -39.5110 C.3   257  MET257      0.0598
    176  SD        20.1090    6.1230  -38.6380 S.3   257  MET257     -0.1393
    177  CE        21.1340    7.4850  -39.3240 C.3   257  MET257      0.0692
@<TRIPOS>BOND
     1    91    92    1
     2    86    85    2
     3    92    93    1
     4    92    95    1
     5    93    94    2
     6    85    84    1
     7    95    96    1
     8    59    60    1
     9    99   100    1
    10     3     4    2
    11     3     2    1
    12    84    83    1
    13    84    87    1
    14   105   106    1
    15    96    98   am
    16    96    97    2
    17    60    63    1
    18    60    61    1
    19   113   114    1
    20     1     2    1
    21    87    88    1
    22   101   100    1
    23   101   102    2
    24    63    64    1
    25    62    61    2
    26     6     7    1
    27     6     5    1
    28   100   103    1
    29   107   106    1
    30   107   108    2
    31     2     5    1
    32   114   117    1
    33   114   115    1
    34    90    89    1
    35   103   104    1
    36   117   118    1
    37   106   109    1
    38   119   118    2
    39     7     8    1
    40    88    89    1
    41   109   110    1
    42    64    66   ar
    43    64    65   ar
    44   118   120   am
    45    66    68   ar
    46   115   116    2
    47   115   121   am
    48     8     9    1
    49    72    71    2
    50   112   110    1
    51    71    70    1
    52   121   122    1
    53   110   111    1
    54    57    56    1
    55    57    58    2
    56    56    55    1
    57    65    67   ar
    58    68    67   ar
    59   130   131    1
    60   123   122    1
    61   123   124    2
    62    54    53    2
    63    70    69    1
    64    70    73    1
    65   122   125    1
    66    55    53   am
    67    53    52    1
    68   125   126    1
    69    17    15   ar
    70   135   136    1
    71   135   134    1
    72   131   134    1
    73   131   132    1
    74    73    74    1
    75   137   136   ar
    76   136   138   ar
    77    50    49    1
    78    15    16   ar
    79    15    14    1
    80   132   133    2
    81    75    74   ar
    82    75    77   ar
    83    52    51    1
    84   175   174    1
    85   175   176    1
    86   126   127    1
    87   177   176    1
    88    74    76   ar
    89   128   129    1
    90   128   127    1
    91    14    11    1
    92   174   171    1
    93    51    47   am
    94    11    10    1
    95    11    12    1
    96    49    46    1
    97    77    78   ar
    98    47    48    2
    99    47    46    1
   100    76    78   ar
   101    76    79   ar
   102    44    41    1
   103    31    30   ar
   104    46    45    1
   105    45    42   am
   106   171   170    1
   107   171   172    1
   108    78    80   ar
   109    32    30   ar
   110   170   164   am
   111    12    18   am
   112    12    13    2
   113    79    81   ar
   114   172   173    2
   115    30    29    1
   116    18    19    1
   117    42    41    1
   118    42    43    2
   119    41    40    1
   120   168   167   ar
   121    23    22    1
   122    80    82   ar
   123    29    28    1
   124   164   163    1
   125   164   165    2
   126    81    82   ar
   127   144   143    1
   128   163   162    1
   129   163   166    1
   130    22    19    1
   131    19    20    1
   132    36    35    2
   133    28    25    1
   134    40    35   am
   135   167   166    1
   136   167   169   ar
   137    24    20   am
   138    24    25    1
   139   159   156    1
   140   159   160    1
   141   158   157    2
   142   162   157   am
   143   157   156    1
   144    35    34    1
   145   143   140    1
   146    20    21    2
   147    25    26    1
   148   156   155    1
   149   160   161    1
   150    26    27    2
   151    34    33    1
   152    34    37    1
   153   140   139    1
   154   140   141    1
   155   161   155    1
   156   151   153   ar
   157   151   150   ar
   158   142   141    2
   159   153   154   ar
   160    38    37    1
   161    37    39    1
   162   148   147    2
   163   150   149    1
   164   150   152   ar
   165   154   152   ar
   166   149   146    1
   167   147   146    1
   168   146   145    1
