@<TRIPOS>MOLECULE
tmp/3rawB00.pdb
 168 157 0 0 0
SMALL
GASTEIGER

@<TRIPOS>ATOM
      1  N         67.5410   67.5680   53.6980 N.3    27  LEU27      -0.1231
      2  CA        67.0580   66.2340   54.0260 C.3    27  LEU27       0.1693
      3  C         66.7910   65.4010   52.7860 C.2    27  LEU27       0.2593
      4  O         66.6850   64.2090   52.8880 O.2    27  LEU27      -0.2718
      5  CB        65.8080   66.3130   54.9010 C.3    27  LEU27       0.0284
      6  CG        66.0340   66.9370   56.2770 C.3    27  LEU27       0.0019
      7  CD1       64.7210   67.0570   57.0440 C.3    27  LEU27       0.0001
      8  CD2       67.0850   66.1490   57.0830 C.3    27  LEU27       0.0001
      9  N         66.7050   66.0110   51.6140 N.am   28  GLY28      -0.1942
     10  CA        66.4540   65.2430   50.4060 C.3    28  GLY28       0.2014
     11  C         65.6320   66.0590   49.4500 C.2    28  GLY28       0.2639
     12  O         65.1360   67.0930   49.8200 O.2    28  GLY28      -0.2714
     13  N         65.5220   65.5830   48.2150 N.am   29  GLU29      -0.1963
     14  CA        64.8880   66.3040   47.1140 C.3    29  GLU29       0.1733
     15  C         64.0290   65.2920   46.3640 C.2    29  GLU29       0.2616
     16  O         64.0360   64.0940   46.6750 O.2    29  GLU29      -0.2715
     17  CB        65.9330   66.9350   46.1620 C.3    29  GLU29       0.0429
     18  CG        67.1080   67.6520   46.8320 C.3    29  GLU29       0.1163
     19  CD        68.1550   66.8370   47.5330 C.2    29  GLU29       0.3649
     20  OE1       68.7230   65.8930   47.0170 O.co2  29  GLU29      -0.2457
     21  OE2       68.4050   67.2180   48.7060 O.co2  29  GLU29      -0.2457
     22  N         63.2820   65.7740   45.3810 N.am   30  GLY30      -0.1955
     23  CA        62.3200   64.9340   44.6720 C.3    30  GLY30       0.1869
     24  C         61.7120   65.6470   43.4800 C.2    30  GLY30       0.2309
     25  O         62.1140   66.7700   43.1410 O.2    30  GLY30      -0.2863
     26  N         58.6440   66.5260   43.3770 N.3    32  PHE32      -0.1241
     27  CA        57.7820   67.5200   44.0190 C.3    32  PHE32       0.1605
     28  C         58.4680   68.8160   44.4940 C.2    32  PHE32       0.2264
     29  O         57.8210   69.8410   44.6330 O.2    32  PHE32      -0.2867
     30  CB        57.0990   66.8860   45.2470 C.3    32  PHE32       0.0534
     31  CG        58.0620   66.5170   46.3700 C.ar   32  PHE32      -0.0203
     32  CD1       58.5440   67.4830   47.2500 C.ar   32  PHE32      -0.0042
     33  CD2       58.4730   65.2150   46.5400 C.ar   32  PHE32      -0.0042
     34  CE1       59.4160   67.1470   48.2700 C.ar   32  PHE32      -0.0003
     35  CE2       59.3470   64.8820   47.5540 C.ar   32  PHE32      -0.0003
     36  CZ        59.8160   65.8520   48.4190 C.ar   32  PHE32      -0.0000
     37  N         63.1110   68.8570   50.6320 N.3    35  VAL35      -0.1245
     38  CA        62.8480   68.8500   52.0680 C.3    35  VAL35       0.1561
     39  C         64.1230   69.2760   52.7800 C.2    35  VAL35       0.2260
     40  O         65.2030   68.7420   52.5060 O.2    35  VAL35      -0.2867
     41  CB        62.4250   67.4610   52.5770 C.3    35  VAL35       0.0252
     42  CG1       62.1030   67.4990   54.0880 C.3    35  VAL35       0.0019
     43  CG2       61.2250   66.9670   51.8000 C.3    35  VAL35       0.0019
     44  N         60.9010   69.1910   59.7750 N.3    49  ALA49      -0.1245
     45  CA        61.2280   68.9680   58.3590 C.3    49  ALA49       0.1562
     46  C         60.2840   69.8530   57.5800 C.2    49  ALA49       0.2260
     47  O         59.0800   69.8250   57.8170 O.2    49  ALA49      -0.2867
     48  CB        61.0000   67.4910   57.9530 C.3    49  ALA49       0.0290
     49  N         58.9330   70.6940   53.8960 N.3    51  LYS51      -0.1245
     50  CA        58.8080   70.2850   52.5290 C.3    51  LYS51       0.1561
     51  C         58.4270   71.5190   51.7220 C.2    51  LYS51       0.2260
     52  O         57.3550   72.0850   51.9190 O.2    51  LYS51      -0.2867
     53  CB        57.7330   69.1920   52.4400 C.3    51  LYS51       0.0271
     54  CG        57.3990   68.6400   51.0640 C.3    51  LYS51       0.0035
     55  CD        56.2830   67.5910   51.2320 C.3    51  LYS51       0.0206
     56  CE        55.8870   66.8660   49.9700 C.3    51  LYS51       0.1093
     57  NZ        54.7530   65.9170   50.2380 N.3    51  LYS51      -0.1314
     58  N         47.2270   67.5040   49.4730 N.3    66  GLU66      -0.1245
     59  CA        47.9410   66.9160   50.6050 C.3    66  GLU66       0.1567
     60  C         47.6280   67.6060   51.9250 C.2    66  GLU66       0.2260
     61  O         47.4240   66.9670   52.9630 O.2    66  GLU66      -0.2867
     62  CB        49.4500   66.9290   50.3660 C.3    66  GLU66       0.0388
     63  CG        50.2600   66.2670   51.4670 C.3    66  GLU66       0.1160
     64  CD        51.7480   66.0460   51.0910 C.2    66  GLU66       0.3649
     65  OE1       52.3130   66.8570   50.3220 O.co2  66  GLU66      -0.2457
     66  OE2       52.3600   65.0750   51.5970 O.co2  66  GLU66      -0.2457
     67  N         52.8760   60.7870   59.2680 N.3    85  VAL85      -0.1245
     68  CA        53.6330   61.9910   59.5890 C.3    85  VAL85       0.1561
     69  C         52.6730   63.0810   60.0680 C.2    85  VAL85       0.2260
     70  O         51.5210   63.1600   59.6540 O.2    85  VAL85      -0.2867
     71  CB        54.4030   62.5520   58.3910 C.3    85  VAL85       0.0252
     72  CG1       55.4940   61.6380   57.9810 C.3    85  VAL85       0.0019
     73  CG2       53.4380   62.8420   57.2180 C.3    85  VAL85       0.0019
     74  N         56.5900   69.4460   59.0560 N.3   101  PHE101     -0.1227
     75  CA        56.3830   68.1640   59.6910 C.3   101  PHE101      0.1736
     76  C         57.2970   68.0410   60.9000 C.2   101  PHE101      0.2595
     77  O         58.3160   68.7180   60.9740 O.2   101  PHE101     -0.2718
     78  CB        56.7210   67.0290   58.7160 C.3   101  PHE101      0.0547
     79  CG        55.8150   66.9680   57.5010 C.ar  101  PHE101     -0.0202
     80  CD1       54.5130   66.5040   57.6030 C.ar  101  PHE101     -0.0042
     81  CD2       56.2800   67.3370   56.2590 C.ar  101  PHE101     -0.0042
     82  CE1       53.6970   66.4400   56.4880 C.ar  101  PHE101     -0.0003
     83  CE2       55.4640   67.2720   55.1320 C.ar  101  PHE101     -0.0003
     84  CZ        54.1730   66.8250   55.2570 C.ar  101  PHE101     -0.0000
     85  N         56.9430   67.1540   61.8230 N.am  102  GLU102     -0.1965
     86  CA        57.8260   66.7820   62.9020 C.3   102  GLU102      0.1733
     87  C         58.9760   66.0600   62.2480 C.2   102  GLU102      0.2616
     88  O         58.7440   65.2180   61.3890 O.2   102  GLU102     -0.2715
     89  CB        57.1250   65.8420   63.8850 C.3   102  GLU102      0.0429
     90  CG        55.9280   66.4540   64.5680 C.3   102  GLU102      0.1163
     91  CD        56.2320   67.5860   65.4950 C.2   102  GLU102      0.3649
     92  OE1       57.4090   67.7810   65.9000 O.co2 102  GLU102     -0.2457
     93  OE2       55.2490   68.2210   65.9050 O.co2 102  GLU102     -0.2457
     94  N         60.2040   66.3850   62.6590 N.am  103  LEU103     -0.1963
     95  CA        61.4250   65.7930   62.0860 C.3   103  LEU103      0.1728
     96  C         61.5620   64.3200   62.4550 C.2   103  LEU103      0.2616
     97  O         61.4520   63.9420   63.5980 O.2   103  LEU103     -0.2715
     98  CB        62.6980   66.5300   62.5370 C.3   103  LEU103      0.0311
     99  CG        64.0340   66.1850   61.8280 C.3   103  LEU103      0.0022
    100  CD1       64.1040   66.7350   60.4050 C.3   103  LEU103      0.0001
    101  CD2       65.2530   66.7060   62.6390 C.3   103  LEU103      0.0001
    102  N         61.8170   63.5240   61.4340 N.am  104  LEU104     -0.1963
    103  CA        62.0160   62.1160   61.5110 C.3   104  LEU104      0.1728
    104  C         63.4070   61.8400   60.9140 C.2   104  LEU104      0.2616
    105  O         64.1320   62.7790   60.5250 O.2   104  LEU104     -0.2715
    106  CB        60.9070   61.4150   60.6970 C.3   104  LEU104      0.0311
    107  CG        59.4520   61.6790   61.1470 C.3   104  LEU104      0.0022
    108  CD1       58.4310   60.9930   60.2510 C.3   104  LEU104      0.0001
    109  CD2       59.2590   61.2490   62.5910 C.3   104  LEU104      0.0001
    110  N         63.8070   60.5760   60.8410 N.am  105  GLY105     -0.1955
    111  CA        65.1760   60.2840   60.4070 C.3   105  GLY105      0.1869
    112  C         65.0960   59.9100   58.9500 C.2   105  GLY105      0.2309
    113  O         64.2150   60.3880   58.2440 O.2   105  GLY105     -0.2863
    114  N         64.4760   58.0090   55.3960 N.3   107  ASN107     -0.1240
    115  CA        63.4820   57.1330   54.8070 C.3   107  ASN107      0.1653
    116  C         64.1180   55.7540   54.5900 C.2   107  ASN107      0.2266
    117  O         65.3640   55.6330   54.5970 O.2   107  ASN107     -0.2867
    118  CB        62.8290   57.7660   53.5700 C.3   107  ASN107      0.1155
    119  CG        63.7080   57.7860   52.3270 C.2   107  ASN107      0.2627
    120  OD1       64.1600   56.7780   51.8790 O.2   107  ASN107     -0.2716
    121  ND2       63.8180   58.9310   51.7060 N.am  107  ASN107     -0.0877
    122  N         66.5770   55.2760   51.6470 N.3   110  GLU110     -0.1245
    123  CA        67.8650   55.8850   51.8780 C.3   110  GLU110      0.1567
    124  C         68.7050   55.1180   52.8390 C.2   110  GLU110      0.2260
    125  O         69.9080   55.0210   52.6260 O.2   110  GLU110     -0.2867
    126  CB        67.7130   57.3180   52.3550 C.3   110  GLU110      0.0388
    127  CG        67.2960   58.2150   51.2450 C.3   110  GLU110      0.1160
    128  CD        68.4190   58.4840   50.2560 C.2   110  GLU110      0.3649
    129  OE1       69.6090   58.4590   50.6740 O.co2 110  GLU110     -0.2457
    130  OE2       68.0940   58.7350   49.0730 O.co2 110  GLU110     -0.2457
    131  N         60.7050   55.1340   49.8050 N.3   152  GLU152     -0.1231
    132  CA        61.0520   56.5370   50.0710 C.3   152  GLU152      0.1699
    133  C         59.9870   57.3250   50.8520 C.2   152  GLU152      0.2592
    134  O         60.2790   58.3680   51.4320 O.2   152  GLU152     -0.2718
    135  CB        61.3500   57.2370   48.7360 C.3   152  GLU152      0.0402
    136  CG        61.8150   58.6330   48.8500 C.3   152  GLU152      0.1161
    137  CD        62.2610   59.1140   47.5020 C.2   152  GLU152      0.3649
    138  OE1       61.3580   59.0800   46.5170 O.co2 152  GLU152     -0.2457
    139  OE2       63.3730   59.5110   47.3820 O.co2 152  GLU152     -0.2457
    140  N         58.7490   56.8460   50.8590 N.am  153  ASN153     -0.1974
    141  CA        57.6650   57.5570   51.5290 C.3   153  ASN153      0.1688
    142  C         57.4030   56.9360   52.8900 C.2   153  ASN153      0.2292
    143  O         56.3970   57.2180   53.5490 O.2   153  ASN153     -0.2864
    144  CB        56.4110   57.4450   50.6710 C.3   153  ASN153      0.1181
    145  CG        56.4520   58.3700   49.5280 C.2   153  ASN153      0.2629
    146  OD1       57.2930   59.2970   49.5120 O.2   153  ASN153     -0.2716
    147  ND2       55.5860   58.1330   48.5300 N.am  153  ASN153     -0.0877
    148  N         59.3230   56.5750   56.5190 N.3   155  LEU155     -0.1245
    149  CA        60.4300   57.1740   57.3090 C.3   155  LEU155      0.1561
    150  C         60.5900   56.4910   58.6210 C.2   155  LEU155      0.2260
    151  O         59.5900   56.2280   59.2930 O.2   155  LEU155     -0.2867
    152  CB        60.1420   58.6490   57.6070 C.3   155  LEU155      0.0270
    153  CG        60.0930   59.5420   56.3520 C.3   155  LEU155      0.0019
    154  CD1       58.8460   60.4390   56.3000 C.3   155  LEU155      0.0001
    155  CD2       61.3140   60.4130   56.2790 C.3   155  LEU155      0.0001
    156  N         54.4960   58.7880   55.0010 N.3   184  ALA184     -0.1231
    157  CA        54.4690   60.1030   54.4330 C.3   184  ALA184      0.1694
    158  C         53.8750   60.1690   53.0080 C.2   184  ALA184      0.2592
    159  O         53.6350   59.1690   52.3400 O.2   184  ALA184     -0.2718
    160  CB        55.8680   60.6370   54.4080 C.3   184  ALA184      0.0304
    161  N         53.7230   61.4020   52.5640 N.am  185  ASP185     -0.1974
    162  CA        53.3970   61.8300   51.2020 C.3   185  ASP185      0.1709
    163  C         52.0000   61.4680   50.7410 C.2   185  ASP185      0.2293
    164  O         51.7920   60.4490   50.1070 O.2   185  ASP185     -0.2864
    165  CB        54.4300   61.4080   50.1630 C.3   185  ASP185      0.1436
    166  CG        54.5040   62.3930   48.9730 C.2   185  ASP185      0.3671
    167  OD1       53.4240   62.8730   48.4910 O.co2 185  ASP185     -0.2456
    168  OD2       55.6560   62.7250   48.5580 O.co2 185  ASP185     -0.2456
@<TRIPOS>BOND
     1    25    24    2
     2    26    27    1
     3    24    23    1
     4    27    28    1
     5    27    30    1
     6    28    29    2
     7    23    22    1
     8    30    31    1
     9    22    15   am
    10    17    18    1
    11    17    14    1
    12    15    16    2
    13    15    14    1
    14    31    33   ar
    15    31    32   ar
    16   138   137   ar
    17    33    35   ar
    18    18    19    1
    19    20    19   ar
    20    14    13    1
    21    32    34   ar
    22   139   137   ar
    23   137   136    1
    24    19    21   ar
    25    35    36   ar
    26    13    11   am
    27    34    36   ar
    28   167   166   ar
    29   147   145   am
    30   168   166   ar
    31   135   136    1
    32   135   132    1
    33   166   165    1
    34   130   128   ar
    35    11    12    2
    36    11    10    1
    37    58    59    1
    38   146   145    2
    39   145   144    1
    40   131   132    1
    41    56    57    1
    42    56    55    1
    43   132   133    1
    44   164   163    2
    45   165   162    1
    46   128   129   ar
    47   128   127    1
    48    65    64   ar
    49    62    59    1
    50    62    63    1
    51    10     9    1
    52    59    60    1
    53    37    38    1
    54   144   141    1
    55   163   162    1
    56   133   140   am
    57   133   134    2
    58   140   141    1
    59    54    55    1
    60    54    53    1
    61    64    63    1
    62    64    66   ar
    63   162   161    1
    64   127   126    1
    65   141   142    1
    66     9     3   am
    67   122   123    1
    68   121   119   am
    69    51    52    2
    70    51    50    1
    71    43    41    1
    72   123   126    1
    73   123   124    1
    74   120   119    2
    75    60    61    2
    76    38    41    1
    77    38    39    1
    78   119   118    1
    79   159   158    2
    80    53    50    1
    81    40    39    2
    82    50    49    1
    83   161   158   am
    84    41    42    1
    85   125   124    2
    86     3     4    2
    87     3     2    1
    88   142   143    2
    89   158   157    1
    90   118   115    1
    91     1     2    1
    92     2     5    1
    93   160   157    1
    94   157   156    1
    95   116   117    2
    96   116   115    1
    97   115   114    1
    98     5     6    1
    99    83    84   ar
   100    83    81   ar
   101    84    82   ar
   102    81    79   ar
   103     6     7    1
   104     6     8    1
   105   155   153    1
   106   154   153    1
   107   153   152    1
   108    82    80   ar
   109   148   149    1
   110    73    71    1
   111   149   152    1
   112   149   150    1
   113    79    80   ar
   114    79    78    1
   115    46    47    2
   116    46    45    1
   117    48    45    1
   118    72    71    1
   119   113   112    2
   120    45    44    1
   121    71    68    1
   122   150   151    2
   123    78    75    1
   124   112   111    1
   125    74    75    1
   126    67    68    1
   127    68    69    1
   128    70    69    2
   129    75    76    1
   130   108   107    1
   131   100    99    1
   132   111   110    1
   133   105   104    2
   134   106   107    1
   135   106   103    1
   136   110   104   am
   137    76    77    2
   138    76    85   am
   139   104   103    1
   140   107   109    1
   141    88    87    2
   142   102   103    1
   143   102    96   am
   144    85    86    1
   145    99    98    1
   146    99   101    1
   147    95    96    1
   148    95    98    1
   149    95    94    1
   150    87    94   am
   151    87    86    1
   152    96    97    2
   153    86    89    1
   154    89    90    1
   155    90    91    1
   156    91    92   ar
   157    91    93   ar
