@<TRIPOS>MOLECULE
tmp/3rbfA00.pdb
 122 115 0 0 0
SMALL
GASTEIGER

@<TRIPOS>ATOM
      1  N        -57.9690  -36.7680  -22.1580 N.3    79  TYR79      -0.1241
      2  CA       -58.3260  -35.3920  -22.5240 C.3    79  TYR79       0.1605
      3  C        -58.1670  -35.1670  -24.0310 C.2    79  TYR79       0.2264
      4  O        -57.1550  -35.5680  -24.6390 O.2    79  TYR79      -0.2867
      5  CB       -57.5580  -34.3230  -21.7370 C.3    79  TYR79       0.0534
      6  CG       -57.5440  -32.9970  -22.4790 C.ar   79  TYR79      -0.0201
      7  CD1      -56.4270  -32.6000  -23.2180 C.ar   79  TYR79      -0.0009
      8  CD2      -58.6770  -32.1830  -22.5070 C.ar   79  TYR79      -0.0009
      9  CE1      -56.4300  -31.4180  -23.9220 C.ar   79  TYR79       0.0417
     10  CE2      -58.6910  -31.0010  -23.2120 C.ar   79  TYR79       0.0417
     11  CZ       -57.5670  -30.6180  -23.9130 C.ar   79  TYR79       0.1957
     12  OH       -57.5740  -29.4300  -24.6080 O.3    79  TYR79      -0.2866
     13  N        -57.7580  -32.5660  -27.0280 N.3    81  PRO81      -0.2116
     14  CA       -57.2310  -31.1920  -27.1990 C.3    81  PRO81       0.1372
     15  C        -58.2700  -30.2510  -27.8420 C.2    81  PRO81       0.2244
     16  O        -58.2430  -29.0380  -27.5950 O.2    81  PRO81      -0.2868
     17  CB       -56.0190  -31.3840  -28.1140 C.3    81  PRO81       0.0268
     18  CG       -56.3720  -32.6140  -28.9370 C.3    81  PRO81       0.0207
     19  CD       -57.1060  -33.5190  -27.9540 C.3    81  PRO81       0.0892
     20  N        -52.8020  -20.5520  -26.8940 N.3   142  SER142     -0.1202
     21  CA       -52.6560  -21.7590  -26.0710 C.3   142  SER142      0.2020
     22  C        -52.0310  -21.4040  -24.7270 C.2   142  SER142      0.2619
     23  O        -51.3400  -20.3950  -24.6130 O.2   142  SER142     -0.2717
     24  CB       -51.7640  -22.7730  -26.7770 C.3   142  SER142      0.2103
     25  OG       -50.4910  -22.2060  -27.0500 O.3   142  SER142     -0.2182
     26  N        -52.2730  -22.2310  -23.7120 N.am  143  ALA143     -0.1965
     27  CA       -51.5900  -22.0730  -22.4260 C.3   143  ALA143      0.1728
     28  C        -50.0580  -22.0340  -22.6070 C.2   143  ALA143      0.2616
     29  O        -49.3490  -21.2790  -21.9350 O.2   143  ALA143     -0.2715
     30  CB       -52.0080  -23.1850  -21.4520 C.3   143  ALA143      0.0334
     31  N        -49.5520  -22.8180  -23.5470 N.am  144  SER144     -0.1950
     32  CA       -48.1300  -22.8130  -23.8150 C.3   144  SER144      0.1924
     33  C        -47.6470  -21.4200  -24.1710 C.2   144  SER144      0.2314
     34  O        -46.6140  -20.9670  -23.6680 O.2   144  SER144     -0.2863
     35  CB       -47.7970  -23.7960  -24.9200 C.3   144  SER144      0.2116
     36  OG       -48.2750  -25.0750  -24.5550 O.3   144  SER144     -0.2180
     37  N        -46.5990  -28.7940  -16.1870 N.3   187  HIS187     -0.1241
     38  CA       -46.6710  -29.0820  -17.6120 C.3   187  HIS187      0.1621
     39  C        -45.4470  -28.6040  -18.4070 C.2   187  HIS187      0.2264
     40  O        -44.9390  -27.4880  -18.2040 O.2   187  HIS187     -0.2867
     41  CB       -47.9300  -28.4520  -18.2060 C.3   187  HIS187      0.0745
     42  CG       -48.2050  -28.8800  -19.6150 C.ar  187  HIS187      0.0817
     43  ND1      -48.9640  -29.9920  -19.9180 N.ar  187  HIS187     -0.2268
     44  CD2      -47.7930  -28.3690  -20.8010 C.ar  187  HIS187      0.1154
     45  CE1      -49.0270  -30.1340  -21.2310 C.ar  187  HIS187      0.1986
     46  NE2      -48.3180  -29.1660  -21.7890 N.ar  187  HIS187     -0.2212
     47  N        -45.0370  -27.1860  -20.9410 N.3   189  SER189     -0.1217
     48  CA       -45.1200  -25.8520  -21.5420 C.3   189  SER189      0.1889
     49  C        -44.1380  -24.9120  -20.8340 C.2   189  SER189      0.2288
     50  O        -43.4570  -24.0920  -21.4910 O.2   189  SER189     -0.2866
     51  CB       -46.5430  -25.3030  -21.4500 C.3   189  SER189      0.2089
     52  OG       -46.8160  -24.7850  -20.1450 O.3   189  SER189     -0.2183
     53  N        -49.2860  -24.5310  -10.4380 N.3   237  THR237     -0.1218
     54  CA       -50.2550  -25.2830  -11.2280 C.3   237  THR237      0.1862
     55  C        -51.4800  -25.6670  -10.4040 C.2   237  THR237      0.2287
     56  O        -51.3570  -26.3550   -9.3900 O.2   237  THR237     -0.2866
     57  CB       -49.6370  -26.5880  -11.7410 C.3   237  THR237      0.1770
     58  OG1      -48.3790  -26.3130  -12.3780 O.3   237  THR237     -0.2211
     59  CG2      -50.5990  -27.2980  -12.7150 C.3   237  THR237      0.0375
     60  N        -54.2260  -28.1660  -10.8660 N.3   239  GLY239     -0.1225
     61  CA       -54.7450  -29.2610  -11.6680 C.3   239  GLY239      0.1811
     62  C        -53.6710  -29.8290  -12.5680 C.2   239  GLY239      0.2280
     63  O        -53.6400  -29.5400  -13.7700 O.2   239  GLY239     -0.2866
     64  N        -51.2570  -32.1910  -14.9070 N.3   241  THR241     -0.1218
     65  CA       -51.5330  -33.0470  -16.0610 C.3   241  THR241      0.1862
     66  C        -51.5400  -34.5110  -15.6610 C.2   241  THR241      0.2287
     67  O        -52.2170  -35.3500  -16.2590 O.2   241  THR241     -0.2866
     68  CB       -50.4450  -32.7900  -17.1230 C.3   241  THR241      0.1770
     69  OG1      -50.5930  -31.4460  -17.5860 O.3   241  THR241     -0.2211
     70  CG2      -50.5300  -33.7530  -18.3190 C.3   241  THR241      0.0375
     71  N        -51.0430  -21.3410  -13.4690 N.3   266  ASP266     -0.1239
     72  CA       -51.5340  -22.0940  -14.6030 C.3   266  ASP266      0.1674
     73  C        -52.5710  -23.1120  -14.1400 C.2   266  ASP266      0.2266
     74  O        -52.2460  -24.0410  -13.4040 O.2   266  ASP266     -0.2867
     75  CB       -50.3680  -22.7890  -15.3130 C.3   266  ASP266      0.1410
     76  CG       -50.8240  -23.7270  -16.4030 C.2   266  ASP266      0.3668
     77  OD1      -52.0490  -23.8970  -16.5590 O.co2 266  ASP266     -0.2456
     78  OD2      -49.9690  -24.2920  -17.1220 O.co2 266  ASP266     -0.2456
     79  N        -54.6310  -24.9220  -16.5520 N.3   268  ALA268     -0.1231
     80  CA       -55.1960  -25.1450  -17.8880 C.3   268  ALA268      0.1694
     81  C        -56.4460  -25.9970  -17.9230 C.2   268  ALA268      0.2592
     82  O        -57.4450  -25.6020  -18.4960 O.2   268  ALA268     -0.2718
     83  CB       -54.1670  -25.7010  -18.8420 C.3   268  ALA268      0.0304
     84  N        -56.3760  -27.1800  -17.3250 N.am  269  TYR269     -0.1976
     85  CA       -57.5110  -28.1080  -17.2780 C.3   269  TYR269      0.1639
     86  C        -58.6270  -27.5610  -16.3760 C.2   269  TYR269      0.2290
     87  O        -59.7670  -27.3090  -16.8280 O.2   269  TYR269     -0.2864
     88  CB       -57.0350  -29.4750  -16.7450 C.3   269  TYR269      0.0560
     89  CG       -58.1500  -30.4450  -16.3520 C.ar  269  TYR269     -0.0198
     90  CD1      -59.2190  -30.6950  -17.2160 C.ar  269  TYR269     -0.0009
     91  CD2      -58.1070  -31.1480  -15.1430 C.ar  269  TYR269     -0.0009
     92  CE1      -60.2450  -31.5880  -16.8690 C.ar  269  TYR269      0.0417
     93  CE2      -59.1200  -32.0480  -14.7850 C.ar  269  TYR269      0.0417
     94  CZ       -60.1890  -32.2660  -15.6570 C.ar  269  TYR269      0.1957
     95  OH       -61.2110  -33.1610  -15.3620 O.3   269  TYR269     -0.2866
     96  N        -57.2860  -22.9750  -19.7670 N.3   295  ASN295     -0.1240
     97  CA       -57.9170  -23.1890  -21.0640 C.3   295  ASN295      0.1653
     98  C        -59.3790  -23.5580  -20.9700 C.2   295  ASN295      0.2266
     99  O        -59.7280  -24.6540  -20.4960 O.2   295  ASN295     -0.2867
    100  CB       -57.1930  -24.2510  -21.8790 C.3   295  ASN295      0.1155
    101  CG       -55.7290  -23.9500  -22.0440 C.2   295  ASN295      0.2627
    102  OD1      -55.2680  -22.8240  -21.8220 O.2   295  ASN295     -0.2716
    103  ND2      -54.9780  -24.9640  -22.4370 N.am  295  ASN295     -0.0877
    104  N        -61.2640  -23.9780  -23.6250 N.3   297  HIS297     -0.1226
    105  CA       -61.6690  -24.8280  -24.7370 C.3   297  HIS297      0.1752
    106  C        -61.6510  -26.2590  -24.3020 C.2   297  HIS297      0.2595
    107  O        -62.2680  -27.1090  -24.9380 O.2   297  HIS297     -0.2718
    108  CB       -60.7810  -24.6650  -25.9720 C.3   297  HIS297      0.0759
    109  CG       -59.3260  -24.9150  -25.7230 C.ar  297  HIS297      0.0818
    110  ND1      -58.3440  -24.0320  -26.1240 N.ar  297  HIS297     -0.2268
    111  CD2      -58.6790  -25.9500  -25.1400 C.ar  297  HIS297      0.1154
    112  CE1      -57.1570  -24.5010  -25.7830 C.ar  297  HIS297      0.1986
    113  NE2      -57.3320  -25.6650  -25.1840 N.ar  297  HIS297     -0.2212
    114  N        -60.9150  -26.5070  -23.2250 N.am  298  LYS298     -0.1980
    115  CA       -60.7950  -27.8300  -22.6160 C.3   298  LYS298      0.1596
    116  C        -62.1100  -28.3010  -21.9810 C.2   298  LYS298      0.2287
    117  O        -62.6000  -29.4010  -22.2500 O.2   298  LYS298     -0.2864
    118  CB       -59.7190  -27.8050  -21.5330 C.3   298  LYS298      0.0298
    119  CG       -58.2920  -27.7460  -22.0240 C.3   298  LYS298      0.0038
    120  CD       -57.3950  -28.4250  -21.0020 C.3   298  LYS298      0.0206
    121  CE       -56.0380  -28.7140  -21.5940 C.3   298  LYS298      0.1093
    122  NZ       -55.3810  -29.8670  -20.9210 N.3   298  LYS298     -0.1314
@<TRIPOS>BOND
     1    18    17    1
     2    18    19    1
     3    17    14    1
     4    19    13    1
     5    15    16    2
     6    15    14    1
     7    14    13    1
     8    25    24    1
     9    20    21    1
    10    24    21    1
    11   110   112   ar
    12   110   109   ar
    13    21    22    1
    14   108   109    1
    15   108   105    1
    16   112   113   ar
    17   109   111   ar
    18   113   111   ar
    19   107   106    2
    20    35    36    1
    21    35    32    1
    22   105   106    1
    23   105   104    1
    24    22    23    2
    25    22    26   am
    26     4     3    2
    27    12    11    1
    28   106   114   am
    29    33    32    1
    30    33    34    2
    31     3     2    1
    32     9    11   ar
    33     9     7   ar
    34    11    10   ar
    35    32    31    1
    36    26    27    1
    37    31    28   am
    38   114   115    1
    39     7     6   ar
    40    10     8   ar
    41   115   116    1
    42   115   118    1
    43    28    27    1
    44    28    29    2
    45     2     1    1
    46     2     5    1
    47     8     6   ar
    48     6     5    1
    49   103   101   am
    50    27    30    1
    51   117   116    2
    52   101   100    1
    53   101   102    2
    54   119   118    1
    55   119   120    1
    56   100    97    1
    57    46    45   ar
    58    46    44   ar
    59   121   120    1
    60   121   122    1
    61    48    51    1
    62    48    47    1
    63    48    49    1
    64    50    49    2
    65    51    52    1
    66    45    43   ar
    67    97    98    1
    68    97    96    1
    69    98    99    2
    70    44    42   ar
    71    43    42   ar
    72    42    41    1
    73    83    80    1
    74    82    81    2
    75    39    40    2
    76    39    38    1
    77    70    68    1
    78    41    38    1
    79    81    80    1
    80    81    84   am
    81    80    79    1
    82    38    37    1
    83    69    68    1
    84    84    85    1
    85    85    88    1
    86    85    86    1
    87    90    92   ar
    88    90    89   ar
    89    68    65    1
    90    78    76   ar
    91    92    94   ar
    92    87    86    2
    93    88    89    1
    94    77    76   ar
    95    76    75    1
    96    89    91   ar
    97    67    66    2
    98    65    66    1
    99    65    64    1
   100    94    95    1
   101    94    93   ar
   102    75    72    1
   103    91    93   ar
   104    72    73    1
   105    72    71    1
   106    73    74    2
   107    63    62    2
   108    59    57    1
   109    62    61    1
   110    58    57    1
   111    57    54    1
   112    61    60    1
   113    54    53    1
   114    54    55    1
   115    55    56    2
