@<TRIPOS>MOLECULE
tmp/3rbhC03.pdb
 93 89 0 0 0
SMALL
GASTEIGER

@<TRIPOS>ATOM
      1  N        -21.4190  -32.0160  -35.1090 N.3    36  PRO36      -0.2116
      2  CA       -20.9240  -31.6910  -36.4440 C.3    36  PRO36       0.1372
      3  C        -20.7410  -30.1860  -36.5370 C.2    36  PRO36       0.2244
      4  O        -21.5480  -29.4350  -35.9740 O.2    36  PRO36      -0.2868
      5  CB       -22.0720  -32.1300  -37.3560 C.3    36  PRO36       0.0268
      6  CG       -23.2870  -31.9890  -36.5170 C.3    36  PRO36       0.0207
      7  CD       -22.8450  -32.3840  -35.1220 C.3    36  PRO36       0.0892
      8  N        -21.0280  -22.8530  -37.8610 N.3    49  PHE49      -0.1241
      9  CA       -22.1630  -23.5140  -37.2530 C.3    49  PHE49       0.1605
     10  C        -21.6660  -24.7230  -36.4780 C.2    49  PHE49       0.2264
     11  O        -20.7480  -25.4100  -36.9110 O.2    49  PHE49      -0.2867
     12  CB       -23.1780  -23.9580  -38.3140 C.3    49  PHE49       0.0534
     13  CG       -24.3930  -24.6080  -37.7300 C.ar   49  PHE49      -0.0203
     14  CD1      -25.4970  -23.8520  -37.3840 C.ar   49  PHE49      -0.0042
     15  CD2      -24.4210  -25.9740  -37.5000 C.ar   49  PHE49      -0.0042
     16  CE1      -26.6260  -24.4520  -36.8400 C.ar   49  PHE49      -0.0003
     17  CE2      -25.5440  -26.5840  -36.9500 C.ar   49  PHE49      -0.0003
     18  CZ       -26.6470  -25.8180  -36.6190 C.ar   49  PHE49      -0.0000
     19  N        -23.7590  -27.9570  -34.5140 N.3    50  GLY50      -0.1210
     20  CA       -24.9650  -28.5930  -34.0230 C.3    50  GLY50       0.1956
     21  C        -24.6180  -29.5840  -32.9450 C.2    50  GLY50       0.2611
     22  O        -23.4560  -29.7150  -32.5640 O.2    50  GLY50      -0.2717
     23  N        -25.6260  -30.2850  -32.4480 N.am   51  GLN51      -0.1979
     24  CA       -25.4120  -31.2100  -31.3460 C.3    51  GLN51       0.1601
     25  C        -26.5150  -32.2670  -31.3020 C.2    51  GLN51       0.2287
     26  O        -27.7060  -31.9380  -31.3950 O.2    51  GLN51      -0.2864
     27  CB       -25.3490  -30.4340  -30.0220 C.3    51  GLN51       0.0394
     28  CG       -25.3150  -31.3160  -28.7920 C.3    51  GLN51       0.0908
     29  CD       -25.0200  -30.5430  -27.5170 C.2    51  GLN51       0.2608
     30  OE1      -25.3930  -29.3710  -27.3670 O.2    51  GLN51      -0.2717
     31  NE2      -24.3330  -31.1940  -26.5940 N.am   51  GLN51      -0.0878
     32  N        -31.7220  -32.7260  -29.7620 N.3    70  LEU70      -0.1231
     33  CA       -30.8970  -32.0440  -30.7420 C.3    70  LEU70       0.1693
     34  C        -30.7820  -30.5930  -30.3240 C.2    70  LEU70       0.2592
     35  O        -31.6690  -30.0660  -29.6580 O.2    70  LEU70      -0.2718
     36  CB       -31.5390  -32.1230  -32.1210 C.3    70  LEU70       0.0284
     37  CG       -31.8280  -33.5180  -32.6430 C.3    70  LEU70       0.0019
     38  CD1      -32.5400  -33.4090  -33.9950 C.3    70  LEU70       0.0001
     39  CD2      -30.5350  -34.2950  -32.7630 C.3    70  LEU70       0.0001
     40  N        -29.6950  -29.9430  -30.7190 N.am   71  ALA71      -0.1966
     41  CA       -29.4870  -28.5470  -30.3660 C.3    71  ALA71       0.1728
     42  C        -28.6190  -27.8690  -31.3980 C.2    71  ALA71       0.2616
     43  O        -27.8740  -28.5400  -32.1450 O.2    71  ALA71      -0.2715
     44  CB       -28.8370  -28.3940  -28.9140 C.3    71  ALA71       0.0334
     45  N        -28.7230  -26.5370  -31.4140 N.am   72  ALA72      -0.1977
     46  CA       -27.7880  -25.6680  -32.1150 C.3    72  ALA72       0.1597
     47  C        -26.9570  -24.9600  -31.0690 C.2    72  ALA72       0.2287
     48  O        -27.4590  -24.0920  -30.3610 O.2    72  ALA72      -0.2864
     49  CB       -28.5480  -24.6120  -32.9820 C.3    72  ALA72       0.0319
     50  N        -33.6290  -18.3170  -26.4980 N.3   132  SER132     -0.1217
     51  CA       -34.0000  -19.7270  -26.5450 C.3   132  SER132      0.1889
     52  C        -32.8250  -20.6130  -26.1630 C.2   132  SER132      0.2288
     53  O        -31.6800  -20.1660  -26.1520 O.2   132  SER132     -0.2866
     54  CB       -34.4890  -20.1060  -27.9460 C.3   132  SER132      0.2089
     55  OG       -34.7360  -21.5010  -28.0230 O.3   132  SER132     -0.2183
     56  N        -32.4820  -23.3940  -27.9260 N.3   134  TYR134     -0.1227
     57  CA       -32.2800  -24.0560  -29.2210 C.3   134  TYR134      0.1736
     58  C        -32.1160  -25.5670  -29.0790 C.2   134  TYR134      0.2595
     59  O        -31.2940  -26.1940  -29.7700 O.2   134  TYR134     -0.2718
     60  CB       -31.1320  -23.4110  -30.0150 C.3   134  TYR134      0.0548
     61  CG       -31.2770  -21.9100  -30.1130 C.ar  134  TYR134     -0.0200
     62  CD1      -32.0240  -21.3250  -31.1310 C.ar  134  TYR134     -0.0009
     63  CD2      -30.7080  -21.0800  -29.1560 C.ar  134  TYR134     -0.0009
     64  CE1      -32.1730  -19.9630  -31.2100 C.ar  134  TYR134      0.0417
     65  CE2      -30.8510  -19.7280  -29.2220 C.ar  134  TYR134      0.0417
     66  CZ       -31.5800  -19.1660  -30.2480 C.ar  134  TYR134      0.1957
     67  OH       -31.7240  -17.7970  -30.2980 O.3   134  TYR134     -0.2866
     68  N        -32.9270  -26.1440  -28.1940 N.am  135  ARG135     -0.1966
     69  CA       -32.9020  -27.5840  -27.9290 C.3   135  ARG135      0.1729
     70  C        -34.2770  -28.1850  -28.1760 C.2   135  ARG135      0.2616
     71  O        -35.2960  -27.5610  -27.8890 O.2   135  ARG135     -0.2715
     72  CB       -32.4830  -27.8610  -26.4900 C.3   135  ARG135      0.0348
     73  CG       -30.9820  -27.7360  -26.2470 C.3   135  ARG135      0.0492
     74  CD       -30.6100  -27.7530  -24.7570 C.3   135  ARG135      0.2205
     75  NE       -31.3010  -28.7980  -24.0050 N.pl3 135  ARG135     -0.0865
     76  CZ       -30.7340  -29.5570  -23.0710 C.cat 135  ARG135      0.5346
     77  NH1      -29.4460  -29.4210  -22.7890 N.pl3 135  ARG135      0.1354
     78  NH2      -31.4480  -30.4760  -22.4340 N.pl3 135  ARG135      0.1354
     79  N        -34.3090  -29.4000  -28.7040 N.am  136  THR136     -0.1951
     80  CA       -35.5840  -30.0610  -28.9840 C.3   136  THR136      0.1897
     81  C        -36.3560  -30.4550  -27.7210 C.2   136  THR136      0.2313
     82  O        -37.5520  -30.7040  -27.7830 O.2   136  THR136     -0.2863
     83  CB       -35.4120  -31.2920  -29.9050 C.3   136  THR136      0.1794
     84  OG1      -34.4610  -32.2020  -29.3380 O.3   136  THR136     -0.2208
     85  CG2      -34.9270  -30.8510  -31.2910 C.3   136  THR136      0.0378
     86  N        -36.3560  -28.5550  -24.6670 N.3   138  LEU138     -0.1245
     87  CA       -36.7550  -27.4260  -23.8310 C.3   138  LEU138      0.1561
     88  C        -37.6320  -26.4560  -24.6160 C.2   138  LEU138      0.2260
     89  O        -37.3320  -26.1340  -25.7650 O.2   138  LEU138     -0.2867
     90  CB       -35.5290  -26.7090  -23.2560 C.3   138  LEU138      0.0270
     91  CG       -34.6060  -27.5760  -22.3940 C.3   138  LEU138      0.0019
     92  CD1      -33.4730  -26.7450  -21.7960 C.3   138  LEU138      0.0001
     93  CD2      -35.3870  -28.2600  -21.2910 C.3   138  LEU138      0.0001
@<TRIPOS>BOND
     1    12    13    1
     2    12     9    1
     3     8     9    1
     4    13    15   ar
     5    13    14   ar
     6    15    17   ar
     7    14    16   ar
     8     5     6    1
     9     5     2    1
    10     9    10    1
    11    17    18   ar
    12    11    10    2
    13    16    18   ar
    14     3     2    1
    15     3     4    2
    16     6     7    1
    17     2     1    1
    18     7     1    1
    19    19    20    1
    20    20    21    1
    21    38    37    1
    22    49    46    1
    23    21    22    2
    24    21    23   am
    25    39    37    1
    26    37    36    1
    27    23    24    1
    28    43    42    2
    29    36    33    1
    30    46    45    1
    31    46    47    1
    32    45    42   am
    33    42    41    1
    34    26    25    2
    35    24    25    1
    36    24    27    1
    37    85    83    1
    38    64    62   ar
    39    64    66   ar
    40    62    61   ar
    41    47    48    2
    42    33    34    1
    43    33    32    1
    44    40    41    1
    45    40    34   am
    46    41    44    1
    47    34    35    2
    48    67    66    1
    49    66    65   ar
    50    61    60    1
    51    61    63   ar
    52    27    28    1
    53    60    57    1
    54    83    84    1
    55    83    80    1
    56    59    58    2
    57    65    63   ar
    58    57    58    1
    59    57    56    1
    60    58    68   am
    61    80    79    1
    62    80    81    1
    63    28    29    1
    64    79    70   am
    65    68    69    1
    66    70    69    1
    67    70    71    2
    68    55    54    1
    69    54    51    1
    70    69    72    1
    71    82    81    2
    72    29    30    2
    73    29    31   am
    74    51    50    1
    75    51    52    1
    76    72    73    1
    77    73    74    1
    78    52    53    2
    79    89    88    2
    80    74    75    1
    81    86    87    1
    82    88    87    1
    83    75    76    2
    84    87    90    1
    85    90    91    1
    86    76    77    1
    87    76    78    1
    88    91    92    1
    89    91    93    1
