@<TRIPOS>MOLECULE
tmp/3rbhD05.pdb
 137 140 0 0 0
SMALL
GASTEIGER

@<TRIPOS>ATOM
      1  N        -19.0620   35.0080  -52.1960 N.3     2  ASN2       -0.1225
      2  CA       -19.4140   34.3130  -50.9640 C.3     2  ASN2        0.1785
      3  C        -20.4990   35.0120  -50.1470 C.2     2  ASN2        0.2597
      4  O        -21.2860   34.3640  -49.4630 O.2     2  ASN2       -0.2718
      5  CB       -18.1640   34.1040  -50.0970 C.3     2  ASN2        0.1169
      6  CG       -17.1310   33.2010  -50.7660 C.2     2  ASN2        0.2627
      7  OD1      -16.0410   33.6510  -51.1210 O.2     2  ASN2       -0.2716
      8  ND2      -17.4710   31.9170  -50.9330 N.am    2  ASN2       -0.0877
      9  N        -20.5340   36.3370  -50.2200 N.am    3  PHE3       -0.1976
     10  CA       -21.4250   37.1390  -49.3840 C.3     3  PHE3        0.1639
     11  C        -22.1960   38.1470  -50.2130 C.2     3  PHE3        0.2290
     12  O        -21.7100   38.6590  -51.2220 O.2     3  PHE3       -0.2864
     13  CB       -20.6250   37.9040  -48.3390 C.3     3  PHE3        0.0560
     14  CG       -19.8440   37.0260  -47.4140 C.ar    3  PHE3       -0.0200
     15  CD1      -20.3830   36.6250  -46.2030 C.ar    3  PHE3       -0.0042
     16  CD2      -18.5650   36.6170  -47.7440 C.ar    3  PHE3       -0.0042
     17  CE1      -19.6600   35.8150  -45.3360 C.ar    3  PHE3       -0.0003
     18  CE2      -17.8340   35.8050  -46.8850 C.ar    3  PHE3       -0.0003
     19  CZ       -18.3890   35.4000  -45.6820 C.ar    3  PHE3       -0.0000
     20  N        -24.6250   34.3820  -46.9240 N.3    38  ALA38      -0.1231
     21  CA       -23.2620   33.8880  -47.0440 C.3    38  ALA38       0.1694
     22  C        -23.2460   32.5030  -47.6870 C.2    38  ALA38       0.2592
     23  O        -23.9750   31.6010  -47.2630 O.2    38  ALA38      -0.2718
     24  CB       -22.5970   33.8480  -45.6670 C.3    38  ALA38       0.0304
     25  N        -22.4120   32.3430  -48.7130 N.am   39  PHE39      -0.1962
     26  CA       -22.2550   31.0660  -49.4040 C.3    39  PHE39       0.1771
     27  C        -20.7950   30.6210  -49.4670 C.2    39  PHE39       0.2620
     28  O        -19.9000   31.4380  -49.6460 O.2    39  PHE39      -0.2715
     29  CB       -22.8160   31.1550  -50.8260 C.3    39  PHE39       0.0574
     30  CG       -22.6140   29.9050  -51.6350 C.ar   39  PHE39      -0.0200
     31  CD1      -23.3720   28.7650  -51.3780 C.ar   39  PHE39      -0.0042
     32  CD2      -21.6690   29.8640  -52.6520 C.ar   39  PHE39      -0.0042
     33  CE1      -23.1950   27.6080  -52.1210 C.ar   39  PHE39      -0.0003
     34  CE2      -21.4900   28.7050  -53.4060 C.ar   39  PHE39      -0.0003
     35  CZ       -22.2560   27.5800  -53.1390 C.ar   39  PHE39      -0.0000
     36  N        -20.5600   29.3220  -49.3360 N.am   40  GLY40      -0.1954
     37  CA       -19.2150   28.7970  -49.4510 C.3    40  GLY40       0.1869
     38  C        -19.2070   27.4370  -50.1160 C.2    40  GLY40       0.2309
     39  O        -20.0750   26.6160  -49.8430 O.2    40  GLY40      -0.2863
     40  N        -16.4500   24.1520  -51.1000 N.3    42  TRP42      -0.1241
     41  CA       -15.1200   23.5540  -50.9630 C.3    42  TRP42       0.1605
     42  C        -15.1550   22.0700  -51.2990 C.2    42  TRP42       0.2264
     43  O        -15.5160   21.2350  -50.4600 O.2    42  TRP42      -0.2867
     44  CB       -14.5910   23.7100  -49.5350 C.3    42  TRP42       0.0550
     45  CG       -14.9540   24.9900  -48.8710 C.ar   42  TRP42       0.0003
     46  CD1      -14.1410   26.0750  -48.6730 C.ar   42  TRP42       0.0946
     47  CD2      -16.2210   25.3260  -48.2930 C.ar   42  TRP42       0.0152
     48  NE1      -14.8290   27.0680  -48.0150 N.ar   42  TRP42      -0.2442
     49  CE2      -16.1060   26.6340  -47.7670 C.ar   42  TRP42       0.0810
     50  CE3      -17.4380   24.6530  -48.1650 C.ar   42  TRP42       0.0012
     51  CZ2      -17.1660   27.2790  -47.1260 C.ar   42  TRP42       0.0191
     52  CZ3      -18.4940   25.3000  -47.5280 C.ar   42  TRP42       0.0001
     53  CH2      -18.3480   26.5960  -47.0160 C.ar   42  TRP42       0.0015
     54  N        -22.2400   25.3430  -47.9920 N.3    47  ALA47      -0.1231
     55  CA       -23.1220   25.7730  -46.9080 C.3    47  ALA47       0.1694
     56  C        -23.7140   27.1420  -47.2250 C.2    47  ALA47       0.2592
     57  O        -23.2000   27.8680  -48.0740 O.2    47  ALA47      -0.2718
     58  CB       -22.3810   25.8100  -45.5920 C.3    47  ALA47       0.0304
     59  N        -24.7840   27.5060  -46.5300 N.am   48  TYR48      -0.1962
     60  CA       -25.5290   28.6920  -46.9160 C.3    48  TYR48       0.1771
     61  C        -26.3980   29.2190  -45.7980 C.2    48  TYR48       0.2619
     62  O        -27.0900   28.4750  -45.1090 O.2    48  TYR48      -0.2715
     63  CB       -26.4000   28.3770  -48.1500 C.3    48  TYR48       0.0574
     64  CG       -27.0940   29.5820  -48.7360 C.ar   48  TYR48      -0.0198
     65  CD1      -26.3750   30.5500  -49.4310 C.ar   48  TYR48      -0.0009
     66  CD2      -28.4710   29.7550  -48.6020 C.ar   48  TYR48      -0.0009
     67  CE1      -27.0030   31.6580  -49.9740 C.ar   48  TYR48       0.0417
     68  CE2      -29.1120   30.8580  -49.1530 C.ar   48  TYR48       0.0417
     69  CZ       -28.3740   31.8050  -49.8350 C.ar   48  TYR48       0.1957
     70  OH       -28.9950   32.9040  -50.3830 O.3    48  TYR48      -0.2866
     71  N        -26.3520   30.5260  -45.6140 N.am   49  PHE49      -0.1974
     72  CA       -27.2440   31.1720  -44.6770 C.3    49  PHE49       0.1639
     73  C        -27.8540   32.3700  -45.3680 C.2    49  PHE49       0.2290
     74  O        -27.1770   33.0640  -46.1220 O.2    49  PHE49      -0.2864
     75  CB       -26.5030   31.6300  -43.4040 C.3    49  PHE49       0.0560
     76  CG       -27.4110   32.2590  -42.3950 C.ar   49  PHE49      -0.0200
     77  CD1      -28.0610   31.4830  -41.4500 C.ar   49  PHE49      -0.0042
     78  CD2      -27.6530   33.6190  -42.4230 C.ar   49  PHE49      -0.0042
     79  CE1      -28.9210   32.0660  -40.5380 C.ar   49  PHE49      -0.0003
     80  CE2      -28.5070   34.2090  -41.5120 C.ar   49  PHE49      -0.0003
     81  CZ       -29.1460   33.4360  -40.5740 C.ar   49  PHE49      -0.0000
     82  N        -30.9720   28.1790  -44.0590 N.3    74  PHE74      -0.1227
     83  CA       -29.7330   27.7120  -43.4290 C.3    74  PHE74       0.1736
     84  C        -29.5940   26.2130  -43.6780 C.2    74  PHE74       0.2595
     85  O        -30.3770   25.4050  -43.1550 O.2    74  PHE74      -0.2718
     86  CB       -29.6950   28.0110  -41.9270 C.3    74  PHE74       0.0547
     87  CG       -31.0040   27.7820  -41.2120 C.ar   74  PHE74      -0.0202
     88  CD1      -31.2560   26.5900  -40.5640 C.ar   74  PHE74      -0.0042
     89  CD2      -31.9780   28.7740  -41.1730 C.ar   74  PHE74      -0.0042
     90  CE1      -32.4580   26.3810  -39.8880 C.ar   74  PHE74      -0.0003
     91  CE2      -33.1780   28.5630  -40.4990 C.ar   74  PHE74      -0.0003
     92  CZ       -33.4120   27.3740  -39.8590 C.ar   74  PHE74      -0.0000
     93  N        -28.6170   25.8390  -44.5000 N.am   75  TRP75      -0.1962
     94  CA       -28.3830   24.4320  -44.8020 C.3    75  TRP75       0.1771
     95  C        -26.9280   24.0880  -45.1140 C.2    75  TRP75       0.2619
     96  O        -26.1100   24.9620  -45.3820 O.2    75  TRP75      -0.2715
     97  CB       -29.2670   23.9780  -45.9850 C.3    75  TRP75       0.0590
     98  CG       -29.3090   24.9160  -47.1720 C.ar   75  TRP75       0.0006
     99  CD1      -30.2870   25.8240  -47.4600 C.ar   75  TRP75       0.0946
    100  CD2      -28.3440   25.0140  -48.2430 C.ar   75  TRP75       0.0152
    101  NE1      -29.9780   26.5000  -48.6290 N.ar   75  TRP75      -0.2442
    102  CE2      -28.8020   26.0120  -49.1340 C.ar   75  TRP75       0.0810
    103  CE3      -27.1370   24.3610  -48.5250 C.ar   75  TRP75       0.0012
    104  CZ2      -28.0960   26.3750  -50.2890 C.ar   75  TRP75       0.0191
    105  CZ3      -26.4330   24.7230  -49.6690 C.ar   75  TRP75       0.0001
    106  CH2      -26.9210   25.7180  -50.5430 C.ar   75  TRP75       0.0015
    107  N        -26.6250   22.7970  -45.0960 N.am   76  VAL76      -0.1977
    108  CA       -25.3720   22.2790  -45.6290 C.3    76  VAL76       0.1596
    109  C        -25.7460   21.3320  -46.7510 C.2    76  VAL76       0.2287
    110  O        -26.8110   20.7040  -46.7110 O.2    76  VAL76      -0.2864
    111  CB       -24.5910   21.4630  -44.5820 C.3    76  VAL76       0.0276
    112  CG1      -24.0660   22.3580  -43.4750 C.3    76  VAL76       0.0022
    113  CG2      -25.4450   20.3170  -44.0380 C.3    76  VAL76       0.0022
    114  N        -29.5000   19.6610  -46.5140 N.3    91  PHE91      -0.1227
    115  CA       -30.0270   19.4670  -45.1650 C.3    91  PHE91       0.1736
    116  C        -30.1870   20.7740  -44.3950 C.2    91  PHE91       0.2596
    117  O        -29.2490   21.5720  -44.3130 O.2    91  PHE91      -0.2718
    118  CB       -29.1540   18.4720  -44.3830 C.3    91  PHE91       0.0547
    119  CG       -29.4810   18.4020  -42.9110 C.ar   91  PHE91      -0.0202
    120  CD1      -30.5180   17.6060  -42.4570 C.ar   91  PHE91      -0.0042
    121  CD2      -28.7600   19.1400  -41.9910 C.ar   91  PHE91      -0.0042
    122  CE1      -30.8270   17.5430  -41.1130 C.ar   91  PHE91      -0.0003
    123  CE2      -29.0620   19.0820  -40.6410 C.ar   91  PHE91      -0.0003
    124  CZ       -30.0950   18.2820  -40.2010 C.ar   91  PHE91      -0.0000
    125  N        -31.3740   20.9790  -43.8210 N.am   92  GLY92      -0.1957
    126  CA       -31.6800   22.2090  -43.1080 C.3    92  GLY92       0.1869
    127  C        -32.8140   23.0090  -43.7390 C.2    92  GLY92       0.2309
    128  O        -33.5220   22.5120  -44.5910 O.2    92  GLY92      -0.2863
    129  N        -37.6810   23.4050  -43.2450 N.3   109  GLU109     -0.1245
    130  CA       -36.6350   22.4960  -42.7450 C.3   109  GLU109      0.1567
    131  C        -36.7750   21.1540  -43.4440 C.2   109  GLU109      0.2260
    132  O        -37.8360   20.5200  -43.3930 O.2   109  GLU109     -0.2867
    133  CB       -36.7500   22.2770  -41.2360 C.3   109  GLU109      0.0388
    134  CG       -36.7940   23.5620  -40.4020 C.3   109  GLU109      0.1160
    135  CD       -38.1900   24.0830  -40.2260 C.2   109  GLU109      0.3649
    136  OE1      -38.9480   24.1530  -41.2210 O.co2 109  GLU109     -0.2457
    137  OE2      -38.5490   24.4070  -39.0880 O.co2 109  GLU109     -0.2457
@<TRIPOS>BOND
     1    34    35   ar
     2    34    32   ar
     3    35    33   ar
     4    32    30   ar
     5     1     2    1
     6    33    31   ar
     7    30    31   ar
     8    30    29    1
     9    42    41    1
    10    42    43    2
    11    12    11    2
    12     7     6    2
    13    40    41    1
    14     2     3    1
    15     2     5    1
    16    41    44    1
    17     8     6   am
    18    29    26    1
    19     6     5    1
    20   106   104   ar
    21   106   105   ar
    22    70    69    1
    23   104   102   ar
    24     9     3   am
    25     9    10    1
    26    11    10    1
    27     3     4    2
    28    38    39    2
    29    38    37    1
    30    67    69   ar
    31    67    65   ar
    32    69    68   ar
    33   105   103   ar
    34    28    27    2
    35    44    45    1
    36    27    26    1
    37    27    36   am
    38    37    36    1
    39    65    64   ar
    40    26    25    1
    41    10    13    1
    42    68    66   ar
    43   102   101   ar
    44   102   100   ar
    45    45    46   ar
    46    45    47   ar
    47    64    66   ar
    48    64    63    1
    49    25    22   am
    50    46    48   ar
    51   101    99   ar
    52   103   100   ar
    53    13    14    1
    54    47    50   ar
    55    47    49   ar
    56   100    98   ar
    57    50    52   ar
    58    63    60    1
    59    57    56    2
    60    48    49   ar
    61    54    55    1
    62    49    51   ar
    63    16    14   ar
    64    16    18   ar
    65    22    23    2
    66    22    21    1
    67    52    53   ar
    68    99    98   ar
    69    14    15   ar
    70    56    55    1
    71    56    59   am
    72    98    97    1
    73    51    53   ar
    74    21    20    1
    75    21    24    1
    76    60    59    1
    77    60    61    1
    78    55    58    1
    79    18    19   ar
    80   109   110    2
    81   109   108    1
    82   114   115    1
    83    15    17   ar
    84    74    73    2
    85    97    94    1
    86    61    71   am
    87    61    62    2
    88    19    17   ar
    89   108   107    1
    90   108   111    1
    91    71    72    1
    92    96    95    2
    93    73    72    1
    94   115   116    1
    95   115   118    1
    96    95   107   am
    97    95    94    1
    98    94    93    1
    99    72    75    1
   100   128   127    2
   101   111   113    1
   102   111   112    1
   103    93    84   am
   104   116   117    2
   105   116   125   am
   106   118   119    1
   107    82    83    1
   108   125   126    1
   109   127   126    1
   110    84    83    1
   111    84    85    2
   112   131   132    2
   113   131   130    1
   114    83    86    1
   115    75    76    1
   116   129   130    1
   117   119   120   ar
   118   119   121   ar
   119   130   133    1
   120   120   122   ar
   121    78    76   ar
   122    78    80   ar
   123    76    77   ar
   124   121   123   ar
   125    86    87    1
   126    80    81   ar
   127    77    79   ar
   128   133   134    1
   129   136   135   ar
   130    87    89   ar
   131    87    88   ar
   132    89    91   ar
   133   122   124   ar
   134   123   124   ar
   135    81    79   ar
   136    88    90   ar
   137    91    92   ar
   138   134   135    1
   139   135   137   ar
   140    90    92   ar
