@<TRIPOS>MOLECULE
tmp/3rbhB06.pdb
 84 82 0 0 0
SMALL
GASTEIGER

@<TRIPOS>ATOM
      1  N        -21.2970   33.6510  -35.2020 N.3    36  PRO36      -0.2116
      2  CA       -22.7100   33.3040  -35.4110 C.3    36  PRO36       0.1372
      3  C        -22.8530   31.8020  -35.3240 C.2    36  PRO36       0.2244
      4  O        -21.9850   31.1060  -35.8290 O.2    36  PRO36      -0.2868
      5  CB       -22.9730   33.7560  -36.8550 C.3    36  PRO36       0.0268
      6  CG       -21.6460   33.5980  -37.5390 C.3    36  PRO36       0.0207
      7  CD       -20.6140   34.0010  -36.4620 C.3    36  PRO36       0.0892
      8  N        -23.8650   24.3800  -36.1420 N.3    49  PHE49      -0.1241
      9  CA       -22.8110   25.0800  -36.8600 C.3    49  PHE49       0.1605
     10  C        -22.3940   26.3090  -36.0430 C.2    49  PHE49       0.2264
     11  O        -23.2290   26.9620  -35.4200 O.2    49  PHE49      -0.2867
     12  CB       -23.2800   25.5150  -38.2640 C.3    49  PHE49       0.0534
     13  CG       -22.2060   26.1920  -39.0720 C.ar   49  PHE49      -0.0203
     14  CD1      -21.3930   25.4560  -39.9190 C.ar   49  PHE49      -0.0042
     15  CD2      -21.9780   27.5590  -38.9490 C.ar   49  PHE49      -0.0042
     16  CE1      -20.3850   26.0710  -40.6410 C.ar   49  PHE49      -0.0003
     17  CE2      -20.9720   28.1830  -39.6660 C.ar   49  PHE49      -0.0003
     18  CZ       -20.1750   27.4410  -40.5120 C.ar   49  PHE49      -0.0000
     19  N        -19.6630   29.5770  -36.9430 N.3    50  GLY50      -0.1210
     20  CA       -18.6740   30.2040  -37.7850 C.3    50  GLY50       0.1956
     21  C        -17.9270   31.2310  -36.9820 C.2    50  GLY50       0.2612
     22  O        -18.1630   31.3840  -35.7870 O.2    50  GLY50      -0.2717
     23  N        -17.0270   31.9450  -37.6390 N.am   51  GLN51      -0.1965
     24  CA       -16.1510   32.8590  -36.9280 C.3    51  GLN51       0.1733
     25  C        -15.6040   33.9440  -37.8450 C.2    51  GLN51       0.2616
     26  O        -15.0910   33.6530  -38.9170 O.2    51  GLN51      -0.2715
     27  CB       -14.9950   32.0840  -36.2880 C.3    51  GLN51       0.0408
     28  CG       -13.9190   32.9880  -35.6620 C.3    51  GLN51       0.0908
     29  CD       -12.9340   32.2200  -34.7810 C.2    51  GLN51       0.2608
     30  OE1      -12.5890   31.0630  -35.0550 O.2    51  GLN51      -0.2717
     31  NE2      -12.4750   32.8660  -33.7230 N.am   51  GLN51      -0.0878
     32  N        -15.7210   35.1980  -37.4230 N.am   52  ALA52      -0.1977
     33  CA       -15.1480   36.2980  -38.1790 C.3    52  ALA52       0.1597
     34  C        -14.2710   37.1330  -37.2700 C.2    52  ALA52       0.2287
     35  O        -14.7080   37.5890  -36.2120 O.2    52  ALA52      -0.2864
     36  CB       -16.2450   37.1540  -38.8150 C.3    52  ALA52       0.0319
     37  N        -11.9380   34.2500  -41.8000 N.3    69  LEU69      -0.1231
     38  CA       -13.2020   33.5930  -41.5360 C.3    69  LEU69       0.1693
     39  C        -12.8810   32.1450  -41.2240 C.2    69  LEU69       0.2592
     40  O        -11.8860   31.6050  -41.7170 O.2    69  LEU69      -0.2718
     41  CB       -14.1000   33.6660  -42.7630 C.3    69  LEU69       0.0284
     42  CG       -14.4360   35.0540  -43.2780 C.3    69  LEU69       0.0019
     43  CD1      -15.3220   34.9280  -44.5070 C.3    69  LEU69       0.0001
     44  CD2      -15.1470   35.8200  -42.1940 C.3    69  LEU69       0.0001
     45  N        -13.7180   31.5200  -40.4050 N.am   70  ALA70      -0.1966
     46  CA       -13.5350   30.1140  -40.0730 C.3    70  ALA70       0.1728
     47  C        -14.8550   29.4010  -39.7880 C.2    70  ALA70       0.2616
     48  O        -15.8580   30.0170  -39.4150 O.2    70  ALA70      -0.2715
     49  CB       -12.5710   29.9670  -38.8530 C.3    70  ALA70       0.0334
     50  N        -14.8340   28.0880  -39.9490 N.am   71  ALA71      -0.1977
     51  CA       -15.8840   27.2370  -39.4330 C.3    71  ALA71       0.1597
     52  C        -15.3140   26.5300  -38.2060 C.2    71  ALA71       0.2287
     53  O        -14.4270   25.6910  -38.3320 O.2    71  ALA71      -0.2864
     54  CB       -16.3110   26.2300  -40.4970 C.3    71  ALA71       0.0319
     55  N        -10.0150   24.8970  -41.6200 N.3   133  TYR133     -0.1227
     56  CA       -11.2470   25.5860  -42.0250 C.3   133  TYR133      0.1736
     57  C        -11.1680   27.0990  -41.7980 C.2   133  TYR133      0.2595
     58  O        -12.1210   27.7270  -41.3540 O.2   133  TYR133     -0.2718
     59  CB       -12.4680   24.9560  -41.3430 C.3   133  TYR133      0.0548
     60  CG       -12.4900   23.4530  -41.5310 C.ar  133  TYR133     -0.0200
     61  CD1      -13.0760   22.8720  -42.6650 C.ar  133  TYR133     -0.0009
     62  CD2      -11.8870   22.6140  -40.5920 C.ar  133  TYR133     -0.0009
     63  CE1      -13.0710   21.4860  -42.8430 C.ar  133  TYR133      0.0417
     64  CE2      -11.8730   21.2350  -40.7600 C.ar  133  TYR133      0.0417
     65  CZ       -12.4650   20.6770  -41.8840 C.ar  133  TYR133      0.1957
     66  OH       -12.4580   19.3140  -42.0470 O.3   133  TYR133     -0.2866
     67  N        -10.0130   27.6690  -42.1230 N.am  134  ARG134     -0.1966
     68  CA        -9.7830   29.0970  -42.0010 C.3   134  ARG134      0.1729
     69  C         -9.3690   29.6870  -43.3390 C.2   134  ARG134      0.2616
     70  O         -8.6480   29.0580  -44.1010 O.2   134  ARG134     -0.2715
     71  CB        -8.6930   29.3560  -40.9640 C.3   134  ARG134      0.0348
     72  CG        -9.1780   29.2410  -39.5400 C.3   134  ARG134      0.0492
     73  CD        -8.0280   29.2660  -38.5180 C.3   134  ARG134      0.2205
     74  NE        -7.0510   30.3170  -38.7910 N.pl3 134  ARG134     -0.0865
     75  CZ        -6.4700   31.0610  -37.8580 C.cat 134  ARG134      0.5346
     76  NH1       -6.7780   30.8870  -36.5860 N.pl3 134  ARG134      0.1354
     77  NH2       -5.5850   31.9860  -38.1980 N.pl3 134  ARG134      0.1354
     78  N         -9.8190   30.9020  -43.6220 N.am  135  THR135     -0.1951
     79  CA        -9.4950   31.5400  -44.8920 C.3   135  THR135      0.1897
     80  C         -8.0150   31.9320  -45.0060 C.2   135  THR135      0.2313
     81  O         -7.5230   32.1980  -46.1010 O.2   135  THR135     -0.2863
     82  CB       -10.3740   32.7840  -45.1390 C.3   135  THR135      0.1794
     83  OG1      -10.2670   33.6790  -44.0250 O.3   135  THR135     -0.2208
     84  CG2      -11.8330   32.3870  -45.3260 C.3   135  THR135      0.0378
@<TRIPOS>BOND
     1    81    80    2
     2    84    82    1
     3    82    79    1
     4    82    83    1
     5    80    79    1
     6    79    78    1
     7    43    42    1
     8    70    69    2
     9    78    69   am
    10    69    68    1
    11    42    41    1
    12    42    44    1
    13    63    61   ar
    14    63    65   ar
    15    41    38    1
    16    61    60   ar
    17    67    68    1
    18    67    57   am
    19    66    65    1
    20    56    57    1
    21    56    55    1
    22    56    59    1
    23    68    71    1
    24    65    64   ar
    25    37    38    1
    26    57    58    2
    27    40    39    2
    28    38    39    1
    29    60    59    1
    30    60    62   ar
    31    39    45   am
    32    71    72    1
    33    64    62   ar
    34    16    18   ar
    35    16    14   ar
    36    18    17   ar
    37    54    51    1
    38    45    46    1
    39    46    47    1
    40    46    49    1
    41    50    47   am
    42    50    51    1
    43    14    13   ar
    44    47    48    2
    45    17    15   ar
    46    72    73    1
    47    51    52    1
    48    13    15   ar
    49    13    12    1
    50    26    25    2
    51    36    33    1
    52    74    73    1
    53    74    75    2
    54    53    52    2
    55    12     9    1
    56    77    75    1
    57    33    32    1
    58    33    34    1
    59    75    76    1
    60    25    32   am
    61    25    24    1
    62    20    21    1
    63    20    19    1
    64    23    21   am
    65    23    24    1
    66     6     5    1
    67     6     7    1
    68    34    35    2
    69    21    22    2
    70    24    27    1
    71     9     8    1
    72     9    10    1
    73     5     2    1
    74     7     1    1
    75    27    28    1
    76    10    11    2
    77     4     3    2
    78    28    29    1
    79     2     3    1
    80     2     1    1
    81    30    29    2
    82    29    31   am
