@<TRIPOS>MOLECULE
tmp/3rbhB01.pdb
 116 110 0 0 0
SMALL
GASTEIGER

@<TRIPOS>ATOM
      1  N        -14.4440   40.9210  -27.8500 N.3     9  ILE9       -0.1245
      2  CA       -13.3860   41.8960  -28.0700 C.3     9  ILE9        0.1561
      3  C        -12.2140   41.5900  -27.1490 C.2     9  ILE9        0.2260
      4  O        -12.3910   41.4040  -25.9510 O.2     9  ILE9       -0.2867
      5  CB       -13.8930   43.3110  -27.8680 C.3     9  ILE9        0.0252
      6  CG1      -14.8970   43.6550  -28.9790 C.3     9  ILE9        0.0019
      7  CG2      -12.7370   44.2830  -27.8980 C.3     9  ILE9        0.0019
      8  CD1      -15.9790   44.6120  -28.5710 C.3     9  ILE9        0.0001
      9  N         -7.9320   42.3430  -26.1320 N.3    11  GLY11      -0.1210
     10  CA        -6.6190   42.9520  -26.2390 C.3    11  GLY11       0.1956
     11  C         -5.5880   41.9540  -25.7310 C.2    11  GLY11       0.2612
     12  O         -5.8030   41.2850  -24.7230 O.2    11  GLY11      -0.2717
     13  N         -4.4900   41.8170  -26.4560 N.am   12  GLU12      -0.1965
     14  CA        -3.3990   40.9650  -26.0300 C.3    12  GLU12       0.1733
     15  C         -2.1200   41.7770  -25.9880 C.2    12  GLU12       0.2617
     16  O         -1.8190   42.5030  -26.9300 O.2    12  GLU12      -0.2715
     17  CB        -3.1800   39.7780  -26.9680 C.3    12  GLU12       0.0429
     18  CG        -1.9790   38.9130  -26.5020 C.3    12  GLU12       0.1163
     19  CD        -1.7140   37.6710  -27.3410 C.2    12  GLU12       0.3649
     20  OE1       -2.4640   37.3960  -28.3040 O.co2  12  GLU12      -0.2457
     21  OE2       -0.7360   36.9600  -27.0250 O.co2  12  GLU12      -0.2457
     22  N         -1.3780   41.6380  -24.8930 N.am   13  SER13      -0.1950
     23  CA        -0.0780   42.2730  -24.7260 C.3    13  SER13       0.1924
     24  C          0.9430   41.1720  -24.4750 C.2    13  SER13       0.2314
     25  O          0.8030   40.3720  -23.5480 O.2    13  SER13      -0.2863
     26  CB        -0.1100   43.2490  -23.5390 C.3    13  SER13       0.2116
     27  OG         1.1830   43.7490  -23.2310 O.3    13  SER13      -0.2180
     28  N          0.8870   44.1440  -28.8670 N.3    28  ASN28      -0.1240
     29  CA         0.1140   45.0080  -27.9730 C.3    28  ASN28       0.1653
     30  C         -1.0760   45.4970  -28.7690 C.2    28  ASN28       0.2266
     31  O         -1.1200   46.6530  -29.2150 O.2    28  ASN28      -0.2867
     32  CB         0.9330   46.1850  -27.4480 C.3    28  ASN28       0.1155
     33  CG         0.1150   47.1140  -26.5620 C.2    28  ASN28       0.2627
     34  OD1       -0.7670   46.6760  -25.8240 O.2    28  ASN28      -0.2716
     35  ND2        0.3970   48.4030  -26.6470 N.am   28  ASN28      -0.0877
     36  N         -5.3810   44.6390  -30.5010 N.3    30  ILE30      -0.1245
     37  CA        -6.8030   44.5130  -30.2080 C.3    30  ILE30       0.1561
     38  C         -7.5170   43.8110  -31.3600 C.2    30  ILE30       0.2260
     39  O         -7.1340   43.9410  -32.5210 O.2    30  ILE30      -0.2867
     40  CB        -7.4360   45.9000  -29.9860 C.3    30  ILE30       0.0252
     41  CG1       -8.6730   45.8020  -29.0970 C.3    30  ILE30       0.0019
     42  CG2       -7.7840   46.5390  -31.3110 C.3    30  ILE30       0.0019
     43  CD1       -8.3530   45.8860  -27.6260 C.3    30  ILE30       0.0001
     44  N        -15.2800   39.4340  -14.0120 N.3   373  LYS373     -0.1245
     45  CA       -16.5700   39.9450  -13.6090 C.3   373  LYS373      0.1561
     46  C        -17.5630   39.3800  -14.6080 C.2   373  LYS373      0.2260
     47  O        -17.3580   39.4990  -15.8230 O.2   373  LYS373     -0.2867
     48  CB       -16.6040   41.4860  -13.6300 C.3   373  LYS373      0.0271
     49  CG       -17.8620   42.0410  -12.9720 C.3   373  LYS373      0.0035
     50  CD       -18.1640   43.4690  -13.3620 C.3   373  LYS373      0.0206
     51  CE       -19.4830   43.9270  -12.7390 C.3   373  LYS373      0.1093
     52  NZ       -19.4340   45.3710  -12.3560 N.3   373  LYS373     -0.1314
     53  N        -21.5240   39.1620  -16.0610 N.3   375  PHE375     -0.1241
     54  CA       -22.7800   39.9030  -16.1830 C.3   375  PHE375      0.1605
     55  C        -23.9520   38.9400  -16.2770 C.2   375  PHE375      0.2264
     56  O        -23.8080   37.8190  -16.7720 O.2   375  PHE375     -0.2867
     57  CB       -22.7590   40.8010  -17.4210 C.3   375  PHE375      0.0534
     58  CG       -21.5320   41.6690  -17.5260 C.ar  375  PHE375     -0.0203
     59  CD1      -21.2260   42.5800  -16.5350 C.ar  375  PHE375     -0.0042
     60  CD2      -20.7000   41.5870  -18.6300 C.ar  375  PHE375     -0.0042
     61  CE1      -20.1040   43.3720  -16.6330 C.ar  375  PHE375     -0.0003
     62  CE2      -19.5760   42.3840  -18.7280 C.ar  375  PHE375     -0.0003
     63  CZ       -19.2760   43.2680  -17.7320 C.ar  375  PHE375     -0.0000
     64  N        -16.3890   40.1110  -18.4500 N.3   394  ILE394     -0.1245
     65  CA       -15.1120   40.7420  -18.7640 C.3   394  ILE394      0.1561
     66  C        -14.0510   40.0860  -17.8860 C.2   394  ILE394      0.2260
     67  O        -14.2860   39.8150  -16.7100 O.2   394  ILE394     -0.2867
     68  CB       -15.1320   42.2830  -18.5820 C.3   394  ILE394      0.0252
     69  CG1      -13.8240   42.8990  -19.1060 C.3   394  ILE394      0.0019
     70  CG2      -15.3800   42.6500  -17.1210 C.3   394  ILE394      0.0019
     71  CD1      -13.8120   44.4370  -19.1460 C.3   394  ILE394      0.0001
     72  N         -9.6340   39.4750  -17.0820 N.3   396  PHE396     -0.1241
     73  CA        -8.2070   39.7060  -17.2450 C.3   396  PHE396      0.1605
     74  C         -7.4770   38.3800  -16.9910 C.2   396  PHE396      0.2264
     75  O         -7.7630   37.6580  -16.0310 O.2   396  PHE396     -0.2867
     76  CB        -7.7000   40.7820  -16.2710 C.3   396  PHE396      0.0534
     77  CG        -6.2060   40.9240  -16.2770 C.ar  396  PHE396     -0.0203
     78  CD1       -5.5780   41.8040  -17.1490 C.ar  396  PHE396     -0.0042
     79  CD2       -5.4310   40.1380  -15.4480 C.ar  396  PHE396     -0.0042
     80  CE1       -4.2000   41.9070  -17.1810 C.ar  396  PHE396     -0.0003
     81  CE2       -4.0480   40.2340  -15.4700 C.ar  396  PHE396     -0.0003
     82  CZ        -3.4300   41.1280  -16.3300 C.ar  396  PHE396     -0.0000
     83  N         -0.5460   38.7480  -21.5540 N.3   417  ALA417     -0.1231
     84  CA        -1.7350   39.1630  -20.8320 C.3   417  ALA417      0.1694
     85  C         -2.8600   39.5400  -21.7870 C.2   417  ALA417      0.2592
     86  O         -2.6350   40.1310  -22.8540 O.2   417  ALA417     -0.2718
     87  CB        -1.4020   40.3530  -19.9010 C.3   417  ALA417      0.0304
     88  N         -4.0760   39.2100  -21.3740 N.am  418  PHE418     -0.1962
     89  CA        -5.2640   39.4780  -22.1610 C.3   418  PHE418      0.1771
     90  C         -6.3220   40.2100  -21.3530 C.2   418  PHE418      0.2619
     91  O         -6.4470   40.0160  -20.1510 O.2   418  PHE418     -0.2715
     92  CB        -5.9000   38.1650  -22.6240 C.3   418  PHE418      0.0574
     93  CG        -5.0160   37.3210  -23.4730 C.ar  418  PHE418     -0.0200
     94  CD1       -5.1810   37.3090  -24.8470 C.ar  418  PHE418     -0.0042
     95  CD2       -4.0520   36.4970  -22.8980 C.ar  418  PHE418     -0.0042
     96  CE1       -4.3860   36.5160  -25.6480 C.ar  418  PHE418     -0.0003
     97  CE2       -3.2430   35.6910  -23.6990 C.ar  418  PHE418     -0.0003
     98  CZ        -3.4110   35.6990  -25.0730 C.ar  418  PHE418     -0.0000
     99  N         -7.0930   41.0480  -22.0300 N.am  419  VAL419     -0.1977
    100  CA        -8.4020   41.4130  -21.5300 C.3   419  VAL419      0.1596
    101  C         -9.4500   40.9000  -22.5250 C.2   419  VAL419      0.2287
    102  O         -9.3400   41.1520  -23.7170 O.2   419  VAL419     -0.2864
    103  CB        -8.5320   42.9240  -21.3290 C.3   419  VAL419      0.0276
    104  CG1       -9.9680   43.2900  -21.0250 C.3   419  VAL419      0.0022
    105  CG2       -7.6310   43.3600  -20.1930 C.3   419  VAL419      0.0022
    106  N        -13.5640   40.6940  -23.4230 N.3   421  PHE421     -0.1241
    107  CA       -14.9400   41.1150  -23.2060 C.3   421  PHE421      0.1605
    108  C        -15.8360   40.2630  -24.1030 C.2   421  PHE421      0.2264
    109  O        -15.5480   40.0860  -25.2900 O.2   421  PHE421     -0.2867
    110  CB       -15.1150   42.6150  -23.4930 C.3   421  PHE421      0.0534
    111  CG       -16.5530   43.0620  -23.5520 C.ar  421  PHE421     -0.0203
    112  CD1      -17.3040   43.1880  -22.3980 C.ar  421  PHE421     -0.0042
    113  CD2      -17.1500   43.3590  -24.7650 C.ar  421  PHE421     -0.0042
    114  CE1      -18.6280   43.5900  -22.4520 C.ar  421  PHE421     -0.0003
    115  CE2      -18.4720   43.7730  -24.8320 C.ar  421  PHE421     -0.0003
    116  CZ       -19.2170   43.8840  -23.6830 C.ar  421  PHE421     -0.0000
@<TRIPOS>BOND
     1    39    38    2
     2    38    37    1
     3    42    40    1
     4    36    37    1
     5    37    40    1
     6    40    41    1
     7    31    30    2
     8    41    43    1
     9     6     8    1
    10     6     5    1
    11    28    29    1
    12    30    29    1
    13    20    19   ar
    14     2     5    1
    15     2     1    1
    16     2     3    1
    17    29    32    1
    18     7     5    1
    19    32    33    1
    20    19    21   ar
    21    19    18    1
    22     3     4    2
    23    17    18    1
    24    17    14    1
    25    16    15    2
    26    35    33   am
    27    33    34    2
    28    13    14    1
    29    13    11   am
    30    10     9    1
    31    10    11    1
    32    14    15    1
    33    15    22   am
    34    11    12    2
    35    96    98   ar
    36    96    94   ar
    37   109   108    2
    38    98    97   ar
    39    22    23    1
    40    94    93   ar
    41   115   113   ar
    42   115   116   ar
    43   113   111   ar
    44    23    24    1
    45    23    26    1
    46    24    25    2
    47   108   107    1
    48   102   101    2
    49    97    95   ar
    50   116   114   ar
    51   111   110    1
    52   111   112   ar
    53    26    27    1
    54   110   107    1
    55    93    95   ar
    56    93    92    1
    57   106   107    1
    58    86    85    2
    59    92    89    1
    60   101   100    1
    61   114   112   ar
    62    89    88    1
    63    89    90    1
    64    99   100    1
    65    99    90   am
    66    85    88   am
    67    85    84    1
    68    83    84    1
    69   100   103    1
    70    90    91    2
    71   103   104    1
    72   103   105    1
    73    84    87    1
    74    71    69    1
    75    69    68    1
    76    65    68    1
    77    65    64    1
    78    65    66    1
    79    62    60   ar
    80    62    63   ar
    81    60    58   ar
    82    68    70    1
    83    66    67    2
    84    63    61   ar
    85    58    57    1
    86    58    59   ar
    87    57    54    1
    88    73    72    1
    89    73    74    1
    90    73    76    1
    91    80    78   ar
    92    80    82   ar
    93    78    77   ar
    94    74    75    2
    95    56    55    2
    96    61    59   ar
    97    82    81   ar
    98    55    54    1
    99    77    76    1
   100    77    79   ar
   101    54    53    1
   102    47    46    2
   103    81    79   ar
   104    46    45    1
   105    44    45    1
   106    48    45    1
   107    48    49    1
   108    50    49    1
   109    50    51    1
   110    51    52    1
