@<TRIPOS>MOLECULE
tmp/3rbhB09.pdb
 88 88 0 0 0
SMALL
GASTEIGER

@<TRIPOS>ATOM
      1  N        -30.5170   30.2560  -32.8050 N.3     3  PHE3       -0.1241
      2  CA       -29.5270   31.1010  -33.4400 C.3     3  PHE3        0.1605
      3  C        -28.9860   32.0710  -32.4490 C.2     3  PHE3        0.2264
      4  O        -29.7120   32.5210  -31.5860 O.2     3  PHE3       -0.2867
      5  CB       -30.1430   31.8890  -34.5980 C.3     3  PHE3        0.0534
      6  CG       -30.7120   31.0260  -35.6690 C.ar    3  PHE3       -0.0203
      7  CD1      -29.9380   30.6390  -36.7450 C.ar    3  PHE3       -0.0042
      8  CD2      -32.0220   30.5900  -35.5960 C.ar    3  PHE3       -0.0042
      9  CE1      -30.4650   29.8310  -37.7370 C.ar    3  PHE3       -0.0003
     10  CE2      -32.5520   29.7800  -36.5780 C.ar    3  PHE3       -0.0003
     11  CZ       -31.7700   29.3970  -37.6500 C.ar    3  PHE3       -0.0000
     12  N        -25.8570   28.2540  -35.1990 N.3    38  ALA38      -0.1231
     13  CA       -27.2050   27.7220  -35.3690 C.3    38  ALA38       0.1694
     14  C        -27.3260   26.3210  -34.7620 C.2    38  ALA38       0.2592
     15  O        -26.5210   25.4360  -35.0400 O.2    38  ALA38      -0.2718
     16  CB       -27.6030   27.7070  -36.8530 C.3    38  ALA38       0.0304
     17  N        -28.3390   26.1330  -33.9250 N.am   39  PHE39      -0.1962
     18  CA       -28.5890   24.8530  -33.2920 C.3    39  PHE39       0.1771
     19  C        -30.0270   24.4040  -33.5590 C.2    39  PHE39       0.2620
     20  O        -30.9500   25.2160  -33.5700 O.2    39  PHE39      -0.2715
     21  CB       -28.3370   24.9380  -31.7880 C.3    39  PHE39       0.0574
     22  CG       -28.6570   23.6720  -31.0500 C.ar   39  PHE39      -0.0200
     23  CD1      -27.8390   22.5610  -31.1650 C.ar   39  PHE39      -0.0042
     24  CD2      -29.7690   23.5950  -30.2330 C.ar   39  PHE39      -0.0042
     25  CE1      -28.1310   21.3890  -30.4880 C.ar   39  PHE39      -0.0003
     26  CE2      -30.0720   22.4310  -29.5560 C.ar   39  PHE39      -0.0003
     27  CZ       -29.2510   21.3230  -29.6830 C.ar   39  PHE39      -0.0000
     28  N        -30.2060   23.1060  -33.7690 N.am   40  GLY40      -0.1954
     29  CA       -31.4980   22.5430  -34.1290 C.3    40  GLY40       0.1869
     30  C        -31.6590   21.1420  -33.5690 C.2    40  GLY40       0.2309
     31  O        -30.6770   20.4000  -33.4290 O.2    40  GLY40      -0.2863
     32  N        -34.5510   17.6910  -33.4480 N.3    42  TRP42      -0.1241
     33  CA       -35.7960   17.0350  -33.8390 C.3    42  TRP42       0.1605
     34  C        -35.7270   15.5350  -33.5790 C.2    42  TRP42       0.2264
     35  O        -34.9250   14.8210  -34.1750 O.2    42  TRP42      -0.2867
     36  CB       -36.1410   17.3240  -35.3040 C.3    42  TRP42       0.0550
     37  CG       -35.2070   16.7220  -36.3070 C.ar   42  TRP42       0.0003
     38  CD1      -35.5150   15.7720  -37.2430 C.ar   42  TRP42       0.0946
     39  CD2      -33.8130   17.0300  -36.4920 C.ar   42  TRP42       0.0152
     40  NE1      -34.3980   15.4620  -37.9930 N.ar   42  TRP42      -0.2442
     41  CE2      -33.3420   16.2190  -37.5530 C.ar   42  TRP42       0.0810
     42  CE3      -32.9150   17.8960  -35.8560 C.ar   42  TRP42       0.0012
     43  CZ2      -32.0130   16.2560  -37.9940 C.ar   42  TRP42       0.0191
     44  CZ3      -31.5950   17.9320  -36.2970 C.ar   42  TRP42       0.0001
     45  CH2      -31.1600   17.1160  -37.3560 C.ar   42  TRP42       0.0015
     46  N        -28.2590   19.1210  -34.6680 N.3    47  ALA47      -0.1231
     47  CA       -27.1840   19.5610  -35.5520 C.3    47  ALA47       0.1694
     48  C        -26.6920   20.9220  -35.0900 C.2    47  ALA47       0.2592
     49  O        -27.3960   21.6210  -34.3590 O.2    47  ALA47      -0.2718
     50  CB       -27.6600   19.6200  -37.0040 C.3    47  ALA47       0.0304
     51  N        -25.4910   21.3000  -35.5150 N.am   48  TYR48      -0.1962
     52  CA       -24.8840   22.5170  -35.0050 C.3    48  TYR48       0.1771
     53  C        -23.8280   23.0680  -35.9390 C.2    48  TYR48       0.2619
     54  O        -23.0120   22.3220  -36.4710 O.2    48  TYR48      -0.2715
     55  CB       -24.2810   22.2420  -33.6330 C.3    48  TYR48       0.0574
     56  CG       -23.7500   23.4630  -32.9260 C.ar   48  TYR48      -0.0198
     57  CD1      -24.6160   24.4260  -32.4200 C.ar   48  TYR48      -0.0009
     58  CD2      -22.3840   23.6460  -32.7470 C.ar   48  TYR48      -0.0009
     59  CE1      -24.1370   25.5440  -31.7590 C.ar   48  TYR48       0.0417
     60  CE2      -21.8910   24.7600  -32.0790 C.ar   48  TYR48       0.0417
     61  CZ       -22.7740   25.7050  -31.5870 C.ar   48  TYR48       0.1957
     62  OH       -22.3060   26.8170  -30.9390 O.3    48  TYR48      -0.2866
     63  N        -23.8650   24.3800  -36.1420 N.am   49  PHE49      -0.1974
     64  CA       -22.8110   25.0800  -36.8600 C.3    49  PHE49       0.1639
     65  C        -22.3940   26.3090  -36.0430 C.2    49  PHE49       0.2290
     66  O        -23.2290   26.9620  -35.4200 O.2    49  PHE49      -0.2864
     67  CB       -23.2800   25.5150  -38.2640 C.3    49  PHE49       0.0560
     68  CG       -22.2060   26.1920  -39.0720 C.ar   49  PHE49      -0.0200
     69  CD1      -21.3930   25.4560  -39.9190 C.ar   49  PHE49      -0.0042
     70  CD2      -21.9780   27.5590  -38.9490 C.ar   49  PHE49      -0.0042
     71  CE1      -20.3850   26.0710  -40.6410 C.ar   49  PHE49      -0.0003
     72  CE2      -20.9720   28.1830  -39.6660 C.ar   49  PHE49      -0.0003
     73  CZ       -20.1750   27.4410  -40.5120 C.ar   49  PHE49      -0.0000
     74  N        -11.9380   34.2500  -41.8000 N.3    69  LEU69      -0.1245
     75  CA       -13.2020   33.5930  -41.5360 C.3    69  LEU69       0.1561
     76  C        -12.8810   32.1450  -41.2240 C.2    69  LEU69       0.2260
     77  O        -11.8860   31.6050  -41.7170 O.2    69  LEU69      -0.2867
     78  CB       -14.1000   33.6660  -42.7630 C.3    69  LEU69       0.0270
     79  CG       -14.4360   35.0540  -43.2780 C.3    69  LEU69       0.0019
     80  CD1      -15.3220   34.9280  -44.5070 C.3    69  LEU69       0.0001
     81  CD2      -15.1470   35.8200  -42.1940 C.3    69  LEU69       0.0001
     82  N         -9.8190   30.9020  -43.6220 N.3   135  THR135     -0.1218
     83  CA        -9.4950   31.5400  -44.8920 C.3   135  THR135      0.1862
     84  C         -8.0150   31.9320  -45.0060 C.2   135  THR135      0.2287
     85  O         -7.5230   32.1980  -46.1010 O.2   135  THR135     -0.2866
     86  CB       -10.3740   32.7840  -45.1390 C.3   135  THR135      0.1770
     87  OG1      -10.2670   33.6790  -44.0250 O.3   135  THR135     -0.2211
     88  CG2      -11.8330   32.3870  -45.3260 C.3   135  THR135      0.0375
@<TRIPOS>BOND
     1    85    84    2
     2    88    86    1
     3    86    83    1
     4    86    87    1
     5    84    83    1
     6    83    82    1
     7    80    79    1
     8    79    78    1
     9    79    81    1
    10    78    75    1
    11    74    75    1
    12    77    76    2
    13    75    76    1
    14    71    73   ar
    15    71    69   ar
    16    73    72   ar
    17    69    68   ar
    18    72    70   ar
    19    68    70   ar
    20    68    67    1
    21    67    64    1
    22    43    41   ar
    23    43    45   ar
    24    40    41   ar
    25    40    38   ar
    26     9    11   ar
    27     9     7   ar
    28    11    10   ar
    29    41    39   ar
    30    45    44   ar
    31    38    37   ar
    32    50    47    1
    33    64    63    1
    34    64    65    1
    35    16    13    1
    36     7     6   ar
    37    10     8   ar
    38    39    37   ar
    39    39    42   ar
    40    54    53    2
    41    37    36    1
    42    44    42   ar
    43    63    53   am
    44    65    66    2
    45    53    52    1
    46     6     8   ar
    47     6     5    1
    48    47    48    1
    49    47    46    1
    50    51    48   am
    51    51    52    1
    52    13    12    1
    53    13    14    1
    54    36    33    1
    55    48    49    2
    56    15    14    2
    57    52    55    1
    58    14    17   am
    59     5     2    1
    60    35    34    2
    61    29    28    1
    62    29    30    1
    63    17    18    1
    64    33    34    1
    65    33    32    1
    66    28    19   am
    67    55    56    1
    68    20    19    2
    69    30    31    2
    70    19    18    1
    71     2     1    1
    72     2     3    1
    73    18    21    1
    74    56    58   ar
    75    56    57   ar
    76    58    60   ar
    77     3     4    2
    78    57    59   ar
    79    60    61   ar
    80    21    22    1
    81    59    61   ar
    82    61    62    1
    83    23    22   ar
    84    23    25   ar
    85    22    24   ar
    86    25    27   ar
    87    24    26   ar
    88    27    26   ar
