@<TRIPOS>MOLECULE
tmp/3rbhD10.pdb
 81 74 0 0 0
SMALL
GASTEIGER

@<TRIPOS>ATOM
      1  N        -57.4130   45.9830  -51.0510 N.3    15  ASN15      -0.1240
      2  CA       -58.6890   46.6430  -50.8520 C.3    15  ASN15       0.1653
      3  C        -59.7390   46.0010  -51.7490 C.2    15  ASN15       0.2266
      4  O        -59.7450   46.2320  -52.9570 O.2    15  ASN15      -0.2867
      5  CB       -58.5330   48.1280  -51.2140 C.3    15  ASN15       0.1155
      6  CG       -59.7940   48.9380  -50.9620 C.2    15  ASN15       0.2627
      7  OD1      -60.6860   48.5320  -50.2070 O.2    15  ASN15      -0.2716
      8  ND2      -59.8700   50.0990  -51.5990 N.am   15  ASN15      -0.0877
      9  N        -50.6140   39.4420  -69.2450 N.3   314  LEU314     -0.1245
     10  CA       -51.9970   39.8340  -69.0100 C.3   314  LEU314      0.1561
     11  C        -52.8190   38.5470  -68.9210 C.2   314  LEU314      0.2260
     12  O        -52.7380   37.6780  -69.7940 O.2   314  LEU314     -0.2867
     13  CB       -52.4990   40.7390  -70.1350 C.3   314  LEU314      0.0270
     14  CG       -53.9010   41.3060  -69.9440 C.3   314  LEU314      0.0019
     15  CD1      -53.9010   42.3760  -68.8600 C.3   314  LEU314      0.0001
     16  CD2      -54.4270   41.8880  -71.2590 C.3   314  LEU314      0.0001
     17  N        -58.7990   39.8230  -63.4770 N.3   348  LEU348     -0.1245
     18  CA       -57.8340   40.2500  -64.4740 C.3   348  LEU348      0.1561
     19  C        -56.5220   40.5580  -63.7530 C.2   348  LEU348      0.2260
     20  O        -56.5150   41.2920  -62.7650 O.2   348  LEU348     -0.2867
     21  CB       -58.3570   41.5050  -65.1850 C.3   348  LEU348      0.0270
     22  CG       -57.5350   41.9970  -66.3660 C.3   348  LEU348      0.0019
     23  CD1      -57.5870   40.9840  -67.4850 C.3   348  LEU348      0.0001
     24  CD2      -58.0590   43.3550  -66.8320 C.3   348  LEU348      0.0001
     25  N        -52.2810   41.7000  -64.1430 N.3   350  LEU350     -0.1245
     26  CA       -51.2550   42.3370  -64.9450 C.3   350  LEU350      0.1561
     27  C        -49.9210   42.1860  -64.2400 C.2   350  LEU350      0.2260
     28  O        -49.8140   42.4420  -63.0360 O.2   350  LEU350     -0.2867
     29  CB       -51.5750   43.8250  -65.1270 C.3   350  LEU350      0.0270
     30  CG       -50.5680   44.6160  -65.9620 C.3   350  LEU350      0.0019
     31  CD1      -50.5240   44.0780  -67.3960 C.3   350  LEU350      0.0001
     32  CD2      -50.9280   46.0930  -65.9430 C.3   350  LEU350      0.0001
     33  N        -44.2090   45.3160  -61.3770 N.3   377  PHE377     -0.1241
     34  CA       -45.5770   45.5230  -60.9420 C.3   377  PHE377      0.1605
     35  C        -46.3310   44.2010  -61.0640 C.2   377  PHE377      0.2264
     36  O        -46.2100   43.4720  -62.0480 O.2   377  PHE377     -0.2867
     37  CB       -46.2770   46.6080  -61.7890 C.3   377  PHE377      0.0534
     38  CG       -47.7400   46.7260  -61.5050 C.ar  377  PHE377     -0.0203
     39  CD1      -48.2050   47.6140  -60.5490 C.ar  377  PHE377     -0.0042
     40  CD2      -48.6560   45.9250  -62.1730 C.ar  377  PHE377     -0.0042
     41  CE1      -49.5580   47.7170  -60.2670 C.ar  377  PHE377     -0.0003
     42  CE2      -50.0150   46.0260  -61.8980 C.ar  377  PHE377     -0.0003
     43  CZ       -50.4670   46.9300  -60.9440 C.ar  377  PHE377     -0.0000
     44  N        -50.2220   42.7700  -60.1250 N.3   379  GLY379     -0.1210
     45  CA       -51.5440   43.1790  -59.6890 C.3   379  GLY379      0.1956
     46  C        -52.6650   42.2800  -60.1550 C.2   379  GLY379      0.2612
     47  O        -52.5600   41.6160  -61.1760 O.2   379  GLY379     -0.2717
     48  N        -53.7430   42.2610  -59.3800 N.am  380  GLY380     -0.1942
     49  CA       -54.9330   41.5240  -59.7410 C.3   380  GLY380      0.2014
     50  C        -56.1810   42.2860  -59.3560 C.2   380  GLY380      0.2638
     51  O        -56.2460   42.8950  -58.2910 O.2   380  GLY380     -0.2714
     52  N        -57.1730   42.2580  -60.2370 N.am  381  LEU381     -0.1977
     53  CA       -58.4480   42.9110  -59.9850 C.3   381  LEU381      0.1596
     54  C        -59.5360   41.8510  -60.0140 C.2   381  LEU381      0.2287
     55  O        -59.7290   41.1710  -61.0210 O.2   381  LEU381     -0.2864
     56  CB       -58.7260   43.9740  -61.0530 C.3   381  LEU381      0.0297
     57  CG       -60.0790   44.6960  -61.0150 C.3   381  LEU381      0.0022
     58  CD1      -60.2200   45.5100  -59.7330 C.3   381  LEU381      0.0001
     59  CD2      -60.2390   45.5980  -62.2380 C.3   381  LEU381      0.0001
     60  N        -65.9750   45.2020  -56.5650 N.3   395  THR395     -0.1218
     61  CA       -64.6080   45.0510  -57.0550 C.3   395  THR395      0.1862
     62  C        -63.6440   44.8980  -55.8890 C.2   395  THR395      0.2287
     63  O        -63.9340   45.3220  -54.7730 O.2   395  THR395     -0.2866
     64  CB       -64.1650   46.2630  -57.9080 C.3   395  THR395      0.1770
     65  OG1      -64.2360   47.4280  -57.1000 O.3   395  THR395     -0.2211
     66  CG2      -65.0160   46.4230  -59.1530 C.3   395  THR395      0.0375
     67  N        -59.0540   44.5450  -55.2740 N.3   396  HIS396     -0.1241
     68  CA       -57.7350   44.4320  -55.8700 C.3   396  HIS396      0.1621
     69  C        -56.6630   44.0840  -54.8430 C.2   396  HIS396      0.2264
     70  O        -56.8630   44.2280  -53.6380 O.2   396  HIS396     -0.2867
     71  CB       -57.3650   45.7090  -56.6420 C.3   396  HIS396      0.0745
     72  CG       -56.7710   46.7870  -55.7900 C.ar  396  HIS396      0.0817
     73  ND1      -57.5120   47.8410  -55.3010 N.ar  396  HIS396     -0.2268
     74  CD2      -55.5070   46.9750  -55.3360 C.ar  396  HIS396      0.1154
     75  CE1      -56.7320   48.6360  -54.5900 C.ar  396  HIS396      0.1986
     76  NE2      -55.5100   48.1360  -54.5990 N.ar  396  HIS396     -0.2212
     77  N        -52.3180   44.6060  -55.2820 N.3   398  ALA398     -0.1245
     78  CA       -51.2810   45.0130  -56.2160 C.3   398  ALA398      0.1562
     79  C        -49.9950   45.3550  -55.4670 C.2   398  ALA398      0.2260
     80  O        -50.0340   45.8770  -54.3400 O.2   398  ALA398     -0.2867
     81  CB       -51.7640   46.2300  -57.0530 C.3   398  ALA398      0.0290
@<TRIPOS>BOND
     1    16    14    1
     2    13    14    1
     3    13    10    1
     4    14    15    1
     5    12    11    2
     6     9    10    1
     7    10    11    1
     8    23    22    1
     9    31    30    1
    10    24    22    1
    11    22    21    1
    12    30    32    1
    13    30    29    1
    14    21    18    1
    15    29    26    1
    16    26    27    1
    17    26    25    1
    18    18    19    1
    19    18    17    1
    20    27    28    2
    21    19    20    2
    22    59    57    1
    23    40    42   ar
    24    40    38   ar
    25    36    35    2
    26    42    43   ar
    27    37    38    1
    28    37    34    1
    29    38    39   ar
    30    33    34    1
    31    47    46    2
    32    35    34    1
    33    56    57    1
    34    56    53    1
    35    55    54    2
    36    57    58    1
    37    43    41   ar
    38    39    41   ar
    39    52    53    1
    40    52    50   am
    41    46    45    1
    42    46    48   am
    43    44    45    1
    44    54    53    1
    45    49    48    1
    46    49    50    1
    47    50    51    2
    48    66    64    1
    49    64    65    1
    50    64    61    1
    51    61    60    1
    52    61    62    1
    53    81    78    1
    54    71    68    1
    55    71    72    1
    56    78    79    1
    57    78    77    1
    58    62    63    2
    59    68    67    1
    60    68    69    1
    61    72    74   ar
    62    72    73   ar
    63    79    80    2
    64    74    76   ar
    65    73    75   ar
    66    69    70    2
    67    76    75   ar
    68     4     3    2
    69     3     2    1
    70     8     6   am
    71     5     6    1
    72     5     2    1
    73     1     2    1
    74     6     7    2
