@<TRIPOS>MOLECULE
tmp/3rbhD00.pdb
 101 97 0 0 0
SMALL
GASTEIGER

@<TRIPOS>ATOM
      1  N        -29.1880   39.6420  -45.9150 N.3    36  PRO36      -0.2116
      2  CA       -27.7610   39.3220  -46.0040 C.3    36  PRO36       0.1372
      3  C        -27.6080   37.8210  -46.1660 C.2    36  PRO36       0.2244
      4  O        -28.3580   37.0730  -45.5380 O.2    36  PRO36      -0.2868
      5  CB       -27.2190   39.7570  -44.6320 C.3    36  PRO36       0.0268
      6  CG       -28.3750   39.5770  -43.7060 C.3    36  PRO36       0.0207
      7  CD       -29.5940   39.9910  -44.5450 C.3    36  PRO36       0.0892
      8  N        -26.3520   30.5260  -45.6140 N.3    49  PHE49      -0.1241
      9  CA       -27.2440   31.1720  -44.6770 C.3    49  PHE49       0.1605
     10  C        -27.8540   32.3700  -45.3680 C.2    49  PHE49       0.2264
     11  O        -27.1770   33.0640  -46.1220 O.2    49  PHE49      -0.2867
     12  CB       -26.5030   31.6300  -43.4040 C.3    49  PHE49       0.0534
     13  CG       -27.4110   32.2590  -42.3950 C.ar   49  PHE49      -0.0203
     14  CD1      -28.0610   31.4830  -41.4500 C.ar   49  PHE49      -0.0042
     15  CD2      -27.6530   33.6190  -42.4230 C.ar   49  PHE49      -0.0042
     16  CE1      -28.9210   32.0660  -40.5380 C.ar   49  PHE49      -0.0003
     17  CE2      -28.5070   34.2090  -41.5120 C.ar   49  PHE49      -0.0003
     18  CZ       -29.1460   33.4360  -40.5740 C.ar   49  PHE49      -0.0000
     19  N        -30.3460   35.5870  -43.8970 N.3    50  GLY50      -0.1210
     20  CA       -31.1660   36.2180  -42.8820 C.3    50  GLY50       0.1956
     21  C        -32.1250   37.2050  -43.5210 C.2    50  GLY50       0.2611
     22  O        -32.1690   37.3460  -44.7350 O.2    50  GLY50      -0.2717
     23  N        -32.8920   37.9020  -42.6950 N.am   51  GLN51      -0.1979
     24  CA       -33.9050   38.8030  -43.2070 C.3    51  GLN51       0.1601
     25  C        -34.2550   39.8670  -42.1710 C.2    51  GLN51       0.2287
     26  O        -34.5380   39.5470  -41.0180 O.2    51  GLN51      -0.2864
     27  CB       -35.1570   38.0110  -43.6030 C.3    51  GLN51       0.0394
     28  CG       -36.3200   38.8890  -44.0160 C.3    51  GLN51       0.0908
     29  CD       -37.4590   38.1180  -44.6510 C.2    51  GLN51       0.2608
     30  OE1      -37.7170   36.9500  -44.3340 O.2    51  GLN51      -0.2717
     31  NE2      -38.1480   38.7710  -45.5610 N.am   51  GLN51      -0.0878
     32  N        -37.1020   40.2830  -37.6280 N.3    69  LEU69      -0.1231
     33  CA       -35.9290   39.6020  -38.1430 C.3    69  LEU69       0.1693
     34  C        -36.2950   38.1490  -38.3900 C.2    69  LEU69       0.2592
     35  O        -37.1810   37.6090  -37.7290 O.2    69  LEU69      -0.2718
     36  CB       -34.7860   39.6820  -37.1350 C.3    69  LEU69       0.0284
     37  CG       -34.3700   41.0840  -36.7210 C.3    69  LEU69       0.0019
     38  CD1      -33.2760   40.9960  -35.6610 C.3    69  LEU69       0.0001
     39  CD2      -33.8850   41.8530  -37.9250 C.3    69  LEU69       0.0001
     40  N        -35.6130   37.5100  -39.3310 N.am   70  ALA70      -0.1966
     41  CA       -35.8790   36.1060  -39.6150 C.3    70  ALA70       0.1728
     42  C        -34.6410   35.4150  -40.1460 C.2    70  ALA70       0.2616
     43  O        -33.7180   36.0730  -40.6630 O.2    70  ALA70      -0.2715
     44  CB       -37.0850   35.9500  -40.6390 C.3    70  ALA70       0.0334
     45  N        -34.6340   34.0870  -40.0040 N.am   71  ALA71      -0.1977
     46  CA       -33.6920   33.2260  -40.7100 C.3    71  ALA71       0.1597
     47  C        -34.4680   32.5130  -41.8020 C.2    71  ALA71       0.2287
     48  O        -35.2960   31.6450  -41.5000 O.2    71  ALA71      -0.2864
     49  CB       -33.0370   32.1880  -39.7330 C.3    71  ALA71       0.0319
     50  N        -40.6470   25.8310  -36.7060 N.3   131  SER131     -0.1217
     51  CA       -40.7140   27.2400  -36.3300 C.3   131  SER131      0.1889
     52  C        -40.7440   28.1190  -37.5570 C.2   131  SER131      0.2288
     53  O        -40.4010   27.6700  -38.6480 O.2   131  SER131     -0.2866
     54  CB       -39.5070   27.6390  -35.4700 C.3   131  SER131      0.2089
     55  OG       -39.5060   29.0380  -35.2450 O.3   131  SER131     -0.2183
     56  N        -38.9880   30.8810  -37.4170 N.3   133  TYR133     -0.1227
     57  CA       -37.7060   31.5790  -37.2310 C.3   133  TYR133      0.1736
     58  C        -37.8160   33.0910  -37.4410 C.2   133  TYR133      0.2595
     59  O        -36.9390   33.7250  -38.0570 O.2   133  TYR133     -0.2718
     60  CB       -36.6060   30.9510  -38.0960 C.3   133  TYR133      0.0548
     61  CG       -36.5500   29.4530  -37.9400 C.ar  133  TYR133     -0.0200
     62  CD1      -35.7950   28.8700  -36.9350 C.ar  133  TYR133     -0.0009
     63  CD2      -37.2890   28.6220  -38.7760 C.ar  133  TYR133     -0.0009
     64  CE1      -35.7620   27.5080  -36.7700 C.ar  133  TYR133      0.0417
     65  CE2      -37.2620   27.2670  -38.6260 C.ar  133  TYR133      0.0417
     66  CZ       -36.4970   26.7070  -37.6270 C.ar  133  TYR133      0.1957
     67  OH       -36.4760   25.3410  -37.4950 O.3   133  TYR133     -0.2866
     68  N        -38.8970   33.6570  -36.9100 N.am  134  ARG134     -0.1966
     69  CA       -39.1640   35.0880  -37.0150 C.3   134  ARG134      0.1729
     70  C        -39.3230   35.7020  -35.6340 C.2   134  ARG134      0.2616
     71  O        -39.9010   35.0840  -34.7430 O.2   134  ARG134     -0.2715
     72  CB       -40.4340   35.3340  -37.8280 C.3   134  ARG134      0.0348
     73  CG       -40.2300   35.2540  -39.3230 C.3   134  ARG134      0.0492
     74  CD       -41.5550   35.2490  -40.0860 C.3   134  ARG134      0.2205
     75  NE       -42.4820   36.2870  -39.6410 N.pl3 134  ARG134     -0.0865
     76  CZ       -43.2200   37.0400  -40.4540 C.cat 134  ARG134      0.5346
     77  NH1      -43.1390   36.9050  -41.7710 N.pl3 134  ARG134      0.1354
     78  NH2      -44.0380   37.9400  -39.9450 N.pl3 134  ARG134      0.1354
     79  N        -38.8310   36.9220  -35.4530 N.am  135  THR135     -0.1951
     80  CA       -38.9090   37.5680  -34.1410 C.3   135  THR135      0.1897
     81  C        -40.3400   37.9440  -33.7510 C.2   135  THR135      0.2313
     82  O        -40.6160   38.1980  -32.5830 O.2   135  THR135     -0.2863
     83  CB       -37.9910   38.8140  -34.0410 C.3   135  THR135      0.1794
     84  OG1      -38.2880   39.7370  -35.1050 O.3   135  THR135     -0.2208
     85  CG2      -36.5200   38.3930  -34.1150 C.3   135  THR135      0.0378
     86  N        -43.2500   36.0370  -34.6040 N.3   137  LEU137     -0.1231
     87  CA       -44.1590   34.9030  -34.4590 C.3   137  LEU137      0.1693
     88  C        -43.6440   33.9510  -33.3950 C.2   137  LEU137      0.2592
     89  O        -42.4540   33.6540  -33.3520 O.2   137  LEU137     -0.2718
     90  CB       -44.3590   34.1700  -35.7940 C.3   137  LEU137      0.0284
     91  CG       -44.9350   35.0270  -36.9210 C.3   137  LEU137      0.0019
     92  CD1      -45.1710   34.1960  -38.1710 C.3   137  LEU137      0.0001
     93  CD2      -46.2230   35.7040  -36.4860 C.3   137  LEU137      0.0001
     94  N        -44.5460   33.4760  -32.5380 N.am  138  ASP138     -0.1974
     95  CA       -44.1640   32.6430  -31.3910 C.3   138  ASP138      0.1709
     96  C        -44.6160   31.1930  -31.5400 C.2   138  ASP138      0.2293
     97  O        -44.0240   30.2820  -30.9600 O.2   138  ASP138     -0.2864
     98  CB       -44.7440   33.2170  -30.0950 C.3   138  ASP138      0.1436
     99  CG       -44.2530   34.6260  -29.8050 C.2   138  ASP138      0.3671
    100  OD1      -43.0830   34.9310  -30.1210 O.co2 138  ASP138     -0.2456
    101  OD2      -45.0370   35.4310  -29.2590 O.co2 138  ASP138     -0.2456
@<TRIPOS>BOND
     1     3     2    1
     2     3     4    2
     3    11    10    2
     4     2     1    1
     5     2     5    1
     6     1     7    1
     7     8     9    1
     8    31    29   am
     9    10     9    1
    10    22    21    2
    11     9    12    1
    12    29    30    2
    13    29    28    1
    14     5     6    1
    15     7     6    1
    16    28    27    1
    17    19    20    1
    18    27    24    1
    19    21    20    1
    20    21    23   am
    21    12    13    1
    22    24    23    1
    23    24    25    1
    24    15    13   ar
    25    15    17   ar
    26    13    14   ar
    27    25    26    2
    28    47    48    2
    29    47    46    1
    30    77    76    1
    31    17    18   ar
    32    14    16   ar
    33    46    45    1
    34    46    49    1
    35    43    42    2
    36    44    41    1
    37    18    16   ar
    38    76    78    1
    39    76    75    2
    40    42    45   am
    41    42    41    1
    42    74    75    1
    43    74    73    1
    44    41    40    1
    45    40    34   am
    46    73    72    1
    47    63    65   ar
    48    63    61   ar
    49    53    52    2
    50    65    66   ar
    51    34    33    1
    52    34    35    2
    53    92    91    1
    54    33    32    1
    55    33    36    1
    56    60    61    1
    57    60    57    1
    58    59    58    2
    59    61    62   ar
    60    39    37    1
    61    72    69    1
    62    66    67    1
    63    66    64   ar
    64    52    51    1
    65    58    57    1
    66    58    68   am
    67    56    57    1
    68    36    37    1
    69    69    68    1
    70    69    70    1
    71    62    64   ar
    72    91    93    1
    73    91    90    1
    74    37    38    1
    75    50    51    1
    76    51    54    1
    77    90    87    1
    78    70    79   am
    79    70    71    2
    80    54    55    1
    81    79    80    1
    82    84    83    1
    83    86    87    1
    84    87    88    1
    85    80    83    1
    86    80    81    1
    87    85    83    1
    88    81    82    2
    89    88    89    2
    90    88    94   am
    91    94    95    1
    92    96    95    1
    93    96    97    2
    94    95    98    1
    95   100    99   ar
    96    98    99    1
    97    99   101   ar
