@<TRIPOS>MOLECULE
tmp/3rbhB05.pdb
 91 89 0 0 0
SMALL
GASTEIGER

@<TRIPOS>ATOM
      1  N        -11.4100   26.9490    1.7800 N.3   257  ILE257     -0.1245
      2  CA       -11.3260   27.4690    3.1330 C.3   257  ILE257      0.1561
      3  C        -12.7420   27.7780    3.5950 C.2   257  ILE257      0.2260
      4  O        -13.1990   27.2750    4.6200 O.2   257  ILE257     -0.2867
      5  CB       -10.3710   28.6970    3.1920 C.3   257  ILE257      0.0252
      6  CG1       -8.9580   28.2640    2.8020 C.3   257  ILE257      0.0019
      7  CG2      -10.3730   29.3510    4.5640 C.3   257  ILE257      0.0019
      8  CD1       -8.0100   29.4190    2.4340 C.3   257  ILE257      0.0001
      9  N        -13.0620   31.8000   -0.3160 N.3   261  TRP261     -0.1227
     10  CA       -11.5980   31.7070   -0.3520 C.3   261  TRP261      0.1737
     11  C        -11.0770   30.2850   -0.4690 C.2   261  TRP261      0.2595
     12  O        -11.5480   29.3920    0.2350 O.2   261  TRP261     -0.2718
     13  CB       -10.9810   32.3350    0.9020 C.3   261  TRP261      0.0564
     14  CG       -11.1330   33.8100    0.9980 C.ar  261  TRP261      0.0003
     15  CD1      -12.0680   34.4950    1.7270 C.ar  261  TRP261      0.0946
     16  CD2      -10.3290   34.8000    0.3500 C.ar  261  TRP261      0.0152
     17  NE1      -11.8830   35.8340    1.5830 N.ar  261  TRP261     -0.2442
     18  CE2      -10.8230   36.0540    0.7430 C.ar  261  TRP261      0.0810
     19  CE3       -9.2370   34.7450   -0.5270 C.ar  261  TRP261      0.0012
     20  CZ2      -10.2690   37.2470    0.2930 C.ar  261  TRP261      0.0191
     21  CZ3       -8.6800   35.9300   -0.9700 C.ar  261  TRP261      0.0001
     22  CH2       -9.1980   37.1670   -0.5580 C.ar  261  TRP261      0.0015
     23  N        -10.0600   30.0970   -1.3140 N.am  262  LYS262     -0.1966
     24  CA        -9.4990   28.7740   -1.5760 C.3   262  LYS262      0.1728
     25  C         -7.9880   28.8630   -1.7330 C.2   262  LYS262      0.2616
     26  O         -7.4620   29.8840   -2.1640 O.2   262  LYS262     -0.2715
     27  CB       -10.1170   28.1990   -2.8720 C.3   262  LYS262      0.0311
     28  CG       -11.6400   28.1300   -2.8310 C.3   262  LYS262      0.0038
     29  CD       -12.2730   27.5250   -4.0860 C.3   262  LYS262      0.0206
     30  CE       -13.7550   27.2380   -3.8330 C.3   262  LYS262      0.1093
     31  NZ       -14.5470   27.0110   -5.0860 N.3   262  LYS262     -0.1314
     32  N         -7.2920   27.7780   -1.4130 N.am  263  ALA263     -0.1963
     33  CA        -5.8490   27.7130   -1.6030 C.3   263  ALA263      0.1728
     34  C         -5.4570   26.2740   -1.8940 C.2   263  ALA263      0.2616
     35  O         -6.1490   25.3450   -1.4800 O.2   263  ALA263     -0.2715
     36  CB        -5.1330   28.2130   -0.3740 C.3   263  ALA263      0.0334
     37  N         -4.3460   26.0860   -2.5910 N.am  264  GLY264     -0.1955
     38  CA        -3.9790   24.7580   -3.0180 C.3   264  GLY264      0.1869
     39  C         -2.5560   24.6970   -3.5270 C.2   264  GLY264      0.2309
     40  O         -1.8990   25.7140   -3.7000 O.2   264  GLY264     -0.2863
     41  N          1.6330   26.8220   -6.5760 N.3   319  LEU319     -0.1231
     42  CA         0.9630   27.3310   -5.3870 C.3   319  LEU319      0.1693
     43  C         -0.1530   28.2030   -5.8840 C.2   319  LEU319      0.2592
     44  O          0.0360   28.9350   -6.8670 O.2   319  LEU319     -0.2718
     45  CB         1.9230   28.2280   -4.5930 C.3   319  LEU319      0.0284
     46  CG         2.7070   27.6560   -3.4170 C.3   319  LEU319      0.0019
     47  CD1        2.9310   26.1680   -3.4800 C.3   319  LEU319      0.0001
     48  CD2        4.0060   28.4290   -3.1730 C.3   319  LEU319      0.0001
     49  N         -1.3040   28.1900   -5.2190 N.am  320  PHE320     -0.1962
     50  CA        -2.3540   29.1060   -5.6860 C.3   320  PHE320      0.1771
     51  C         -3.3670   29.5150   -4.6330 C.2   320  PHE320      0.2620
     52  O         -3.6540   28.7670   -3.7070 O.2   320  PHE320     -0.2715
     53  CB        -3.0800   28.5230   -6.9130 C.3   320  PHE320      0.0574
     54  CG        -3.8880   27.3000   -6.6120 C.ar  320  PHE320     -0.0200
     55  CD1       -3.3540   26.0340   -6.8050 C.ar  320  PHE320     -0.0042
     56  CD2       -5.2000   27.4070   -6.1520 C.ar  320  PHE320     -0.0042
     57  CE1       -4.1110   24.8800   -6.5340 C.ar  320  PHE320     -0.0003
     58  CE2       -5.9660   26.2600   -5.8830 C.ar  320  PHE320     -0.0003
     59  CZ        -5.4180   24.9970   -6.0720 C.ar  320  PHE320     -0.0000
     60  N         -3.8950   30.7210   -4.7900 N.am  321  GLY321     -0.1954
     61  CA        -5.0730   31.1430   -4.0620 C.3   321  GLY321      0.1869
     62  C         -6.1330   31.6000   -5.0670 C.2   321  GLY321      0.2309
     63  O         -5.8390   32.0100   -6.2090 O.2   321  GLY321     -0.2863
     64  N         -4.8050   33.6240   -8.1320 N.3   333  LEU333     -0.1245
     65  CA        -3.4040   34.0210   -8.1070 C.3   333  LEU333      0.1561
     66  C         -2.5950   32.7320   -8.0490 C.2   333  LEU333      0.2260
     67  O         -2.8630   31.8730   -7.2300 O.2   333  LEU333     -0.2867
     68  CB        -3.1210   34.9010   -6.8970 C.3   333  LEU333      0.0270
     69  CG        -1.7180   35.4940   -6.8570 C.3   333  LEU333      0.0019
     70  CD1       -1.5650   36.5270   -7.9550 C.3   333  LEU333      0.0001
     71  CD2       -1.4370   36.1080   -5.4650 C.3   333  LEU333      0.0001
     72  N          1.3090   30.6740   -8.5890 N.3   335  TYR335     -0.1241
     73  CA         2.7710   30.7630   -8.6810 C.3   335  TYR335      0.1605
     74  C          3.3440   29.4340   -9.1620 C.2   335  TYR335      0.2264
     75  O          2.9450   28.3790   -8.6900 O.2   335  TYR335     -0.2867
     76  CB         3.3960   31.1560   -7.3320 C.3   335  TYR335      0.0534
     77  CG         4.8980   30.9560   -7.3160 C.ar  335  TYR335     -0.0201
     78  CD1        5.7470   31.8360   -7.9840 C.ar  335  TYR335     -0.0009
     79  CD2        5.4640   29.8630   -6.6780 C.ar  335  TYR335     -0.0009
     80  CE1        7.1210   31.6400   -7.9920 C.ar  335  TYR335      0.0417
     81  CE2        6.8410   29.6570   -6.6860 C.ar  335  TYR335      0.0417
     82  CZ         7.6560   30.5510   -7.3370 C.ar  335  TYR335      0.1957
     83  OH         9.0050   30.3510   -7.3610 O.3   335  TYR335     -0.2866
     84  N          4.2580   34.0380  -12.3200 N.3   367  LEU367     -0.1245
     85  CA         3.1700   34.4410  -11.4530 C.3   367  LEU367      0.1561
     86  C          2.0100   34.7680  -12.3750 C.2   367  LEU367      0.2260
     87  O          2.1860   35.4770  -13.3600 O.2   367  LEU367     -0.2867
     88  CB         3.5890   35.6680  -10.6260 C.3   367  LEU367      0.0270
     89  CG         2.5390   36.2050   -9.6560 C.3   367  LEU367      0.0019
     90  CD1        2.4160   35.2240   -8.5280 C.3   367  LEU367      0.0001
     91  CD2        2.9240   37.5880   -9.1410 C.3   367  LEU367      0.0001
@<TRIPOS>BOND
     1    87    86    2
     2    86    85    1
     3    84    85    1
     4    85    88    1
     5    88    89    1
     6    89    91    1
     7    89    90    1
     8    74    75    2
     9    74    73    1
    10    73    72    1
    11    73    76    1
    12    64    65    1
    13    65    66    1
    14    65    68    1
    15    66    67    2
    16    80    78   ar
    17    80    82   ar
    18    78    77   ar
    19    70    69    1
    20    83    82    1
    21    82    81   ar
    22    76    77    1
    23    77    79   ar
    24    53    54    1
    25    53    50    1
    26    68    69    1
    27    44    43    2
    28    69    71    1
    29    55    54   ar
    30    55    57   ar
    31    81    79   ar
    32    54    56   ar
    33    41    42    1
    34    57    59   ar
    35    63    62    2
    36    56    58   ar
    37    59    58   ar
    38    43    42    1
    39    43    49   am
    40    50    49    1
    41    50    51    1
    42    42    45    1
    43    31    30    1
    44    62    61    1
    45    60    51   am
    46    60    61    1
    47    51    52    2
    48    45    46    1
    49    29    30    1
    50    29    28    1
    51    40    39    2
    52    39    38    1
    53    47    46    1
    54    46    48    1
    55    38    37    1
    56    27    28    1
    57    27    24    1
    58    37    34   am
    59    26    25    2
    60    34    33    1
    61    34    35    2
    62    25    24    1
    63    25    32   am
    64    33    32    1
    65    33    36    1
    66    24    23    1
    67    23    11   am
    68    21    22   ar
    69    21    19   ar
    70    22    20   ar
    71    19    16   ar
    72    11    10    1
    73    11    12    2
    74    10     9    1
    75    10    13    1
    76    20    18   ar
    77    16    18   ar
    78    16    14   ar
    79    18    17   ar
    80    13    14    1
    81    14    15   ar
    82    17    15   ar
    83     1     2    1
    84     8     6    1
    85     6     5    1
    86     2     5    1
    87     2     3    1
    88     5     7    1
    89     3     4    2
