@<TRIPOS>MOLECULE
tmp/3rbmB00.pdb
 238 224 0 0 0
SMALL
GASTEIGER

@<TRIPOS>ATOM
      1  N        -26.0170   17.5890   14.9260 N.3    51  ARG51      -0.1245
      2  CA       -24.9340   17.3620   13.9860 C.3    51  ARG51       0.1563
      3  C        -24.2680   18.6820   13.5440 C.2    51  ARG51       0.2260
      4  O        -23.0310   18.8160   13.6140 O.2    51  ARG51      -0.2867
      5  CB       -25.4370   16.5450   12.8030 C.3    51  ARG51       0.0307
      6  CG       -26.0310   15.2020   13.2030 C.3    51  ARG51       0.0489
      7  CD       -26.7970   14.5690   12.0470 C.3    51  ARG51       0.2205
      8  NE       -27.4060   13.2970   12.4480 N.pl3  51  ARG51      -0.0865
      9  CZ       -28.5450   13.1980   13.1310 C.cat  51  ARG51       0.5346
     10  NH1      -29.2360   14.2790   13.4500 N.pl3  51  ARG51       0.1354
     11  NH2      -28.9490   12.0240   13.5730 N.pl3  51  ARG51       0.1354
     12  N        -32.1990   12.8750    4.2910 N.3    88  PHE88      -0.1227
     13  CA       -32.2480   11.4940    4.7660 C.3    88  PHE88       0.1736
     14  C        -33.6230   11.2340    5.3630 C.2    88  PHE88       0.2595
     15  O        -34.1990   10.1710    5.1830 O.2    88  PHE88      -0.2718
     16  CB       -31.1540   11.2160    5.8080 C.3    88  PHE88       0.0547
     17  CG       -29.7730   11.0280    5.2230 C.ar   88  PHE88      -0.0202
     18  CD1      -29.6050   10.6910    3.8990 C.ar   88  PHE88      -0.0042
     19  CD2      -28.6350   11.1690    6.0210 C.ar   88  PHE88      -0.0042
     20  CE1      -28.3320   10.5110    3.3750 C.ar   88  PHE88      -0.0003
     21  CE2      -27.3680   11.0090    5.4920 C.ar   88  PHE88      -0.0003
     22  CZ       -27.2220   10.7030    4.1540 C.ar   88  PHE88      -0.0000
     23  N        -34.1600   12.2400    6.0370 N.am   89  LEU89      -0.1980
     24  CA       -35.4130   12.1100    6.7570 C.3    89  LEU89       0.1596
     25  C        -36.5850   12.0540    5.7800 C.2    89  LEU89       0.2287
     26  O        -37.4590   11.1930    5.8970 O.2    89  LEU89      -0.2864
     27  CB       -35.5890   13.2710    7.7370 C.3    89  LEU89       0.0297
     28  CG       -35.2760   13.0180    9.2200 C.3    89  LEU89       0.0022
     29  CD1      -34.1700   11.9780    9.4320 C.3    89  LEU89       0.0001
     30  CD2      -35.0080   14.3060    9.9850 C.3    89  LEU89       0.0001
     31  N        -36.4540   10.9800    2.8320 N.3    91  ALA91      -0.1231
     32  CA       -36.3380    9.6840    2.2330 C.3    91  ALA91       0.1694
     33  C        -36.7310    8.5910    3.2190 C.2    91  ALA91       0.2592
     34  O        -37.5060    7.6990    2.8610 O.2    91  ALA91      -0.2718
     35  CB       -34.9420    9.4700    1.7180 C.3    91  ALA91       0.0304
     36  N        -36.2480    8.6710    4.4620 N.am   92  ASP92      -0.1960
     37  CA       -36.6080    7.6570    5.4740 C.3    92  ASP92       0.1840
     38  C        -38.1270    7.5010    5.6060 C.2    92  ASP92       0.2622
     39  O        -38.6380    6.4020    5.8130 O.2    92  ASP92      -0.2715
     40  CB       -36.0250    7.9720    6.8620 C.3    92  ASP92       0.1450
     41  CG       -36.2260    6.8180    7.8590 C.2    92  ASP92       0.3671
     42  OD1      -35.7310    5.7180    7.5420 O.co2  92  ASP92      -0.2456
     43  OD2      -36.9360    6.9600    8.9000 O.co2  92  ASP92      -0.2456
     44  N        -38.8060    8.6360    5.6930 N.am   93  ASP93      -0.1957
     45  CA       -40.2180    8.6510    5.9490 C.3    93  ASP93       0.1840
     46  C        -40.9830    8.0550    4.7710 C.2    93  ASP93       0.2622
     47  O        -41.9440    7.3180    4.9600 O.2    93  ASP93      -0.2715
     48  CB       -40.6750   10.0690    6.2540 C.3    93  ASP93       0.1450
     49  CG       -40.3330   10.5100    7.6830 C.2    93  ASP93       0.3671
     50  OD1      -40.1630    9.6520    8.5770 O.co2  93  ASP93      -0.2456
     51  OD2      -40.3300   11.7310    7.9350 O.co2  93  ASP93      -0.2456
     52  N        -40.4410    8.1870    3.5730 N.am   94  ILE94      -0.1963
     53  CA       -41.0330    7.4560    2.4790 C.3    94  ILE94       0.1727
     54  C        -40.8460    5.9680    2.7230 C.2    94  ILE94       0.2616
     55  O        -41.8060    5.2050    2.6980 O.2    94  ILE94      -0.2715
     56  CB       -40.4520    7.8450    1.1120 C.3    94  ILE94       0.0290
     57  CG1      -40.7240    9.3250    0.8110 C.3    94  ILE94       0.0022
     58  CG2      -41.0330    6.9690    0.0350 C.3    94  ILE94       0.0023
     59  CD1      -40.0700    9.8150   -0.4730 C.3    94  ILE94       0.0001
     60  N        -39.6210    5.5650    3.0190 N.am   95  MET95      -0.1963
     61  CA       -39.3080    4.1600    3.1800 C.3    95  MET95       0.1736
     62  C        -40.0350    3.5140    4.3610 C.2    95  MET95       0.2616
     63  O        -40.4140    2.3450    4.2980 O.2    95  MET95      -0.2715
     64  CB       -37.7970    3.9740    3.2760 C.3    95  MET95       0.0427
     65  CG       -37.1010    4.3920    1.9810 C.3    95  MET95       0.0599
     66  SD       -35.2880    4.2920    1.9140 S.3    95  MET95      -0.1393
     67  CE       -35.0500    2.7110    2.7040 C.3    95  MET95       0.0692
     68  N        -40.2800    4.3000    5.4070 N.am   96  ASP96      -0.1971
     69  CA       -40.7850    3.7800    6.6700 C.3    96  ASP96       0.1709
     70  C        -42.2720    4.1740    6.8620 C.2    96  ASP96       0.2293
     71  O        -42.8520    3.9220    7.9030 O.2    96  ASP96      -0.2864
     72  CB       -39.9350    4.2740    7.8520 C.3    96  ASP96       0.1436
     73  CG       -38.4920    3.7370    7.8440 C.2    96  ASP96       0.3671
     74  OD1      -38.2240    2.7050    7.2000 O.co2  96  ASP96      -0.2456
     75  OD2      -37.6350    4.2990    8.5750 O.co2  96  ASP96      -0.2456
     76  N        -43.2620   14.0140   11.4420 N.3   101  ARG101     -0.1245
     77  CA       -41.8500   14.3140   11.5610 C.3   101  ARG101      0.1563
     78  C        -41.6780   15.7130   12.1260 C.2   101  ARG101      0.2260
     79  O        -41.9910   16.6870   11.4420 O.2   101  ARG101     -0.2867
     80  CB       -41.1930   14.2440   10.1910 C.3   101  ARG101      0.0307
     81  CG       -39.7130   14.5220   10.2190 C.3   101  ARG101      0.0489
     82  CD       -38.9620   13.2370    9.9900 C.3   101  ARG101      0.2205
     83  NE       -38.4700   12.6430   11.2180 N.pl3 101  ARG101     -0.0865
     84  CZ       -38.0320   11.3920   11.3110 C.cat 101  ARG101      0.5346
     85  NH1      -38.1390   10.5740   10.2820 N.pl3 101  ARG101      0.1354
     86  NH2      -37.4980   10.9550   12.4380 N.pl3 101  ARG101      0.1354
     87  N        -39.2310   12.3330   -3.7000 N.3   119  VAL119     -0.1245
     88  CA       -38.0980   11.5900   -4.1870 C.3   119  VAL119      0.1561
     89  C        -37.1900   12.5060   -4.9790 C.2   119  VAL119      0.2260
     90  O        -36.0050   12.5850   -4.6920 O.2   119  VAL119     -0.2867
     91  CB       -38.5360   10.4110   -5.0520 C.3   119  VAL119      0.0252
     92  CG1      -37.3550    9.8900   -5.8940 C.3   119  VAL119      0.0019
     93  CG2      -39.1080    9.3110   -4.1570 C.3   119  VAL119      0.0019
     94  N        -35.4370   15.0170   -2.6000 N.3   122  VAL122     -0.1231
     95  CA       -34.3040   14.4830   -1.8750 C.3   122  VAL122      0.1692
     96  C        -32.9730   14.6230   -2.6110 C.2   122  VAL122      0.2591
     97  O        -31.9680   15.0030   -2.0000 O.2   122  VAL122     -0.2718
     98  CB       -34.5220   13.0060   -1.4570 C.3   122  VAL122      0.0266
     99  CG1      -33.2070   12.3710   -1.0200 C.3   122  VAL122      0.0020
    100  CG2      -35.5850   12.9090   -0.3350 C.3   122  VAL122      0.0020
    101  N        -32.9560   14.2730   -3.8960 N.am  123  LEU123     -0.1980
    102  CA       -31.7450   14.3710   -4.7010 C.3   123  LEU123      0.1596
    103  C        -31.3660   15.8360   -4.8270 C.2   123  LEU123      0.2287
    104  O        -30.1740   16.1810   -4.8290 O.2   123  LEU123     -0.2864
    105  CB       -31.9520   13.7950   -6.1120 C.3   123  LEU123      0.0297
    106  CG       -30.8090   13.0580   -6.8640 C.3   123  LEU123      0.0022
    107  CD1      -30.7410   13.3790   -8.3540 C.3   123  LEU123      0.0001
    108  CD2      -29.4280   13.1390   -6.2310 C.3   123  LEU123      0.0001
    109  N        -24.1910    5.4280    4.7080 N.3   157  THR157     -0.1203
    110  CA       -25.5590    5.6000    5.1340 C.3   157  THR157      0.1994
    111  C        -26.5320    4.8640    4.2310 C.2   157  THR157      0.2617
    112  O        -27.4040    4.1600    4.7190 O.2   157  THR157     -0.2717
    113  CB       -25.9420    7.0930    5.2180 C.3   157  THR157      0.1784
    114  OG1      -24.9900    7.7840    6.0270 O.3   157  THR157     -0.2211
    115  CG2      -27.2900    7.2640    5.8500 C.3   157  THR157      0.0376
    116  N        -26.3100    4.9190    2.9240 N.am  158  ILE158     -0.1979
    117  CA       -27.1890    4.2420    1.9910 C.3   158  ILE158      0.1595
    118  C        -27.1490    2.7300    2.1770 C.2   158  ILE158      0.2287
    119  O        -28.1770    2.0570    2.1170 O.2   158  ILE158     -0.2864
    120  CB       -26.8770    4.6450    0.5250 C.3   158  ILE158      0.0276
    121  CG1      -27.3040    6.0920    0.2750 C.3   158  ILE158      0.0022
    122  CG2      -27.5850    3.7360   -0.4870 C.3   158  ILE158      0.0022
    123  CD1      -26.6480    6.7320   -0.9600 C.3   158  ILE158      0.0001
    124  N        -28.9870    1.8040    5.1850 N.3   161  GLN161     -0.1245
    125  CA       -30.4140    1.9330    4.9720 C.3   161  GLN161      0.1566
    126  C        -30.9200    0.7000    4.2180 C.2   161  GLN161      0.2260
    127  O        -31.9460    0.1150    4.5930 O.2   161  GLN161     -0.2867
    128  CB       -30.6980    3.2220    4.2100 C.3   161  GLN161      0.0367
    129  CG       -32.1560    3.5930    4.0890 C.3   161  GLN161      0.0905
    130  CD       -32.7590    4.1370    5.3730 C.2   161  GLN161      0.2608
    131  OE1      -32.1490    4.0870    6.4560 O.2   161  GLN161     -0.2717
    132  NE2      -33.9890    4.5910    5.2720 N.am  161  GLN161     -0.0878
    133  N        -31.0430   -2.0410    6.7770 N.3   164  ASP164     -0.1239
    134  CA       -32.1460   -1.7720    7.7080 C.3   164  ASP164      0.1674
    135  C        -33.4840   -2.1880    7.0900 C.2   164  ASP164      0.2266
    136  O        -34.3910   -2.6270    7.7910 O.2   164  ASP164     -0.2867
    137  CB       -32.1690   -0.2920    8.0980 C.3   164  ASP164      0.1410
    138  CG       -33.5260    0.1580    8.6300 C.2   164  ASP164      0.3668
    139  OD1      -33.6260    0.3930    9.8560 O.co2 164  ASP164     -0.2456
    140  OD2      -34.4780    0.3300    7.8150 O.co2 164  ASP164     -0.2456
    141  N        -26.0340    3.1850    9.0220 N.3   209  LYS209     -0.1231
    142  CA       -27.1720    4.0430    8.7080 C.3   209  LYS209      0.1693
    143  C        -27.1790    5.2670    9.6050 C.2   209  LYS209      0.2592
    144  O        -27.8960    6.2430    9.3370 O.2   209  LYS209     -0.2718
    145  CB       -28.5100    3.2760    8.7930 C.3   209  LYS209      0.0285
    146  CG       -28.9870    3.0050   10.2040 C.3   209  LYS209      0.0035
    147  CD       -30.4710    2.7390   10.2560 C.3   209  LYS209      0.0206
    148  CE       -30.9160    2.3270   11.6490 C.3   209  LYS209      0.1093
    149  NZ       -32.3910    2.3510   11.7630 N.3   209  LYS209     -0.1314
    150  N        -26.3750    5.2300   10.6620 N.am  210  THR210     -0.1953
    151  CA       -26.4200    6.2980   11.6560 C.3   210  THR210      0.1897
    152  C        -25.0910    6.9350   12.0600 C.2   210  THR210      0.2313
    153  O        -25.0030    8.1550   12.1560 O.2   210  THR210     -0.2863
    154  CB       -27.2150    5.8880   12.8790 C.3   210  THR210      0.1794
    155  OG1      -28.5710    5.6720   12.4840 O.3   210  THR210     -0.2208
    156  CG2      -27.1920    6.9870   13.9140 C.3   210  THR210      0.0378
    157  N        -22.6820    9.4290    9.3730 N.3   213  TYR213     -0.1241
    158  CA       -23.1730   10.7680    9.0240 C.3   213  TYR213      0.1605
    159  C        -23.5240   11.6130   10.2560 C.2   213  TYR213      0.2264
    160  O        -23.4280   12.8280   10.2340 O.2   213  TYR213     -0.2867
    161  CB       -24.3510   10.6760    8.0450 C.3   213  TYR213      0.0534
    162  CG       -25.7070   10.7480    8.7000 C.ar  213  TYR213     -0.0201
    163  CD1      -26.3520   11.9600    8.8600 C.ar  213  TYR213     -0.0009
    164  CD2      -26.3820    9.5930    9.0590 C.ar  213  TYR213     -0.0009
    165  CE1      -27.6150   12.0160    9.3770 C.ar  213  TYR213      0.0417
    166  CE2      -27.6470    9.6340    9.5660 C.ar  213  TYR213      0.0417
    167  CZ       -28.2600   10.8440    9.7360 C.ar  213  TYR213      0.1957
    168  OH       -29.5090   10.9060   10.2850 O.3   213  TYR213     -0.2866
    169  N        -26.4870    6.1110   19.9940 N.3   249  PHE249     -0.1227
    170  CA       -27.5660    6.9690   19.5820 C.3   249  PHE249      0.1736
    171  C        -28.7560    6.1640   19.0580 C.2   249  PHE249      0.2595
    172  O        -29.9050    6.4530   19.4090 O.2   249  PHE249     -0.2718
    173  CB       -27.0700    7.9780   18.5490 C.3   249  PHE249      0.0547
    174  CG       -28.0710    9.0130   18.1940 C.ar  249  PHE249     -0.0202
    175  CD1      -28.3100   10.0860   19.0290 C.ar  249  PHE249     -0.0042
    176  CD2      -28.7970    8.9110   17.0220 C.ar  249  PHE249     -0.0042
    177  CE1      -29.2300   11.0820   18.6720 C.ar  249  PHE249     -0.0003
    178  CE2      -29.7250    9.8910   16.6730 C.ar  249  PHE249     -0.0003
    179  CZ       -29.9570   10.9620   17.5180 C.ar  249  PHE249     -0.0000
    180  N        -28.4940    5.1860   18.1920 N.am  250  GLN250     -0.1979
    181  CA       -29.5860    4.4740   17.5120 C.3   250  GLN250      0.1601
    182  C        -30.3870    3.6190   18.4720 C.2   250  GLN250      0.2287
    183  O        -31.6220    3.5780   18.4010 O.2   250  GLN250     -0.2864
    184  CB       -29.0790    3.5870   16.3810 C.3   250  GLN250      0.0394
    185  CG       -30.1990    3.0140   15.5400 C.3   250  GLN250      0.0908
    186  CD       -31.1160    4.0950   14.9950 C.2   250  GLN250      0.2608
    187  OE1      -30.6490    5.1130   14.4850 O.2   250  GLN250     -0.2717
    188  NE2      -32.4250    3.9020   15.1480 N.am  250  GLN250     -0.0878
    189  N        -32.7570    5.6150   19.9300 N.3   253  ASP253     -0.1225
    190  CA       -33.8210    5.9180   18.9800 C.3   253  ASP253      0.1805
    191  C        -34.8060    4.7530   18.9460 C.2   253  ASP253      0.2597
    192  O        -36.0100    4.9500   18.8730 O.2   253  ASP253     -0.2718
    193  CB       -33.2460    6.1750   17.5750 C.3   253  ASP253      0.1424
    194  CG       -34.3170    6.6210   16.5730 C.2   253  ASP253      0.3668
    195  OD1      -34.7200    5.7950   15.7050 O.co2 253  ASP253     -0.2456
    196  OD2      -34.8330    7.7590   16.7240 O.co2 253  ASP253     -0.2456
    197  N        -34.2780    3.5350   18.9160 N.am  254  ASP254     -0.1974
    198  CA       -35.1200    2.3370   18.9440 C.3   254  ASP254      0.1709
    199  C        -35.9670    2.3490   20.2200 C.2   254  ASP254      0.2293
    200  O        -37.1910    2.1540   20.1730 O.2   254  ASP254     -0.2864
    201  CB       -34.2510    1.0720   18.9070 C.3   254  ASP254      0.1436
    202  CG       -33.6590    0.8070   17.5370 C.2   254  ASP254      0.3671
    203  OD1      -32.9740   -0.2270   17.3560 O.co2 254  ASP254     -0.2456
    204  OD2      -33.9320    1.6080   16.6100 O.co2 254  ASP254     -0.2456
    205  N        -38.9140    4.6620   19.8600 N.3   257  ASP257     -0.1239
    206  CA       -39.9710    4.1320   19.0050 C.3   257  ASP257      0.1674
    207  C        -41.1000    3.4890   19.8230 C.2   257  ASP257      0.2266
    208  O        -42.2580    3.8280   19.6300 O.2   257  ASP257     -0.2867
    209  CB       -39.4020    3.1340   17.9950 C.3   257  ASP257      0.1410
    210  CG       -40.3300    2.9030   16.8080 C.2   257  ASP257      0.3668
    211  OD1      -41.0920    1.9230   16.8090 O.co2 257  ASP257     -0.2456
    212  OD2      -40.2720    3.6760   15.8310 O.co2 257  ASP257     -0.2456
    213  N        -42.6630   12.3390   16.2630 N.3   267  LYS267     -0.1245
    214  CA       -42.8790   11.2950   15.2660 C.3   267  LYS267      0.1561
    215  C        -43.6020   10.0840   15.8720 C.2   267  LYS267      0.2260
    216  O        -43.4330    9.7860   17.0560 O.2   267  LYS267     -0.2867
    217  CB       -41.5300   10.8560   14.6750 C.3   267  LYS267      0.0271
    218  CG       -40.5210   10.4190   15.7180 C.3   267  LYS267      0.0035
    219  CD       -39.1600   10.2080   15.1300 C.3   267  LYS267      0.0206
    220  CE       -38.1970    9.6910   16.1780 C.3   267  LYS267      0.1093
    221  NZ       -36.9360    9.1820   15.5950 N.3   267  LYS267     -0.1314
    222  N        -41.5620    0.6650   14.2270 N.3   271  ASP271     -0.1239
    223  CA       -40.5650   -0.3800   14.0110 C.3   271  ASP271      0.1674
    224  C        -41.1590   -1.7830   13.9930 C.2   271  ASP271      0.2266
    225  O        -40.7280   -2.6310   13.1860 O.2   271  ASP271     -0.2867
    226  CB       -39.4770   -0.3210   15.0800 C.3   271  ASP271      0.1410
    227  CG       -38.5840    0.8600   14.9140 C.2   271  ASP271      0.3668
    228  OD1      -38.6760    1.5130   13.8560 O.co2 271  ASP271     -0.2456
    229  OD2      -37.8280    1.1730   15.8480 O.co2 271  ASP271     -0.2456
    230  N        -38.7340   -4.1020   11.6600 N.3   276  LYS276     -0.1245
    231  CA       -37.3650   -3.6260   11.7690 C.3   276  LYS276      0.1561
    232  C        -36.5680   -4.4540   12.7740 C.2   276  LYS276      0.2260
    233  O        -37.0970   -4.8390   13.8250 O.2   276  LYS276     -0.2867
    234  CB       -37.3610   -2.1570   12.1930 C.3   276  LYS276      0.0271
    235  CG       -38.0620   -1.2400   11.1990 C.3   276  LYS276      0.0035
    236  CD       -37.2020   -1.0450    9.9640 C.3   276  LYS276      0.0206
    237  CE       -37.7840    0.0020    9.0330 C.3   276  LYS276      0.1093
    238  NZ       -37.3880   -0.3160    7.6320 N.3   276  LYS276     -0.1314
@<TRIPOS>BOND
     1   107   106    1
     2   106   108    1
     3   106   105    1
     4   105   102    1
     5    92    91    1
     6    91    88    1
     7    91    93    1
     8    89    90    2
     9    89    88    1
    10   104   103    2
    11   103   102    1
    12   102   101    1
    13    88    87    1
    14   101    96   am
    15    96    97    2
    16    96    95    1
    17    94    95    1
    18    95    98    1
    19    98    99    1
    20    98   100    1
    21   123   121    1
    22   122   120    1
    23    59    57    1
    24    58    56    1
    25   121   120    1
    26   120   117    1
    27    57    56    1
    28    56    53    1
    29    35    32    1
    30    66    65    1
    31    66    67    1
    32    65    64    1
    33   117   118    1
    34   117   116    1
    35   119   118    2
    36    32    31    1
    37    32    33    1
    38    53    54    1
    39    53    52    1
    40    55    54    2
    41    54    60   am
    42    34    33    2
    43   116   111   am
    44    60    61    1
    45    61    64    1
    46    61    62    1
    47    33    36   am
    48    20    18   ar
    49    20    22   ar
    50    52    46   am
    51    18    17   ar
    52   129   128    1
    53   129   130    1
    54    22    21   ar
    55   128   125    1
    56   126   127    2
    57   126   125    1
    58   111   112    2
    59   111   110    1
    60    12    13    1
    61    63    62    2
    62    62    68   am
    63    36    37    1
    64   109   110    1
    65    13    14    1
    66    13    16    1
    67    46    47    2
    68    46    45    1
    69   125   124    1
    70   110   113    1
    71    15    14    2
    72   113   115    1
    73   113   114    1
    74    17    16    1
    75    17    19   ar
    76   132   130   am
    77    14    23   am
    78   130   131    2
    79    68    69    1
    80    37    38    1
    81    37    40    1
    82    21    19   ar
    83    38    44   am
    84    38    39    2
    85    44    45    1
    86    25    26    2
    87    25    24    1
    88    45    48    1
    89    23    24    1
    90    48    49    1
    91    69    70    1
    92    69    72    1
    93    24    27    1
    94   133   134    1
    95    70    71    2
    96    40    41    1
    97   135   134    1
    98   135   136    2
    99    74    73   ar
   100    42    41   ar
   101   238   237    1
   102    49    51   ar
   103    49    50   ar
   104   134   137    1
   105    27    28    1
   106   140   138   ar
   107    73    72    1
   108    73    75   ar
   109    41    43   ar
   110   161   162    1
   111   161   158    1
   112   137   138    1
   113   138   139   ar
   114   162   163   ar
   115   162   164   ar
   116   142   145    1
   117   142   141    1
   118   142   143    1
   119   145   146    1
   120   163   165   ar
   121   158   157    1
   122   158   159    1
   123   237   236    1
   124   164   166   ar
   125    28    29    1
   126    28    30    1
   127   144   143    2
   128   165   167   ar
   129   166   167   ar
   130   143   150   am
   131   167   168    1
   132   236   235    1
   133    82    81    1
   134    82    83    1
   135    80    81    1
   136    80    77    1
   137   146   147    1
   138   160   159    2
   139   147   148    1
   140    85    84    1
   141   150   151    1
   142   235   234    1
   143    83    84    2
   144    84    86    1
   145    79    78    2
   146    76    77    1
   147    77    78    1
   148   148   149    1
   149   151   152    1
   150   151   154    1
   151   230   231    1
   152   231   234    1
   153   231   232    1
   154     7     8    1
   155     7     6    1
   156   152   153    2
   157     8     9    2
   158   155   154    1
   159   232   233    2
   160     5     6    1
   161     5     2    1
   162   154   156    1
   163     9    10    1
   164     9    11    1
   165   225   224    2
   166     3     4    2
   167     3     2    1
   168   228   227   ar
   169     2     1    1
   170   224   223    1
   171   223   222    1
   172   223   226    1
   173   187   186    2
   174   217   214    1
   175   217   218    1
   176   227   226    1
   177   227   229   ar
   178   186   188   am
   179   186   185    1
   180   219   218    1
   181   219   220    1
   182   214   215    1
   183   214   213    1
   184   185   184    1
   185   221   220    1
   186   195   194   ar
   187   212   210   ar
   188   215   216    2
   189   184   181    1
   190   194   196   ar
   191   194   193    1
   192   204   202   ar
   193   178   176   ar
   194   178   179   ar
   195   210   211   ar
   196   210   209    1
   197   176   174   ar
   198   203   202   ar
   199   181   180    1
   200   181   182    1
   201   179   177   ar
   202   202   201    1
   203   193   190    1
   204   209   206    1
   205   180   171   am
   206   174   173    1
   207   174   175   ar
   208   183   182    2
   209   173   170    1
   210   177   175   ar
   211   192   191    2
   212   201   198    1
   213   197   198    1
   214   197   191   am
   215   198   199    1
   216   191   190    1
   217   190   189    1
   218   206   207    1
   219   206   205    1
   220   171   172    2
   221   171   170    1
   222   170   169    1
   223   208   207    2
   224   200   199    2
