@<TRIPOS>MOLECULE
tmp/3rbyB00.pdb
 124 114 0 0 0
SMALL
GASTEIGER

@<TRIPOS>ATOM
      1  N         17.0440   46.7380  101.6580 N.3     4  ALA4       -0.1245
      2  CA        17.8660   45.7070  101.0480 C.3     4  ALA4        0.1562
      3  C         17.1750   45.1410   99.8190 C.2     4  ALA4        0.2260
      4  O         15.9520   44.9790   99.8140 O.2     4  ALA4       -0.2867
      5  CB        18.1690   44.6060  102.0590 C.3     4  ALA4        0.0290
      6  N         17.5970   41.7440   97.3840 N.3     6  LEU6       -0.1245
      7  CA        18.3420   40.4960   97.2680 C.3     6  LEU6        0.1561
      8  C         17.9660   39.7030   96.0130 C.2     6  LEU6        0.2260
      9  O         16.7840   39.5840   95.6730 O.2     6  LEU6       -0.2867
     10  CB        18.1640   39.6570   98.5270 C.3     6  LEU6        0.0270
     11  CG        18.4070   40.4560   99.8160 C.3     6  LEU6        0.0019
     12  CD1       17.1300   40.5030  100.6240 C.3     6  LEU6        0.0001
     13  CD2       19.5470   39.8850  100.6790 C.3     6  LEU6        0.0001
     14  N         14.0090   39.8370   96.1900 N.3    25  SER25      -0.1217
     15  CA        13.2820   40.1650   97.4130 C.3    25  SER25       0.1889
     16  C         13.6180   41.5820   97.8410 C.2    25  SER25       0.2288
     17  O         14.8050   41.9550   97.9300 O.2    25  SER25      -0.2866
     18  CB        13.6100   39.1860   98.5260 C.3    25  SER25       0.2089
     19  OG        13.1880   37.8810   98.1740 O.3    25  SER25      -0.2183
     20  N         13.2770   44.3580  100.8600 N.3    27  VAL27      -0.1245
     21  CA        12.9780   44.6480  102.2550 C.3    27  VAL27       0.1561
     22  C         13.1530   46.1600  102.4190 C.2    27  VAL27       0.2260
     23  O         14.2360   46.7060  102.1650 O.2    27  VAL27      -0.2867
     24  CB        13.8630   43.8030  103.2260 C.3    27  VAL27       0.0252
     25  CG1       13.4970   44.0620  104.7120 C.3    27  VAL27       0.0019
     26  CG2       13.6830   42.3100  102.9310 C.3    27  VAL27       0.0019
     27  N          8.0670   43.8900  103.1350 N.3    33  TYR33      -0.1241
     28  CA         8.7300   42.9830  102.2220 C.3    33  TYR33       0.1605
     29  C          7.8340   42.4620  101.1150 C.2    33  TYR33       0.2264
     30  O          6.6160   42.3520  101.2710 O.2    33  TYR33      -0.2867
     31  CB         9.3550   41.8240  103.0000 C.3    33  TYR33       0.0534
     32  CG         8.3510   40.9130  103.6840 C.ar   33  TYR33      -0.0201
     33  CD1        7.8180   39.8110  103.0160 C.ar   33  TYR33      -0.0009
     34  CD2        7.9590   41.1400  105.0020 C.ar   33  TYR33      -0.0009
     35  CE1        6.9170   38.9690  103.6280 C.ar   33  TYR33       0.0417
     36  CE2        7.0550   40.3040  105.6330 C.ar   33  TYR33       0.0417
     37  CZ         6.5370   39.2150  104.9440 C.ar   33  TYR33       0.1957
     38  OH         5.6340   38.3690  105.5660 O.3    33  TYR33      -0.2866
     39  N          8.4080   39.4620   97.7390 N.3    35  SER35      -0.1217
     40  CA         9.3120   38.6030   97.0060 C.3    35  SER35       0.1889
     41  C          8.5560   38.0460   95.8160 C.2    35  SER35       0.2288
     42  O          7.5850   37.2980   95.9880 O.2    35  SER35      -0.2866
     43  CB         9.8480   37.4780   97.9020 C.3    35  SER35       0.2089
     44  OG        10.8530   36.7190   97.2410 O.3    35  SER35      -0.2183
     45  N          5.1560   36.1980   97.4860 N.3    55  PHE55      -0.1241
     46  CA         4.6140   36.5460   98.7940 C.3    55  PHE55       0.1605
     47  C          4.9700   37.9770   99.1820 C.2    55  PHE55       0.2264
     48  O          5.8890   38.5730   98.6200 O.2    55  PHE55      -0.2867
     49  CB         5.1210   35.5720   99.8600 C.3    55  PHE55       0.0534
     50  CG         6.6060   35.6310  100.0780 C.ar   55  PHE55      -0.0203
     51  CD1        7.4310   34.6280   99.5990 C.ar   55  PHE55      -0.0042
     52  CD2        7.1760   36.6910  100.7630 C.ar   55  PHE55      -0.0042
     53  CE1        8.7970   34.6800   99.7990 C.ar   55  PHE55      -0.0003
     54  CE2        8.5420   36.7490  100.9660 C.ar   55  PHE55      -0.0003
     55  CZ         9.3540   35.7420  100.4830 C.ar   55  PHE55      -0.0000
     56  N         11.8220   39.2490  113.4520 N.3    64  ALA64      -0.1245
     57  CA        13.2550   39.2640  113.1740 C.3    64  ALA64       0.1562
     58  C         14.0550   39.2480  114.4540 C.2    64  ALA64       0.2260
     59  O         14.0320   40.2340  115.2070 O.2    64  ALA64      -0.2867
     60  CB        13.5480   40.4990  112.3040 C.3    64  ALA64       0.0290
     61  N         18.0550   38.8220  115.8030 N.3    66  ASP66      -0.1239
     62  CA        19.4950   38.5680  115.8040 C.3    66  ASP66       0.1674
     63  C         19.8150   37.5260  116.8500 C.2    66  ASP66       0.2266
     64  O         19.1490   37.4410  117.8860 O.2    66  ASP66      -0.2867
     65  CB        20.3100   39.8130  116.1650 C.3    66  ASP66       0.1410
     66  CG        20.4070   40.7990  115.0260 C.2    66  ASP66       0.3668
     67  OD1       21.5390   41.2240  114.6970 O.co2  66  ASP66      -0.2456
     68  OD2       19.3420   41.1580  114.4690 O.co2  66  ASP66      -0.2456
     69  N         20.4970   35.5930  111.9590 N.3    72  VAL72      -0.1245
     70  CA        19.2040   36.0940  112.3860 C.3    72  VAL72       0.1561
     71  C         18.1030   35.1400  111.9660 C.2    72  VAL72       0.2260
     72  O         18.1870   34.4720  110.9330 O.2    72  VAL72      -0.2867
     73  CB        18.9220   37.5260  111.8730 C.3    72  VAL72       0.0252
     74  CG1       20.1720   38.1270  111.2550 C.3    72  VAL72       0.0019
     75  CG2       17.7810   37.5230  110.8870 C.3    72  VAL72       0.0019
     76  N         14.0270   34.6290  111.0480 N.3    74  GLN74      -0.1245
     77  CA        12.9000   35.3920  110.5400 C.3    74  GLN74       0.1566
     78  C         11.7100   34.4630  110.4720 C.2    74  GLN74       0.2260
     79  O         11.7310   33.4560  109.7520 O.2    74  GLN74      -0.2867
     80  CB        13.1990   35.9610  109.1510 C.3    74  GLN74       0.0367
     81  CG        14.4190   36.8580  109.0880 C.3    74  GLN74       0.0905
     82  CD        14.4340   37.7000  107.8310 C.2    74  GLN74       0.2608
     83  OE1       13.4560   38.3840  107.5310 O.2    74  GLN74      -0.2717
     84  NE2       15.5330   37.6350  107.0720 N.am   74  GLN74      -0.0878
     85  N          7.8910   34.0580  109.4760 N.3    76  PHE76      -0.1241
     86  CA         6.9600   34.6970  108.5610 C.3    76  PHE76       0.1605
     87  C          5.5350   34.2180  108.7350 C.2    76  PHE76       0.2264
     88  O          5.2600   33.0120  108.7610 O.2    76  PHE76      -0.2867
     89  CB         7.3620   34.4150  107.1050 C.3    76  PHE76       0.0534
     90  CG         8.6710   35.0150  106.7070 C.ar   76  PHE76      -0.0203
     91  CD1        9.8550   34.3160  106.9070 C.ar   76  PHE76      -0.0042
     92  CD2        8.7200   36.2700  106.1090 C.ar   76  PHE76      -0.0042
     93  CE1       11.0800   34.8580  106.5290 C.ar   76  PHE76      -0.0003
     94  CE2        9.9400   36.8340  105.7340 C.ar   76  PHE76      -0.0003
     95  CZ        11.1280   36.1220  105.9450 C.ar   76  PHE76      -0.0000
     96  N         18.9130   32.9460  108.7370 N.3   100  TRP100     -0.1241
     97  CA        19.6820   33.6850  107.7520 C.3   100  TRP100      0.1605
     98  C         21.1040   33.9050  108.2610 C.2   100  TRP100      0.2264
     99  O         21.3110   34.6240  109.2460 O.2   100  TRP100     -0.2867
    100  CB        18.9970   35.0210  107.4760 C.3   100  TRP100      0.0550
    101  CG        17.6450   34.8370  106.8640 C.ar  100  TRP100      0.0003
    102  CD1       16.5230   34.3460  107.4780 C.ar  100  TRP100      0.0946
    103  CD2       17.2690   35.1190  105.5080 C.ar  100  TRP100      0.0152
    104  NE1       15.4750   34.3150  106.5860 N.ar  100  TRP100     -0.2442
    105  CE2       15.9070   34.7840  105.3720 C.ar  100  TRP100      0.0810
    106  CE3       17.9530   35.6220  104.3960 C.ar  100  TRP100      0.0012
    107  CZ2       15.2150   34.9400  104.1690 C.ar  100  TRP100      0.0191
    108  CZ3       17.2640   35.7820  103.2000 C.ar  100  TRP100      0.0001
    109  CH2       15.9110   35.4410  103.0960 C.ar  100  TRP100      0.0015
    110  N         24.9710   35.2010  107.3100 N.3   102  ASN102     -0.1240
    111  CA        25.8920   35.8760  106.3900 C.3   102  ASN102      0.1653
    112  C         27.1610   35.0570  106.1530 C.2   102  ASN102      0.2266
    113  O         27.6460   34.3640  107.0570 O.2   102  ASN102     -0.2867
    114  CB        26.2860   37.2710  106.9000 C.3   102  ASN102      0.1155
    115  CG        25.0900   38.1890  107.0950 C.2   102  ASN102      0.2627
    116  OD1       24.0750   38.0700  106.4070 O.2   102  ASN102     -0.2716
    117  ND2       25.2050   39.1110  108.0460 N.am  102  ASN102     -0.0877
    118  N         24.0790   35.7850  101.4930 N.3   108  VAL108     -0.1245
    119  CA        23.3810   35.2930  102.6790 C.3   108  VAL108      0.1561
    120  C         22.7010   33.9560  102.4290 C.2   108  VAL108      0.2260
    121  O         22.0760   33.7440  101.3820 O.2   108  VAL108     -0.2867
    122  CB        22.3640   36.3150  103.2290 C.3   108  VAL108      0.0252
    123  CG1       21.8650   35.8630  104.6150 C.3   108  VAL108      0.0019
    124  CG2       23.0080   37.6910  103.3240 C.3   108  VAL108      0.0019
@<TRIPOS>BOND
     1     9     8    2
     2    41    42    2
     3    41    40    1
     4     8     7    1
     5    14    15    1
     6    40    39    1
     7    40    43    1
     8    44    43    1
     9     7     6    1
    10     7    10    1
    11    15    16    1
    12    15    18    1
    13    45    46    1
    14    16    17    2
    15    19    18    1
    16    10    11    1
    17    48    47    2
    18    46    47    1
    19    46    49    1
    20    51    53   ar
    21    51    50   ar
    22    53    55   ar
    23     4     3    2
    24    11    12    1
    25    11    13    1
    26     3     2    1
    27    49    50    1
    28    50    52   ar
    29    55    54   ar
    30    52    54   ar
    31    20    21    1
    32     2     1    1
    33     2     5    1
    34    29    30    2
    35    29    28    1
    36   121   120    2
    37   118   119    1
    38    23    22    2
    39    28    31    1
    40    28    27    1
    41    21    22    1
    42    21    24    1
    43   120   119    1
    44   119   122    1
    45    26    24    1
    46    31    32    1
    47    33    35   ar
    48    33    32   ar
    49   109   108   ar
    50   109   107   ar
    51   108   106   ar
    52    24    25    1
    53   122   124    1
    54   122   123    1
    55    35    37   ar
    56    32    34   ar
    57   107   105   ar
    58   106   103   ar
    59    37    38    1
    60    37    36   ar
    61    34    36   ar
    62   105   103   ar
    63   105   104   ar
    64   103   101   ar
    65    94    95   ar
    66    94    92   ar
    67    95    93   ar
    68    92    90   ar
    69   112   111    1
    70   112   113    2
    71   111   114    1
    72   111   110    1
    73   116   115    2
    74    93    91   ar
    75   104   102   ar
    76    90    91   ar
    77    90    89    1
    78   101   100    1
    79   101   102   ar
    80   114   115    1
    81    84    82   am
    82   115   117   am
    83    89    86    1
    84   100    97    1
    85    83    82    2
    86    97    98    1
    87    97    96    1
    88    82    81    1
    89    98    99    2
    90    86    87    1
    91    86    85    1
    92    87    88    2
    93    81    80    1
    94    80    77    1
    95    79    78    2
    96    78    77    1
    97    77    76    1
    98    75    73    1
    99    72    71    2
   100    74    73    1
   101    73    70    1
   102    69    70    1
   103    71    70    1
   104    60    57    1
   105    57    56    1
   106    57    58    1
   107    58    59    2
   108    68    66   ar
   109    67    66   ar
   110    66    65    1
   111    61    62    1
   112    62    65    1
   113    62    63    1
   114    63    64    2
