@<TRIPOS>MOLECULE
tmp/3rbyB01.pdb
 141 133 0 0 0
SMALL
GASTEIGER

@<TRIPOS>ATOM
      1  N         18.1520   27.5500   94.8270 N.3    11  PHE11      -0.1241
      2  CA        17.0340   27.0470   95.6220 C.3    11  PHE11       0.1605
      3  C         17.0870   25.5180   95.6270 C.2    11  PHE11       0.2264
      4  O         16.9310   24.8590   94.5840 O.2    11  PHE11      -0.2867
      5  CB        15.7210   27.5510   95.0240 C.3    11  PHE11       0.0534
      6  CG        14.4890   27.0250   95.7060 C.ar   11  PHE11      -0.0203
      7  CD1       14.4470   26.8650   97.0810 C.ar   11  PHE11      -0.0042
      8  CD2       13.3490   26.7260   94.9650 C.ar   11  PHE11      -0.0042
      9  CE1       13.2970   26.3950   97.7030 C.ar   11  PHE11      -0.0003
     10  CE2       12.2000   26.2570   95.5800 C.ar   11  PHE11      -0.0003
     11  CZ        12.1740   26.0900   96.9510 C.ar   11  PHE11      -0.0000
     12  N         15.8230   21.8920   97.2720 N.3    13  VAL13      -0.1245
     13  CA        15.1660   20.8470   98.0490 C.3    13  VAL13       0.1561
     14  C         15.6450   19.5150   97.4780 C.2    13  VAL13       0.2260
     15  O         15.4670   19.2230   96.2820 O.2    13  VAL13      -0.2867
     16  CB        13.6170   20.9610   98.0270 C.3    13  VAL13       0.0252
     17  CG1       13.1530   21.9750   99.0680 C.3    13  VAL13       0.0019
     18  CG2       13.1140   21.3420   96.6230 C.3    13  VAL13       0.0019
     19  N          8.8620   35.8540   92.2720 N.3    37  ARG37      -0.1245
     20  CA         9.7320   34.8040   91.7540 C.3    37  ARG37       0.1563
     21  C          9.2470   34.2660   90.4030 C.2    37  ARG37       0.2260
     22  O          8.7780   33.1280   90.3080 O.2    37  ARG37      -0.2867
     23  CB         9.8720   33.7080   92.8250 C.3    37  ARG37       0.0307
     24  CG        10.6400   34.2430   94.0480 C.3    37  ARG37       0.0489
     25  CD         9.9840   34.0550   95.4120 C.3    37  ARG37       0.2205
     26  NE        10.5670   32.9340   96.1410 N.pl3  37  ARG37      -0.0865
     27  CZ        11.2510   33.0100   97.2860 C.cat  37  ARG37       0.5346
     28  NH1       11.4750   34.1710   97.8940 N.pl3  37  ARG37       0.1354
     29  NH2       11.7160   31.8910   97.8310 N.pl3  37  ARG37       0.1354
     30  N          6.6860   31.2220   92.8460 N.3    53  TRP53      -0.1241
     31  CA         5.8880   31.6360   93.9900 C.3    53  TRP53       0.1605
     32  C          5.9650   33.1490   94.1520 C.2    53  TRP53       0.2264
     33  O          6.7430   33.8150   93.4690 O.2    53  TRP53      -0.2867
     34  CB         6.5560   30.9450   95.1790 C.3    53  TRP53       0.0550
     35  CG         5.8330   31.1310   96.4760 C.ar   53  TRP53       0.0003
     36  CD1        4.4900   31.2800   96.6520 C.ar   53  TRP53       0.0946
     37  CD2        6.4180   31.1830   97.7820 C.ar   53  TRP53       0.0152
     38  NE1        4.2010   31.4240   97.9870 N.ar   53  TRP53      -0.2442
     39  CE2        5.3680   31.3680   98.7020 C.ar   53  TRP53       0.0810
     40  CE3        7.7270   31.0930   98.2630 C.ar   53  TRP53       0.0012
     41  CZ2        5.5860   31.4650  100.0740 C.ar   53  TRP53       0.0191
     42  CZ3        7.9420   31.1890   99.6260 C.ar   53  TRP53       0.0001
     43  CH2        6.8770   31.3730  100.5150 C.ar   53  TRP53       0.0015
     44  N          5.1560   36.1980   97.4860 N.3    55  PHE55      -0.1241
     45  CA         4.6140   36.5460   98.7940 C.3    55  PHE55       0.1605
     46  C          4.9700   37.9770   99.1820 C.2    55  PHE55       0.2264
     47  O          5.8890   38.5730   98.6200 O.2    55  PHE55      -0.2867
     48  CB         5.1210   35.5720   99.8600 C.3    55  PHE55       0.0534
     49  CG         6.6060   35.6310  100.0780 C.ar   55  PHE55      -0.0203
     50  CD1        7.4310   34.6280   99.5990 C.ar   55  PHE55      -0.0042
     51  CD2        7.1760   36.6910  100.7630 C.ar   55  PHE55      -0.0042
     52  CE1        8.7970   34.6800   99.7990 C.ar   55  PHE55      -0.0003
     53  CE2        8.5420   36.7490  100.9660 C.ar   55  PHE55      -0.0003
     54  CZ         9.3540   35.7420  100.4830 C.ar   55  PHE55      -0.0000
     55  N          7.8910   34.0580  109.4760 N.3    76  PHE76      -0.1241
     56  CA         6.9600   34.6970  108.5610 C.3    76  PHE76       0.1605
     57  C          5.5350   34.2180  108.7350 C.2    76  PHE76       0.2264
     58  O          5.2600   33.0120  108.7610 O.2    76  PHE76      -0.2867
     59  CB         7.3620   34.4150  107.1050 C.3    76  PHE76       0.0534
     60  CG         8.6710   35.0150  106.7070 C.ar   76  PHE76      -0.0203
     61  CD1        9.8550   34.3160  106.9070 C.ar   76  PHE76      -0.0042
     62  CD2        8.7200   36.2700  106.1090 C.ar   76  PHE76      -0.0042
     63  CE1       11.0800   34.8580  106.5290 C.ar   76  PHE76      -0.0003
     64  CE2        9.9400   36.8340  105.7340 C.ar   76  PHE76      -0.0003
     65  CZ        11.1280   36.1220  105.9450 C.ar   76  PHE76      -0.0000
     66  N          2.6750   35.1570  106.2720 N.3    78  PHE78      -0.1241
     67  CA         2.4910   35.8910  105.0190 C.3    78  PHE78       0.1605
     68  C          1.1400   36.5560  104.8520 C.2    78  PHE78       0.2264
     69  O          0.1020   35.9190  105.0340 O.2    78  PHE78      -0.2867
     70  CB         2.7260   34.9480  103.8360 C.3    78  PHE78       0.0534
     71  CG         4.1280   34.4220  103.7660 C.ar   78  PHE78      -0.0203
     72  CD1        4.3760   33.0530  103.6710 C.ar   78  PHE78      -0.0042
     73  CD2        5.2080   35.3090  103.8080 C.ar   78  PHE78      -0.0042
     74  CE1        5.6780   32.5730  103.6170 C.ar   78  PHE78      -0.0003
     75  CE2        6.5120   34.8510  103.7470 C.ar   78  PHE78      -0.0003
     76  CZ         6.7570   33.4740  103.6510 C.ar   78  PHE78      -0.0000
     77  N          0.3260   30.6400   97.1350 N.3    83  ASN83      -0.1240
     78  CA        -0.0400   29.2650   97.4480 C.3    83  ASN83       0.1653
     79  C         -1.4140   29.1740   98.1010 C.2    83  ASN83       0.2266
     80  O         -2.1680   28.2430   97.8260 O.2    83  ASN83      -0.2867
     81  CB         0.9920   28.6040   98.3570 C.3    83  ASN83       0.1155
     82  CG         2.2400   28.1800   97.6130 C.2    83  ASN83       0.2627
     83  OD1        2.2240   27.9710   96.3910 O.2    83  ASN83      -0.2716
     84  ND2        3.3390   28.0440   98.3510 N.am   83  ASN83      -0.0877
     85  N          6.1240   30.2980  108.8300 N.3    96  VAL96      -0.1245
     86  CA         7.3240   29.6330  108.3150 C.3    96  VAL96       0.1561
     87  C          8.5550   30.1400  109.0580 C.2    96  VAL96       0.2260
     88  O          8.7500   31.3570  109.1960 O.2    96  VAL96      -0.2867
     89  CB         7.5160   29.8780  106.8070 C.3    96  VAL96       0.0252
     90  CG1        8.7080   29.0680  106.2860 C.3    96  VAL96       0.0019
     91  CG2        6.2430   29.5410  106.0550 C.3    96  VAL96       0.0019
     92  N         12.6290   30.5030  109.5410 N.3    98  THR98      -0.1218
     93  CA        13.8300   30.5580  108.7140 C.3    98  THR98       0.1862
     94  C         15.0180   31.0920  109.4850 C.2    98  THR98       0.2287
     95  O         14.8700   31.8620  110.4530 O.2    98  THR98      -0.2866
     96  CB        13.6400   31.4550  107.4590 C.3    98  THR98       0.1770
     97  OG1       13.5170   32.8390  107.8490 O.3    98  THR98      -0.2211
     98  CG2       12.4130   31.0090  106.6310 C.3    98  THR98       0.0375
     99  N         19.8520   31.2720  103.3440 N.3   110  GLU110     -0.1245
    100  CA        18.5530   31.0840  103.9760 C.3   110  GLU110      0.1567
    101  C         18.2410   29.5990  104.1260 C.2   110  GLU110      0.2260
    102  O         18.2770   28.8370  103.1480 O.2   110  GLU110     -0.2867
    103  CB        17.4290   31.7620  103.1830 C.3   110  GLU110      0.0388
    104  CG        16.0520   31.2620  103.5960 C.3   110  GLU110      0.1160
    105  CD        14.8930   31.9370  102.8660 C.2   110  GLU110      0.3649
    106  OE1       13.7830   31.9840  103.4530 O.co2 110  GLU110     -0.2457
    107  OE2       15.0730   32.3950  101.7110 O.co2 110  GLU110     -0.2457
    108  N          9.6770   23.0850  105.8580 N.3   114  VAL114     -0.1245
    109  CA         8.3050   23.4390  105.5510 C.3   114  VAL114      0.1561
    110  C          7.4150   22.1880  105.5380 C.2   114  VAL114      0.2260
    111  O          7.9000   21.0700  105.3310 O.2   114  VAL114     -0.2867
    112  CB         8.2720   24.2560  104.2340 C.3   114  VAL114      0.0252
    113  CG1        7.5220   23.5250  103.1370 C.3   114  VAL114      0.0019
    114  CG2        7.7120   25.6480  104.4900 C.3   114  VAL114      0.0019
    115  N          9.9600   18.8630  104.8720 N.3   124  VAL124     -0.1245
    116  CA        11.0230   19.0580  103.8880 C.3   124  VAL124      0.1561
    117  C         11.9140   20.2510  104.2730 C.2   124  VAL124      0.2260
    118  O         11.4240   21.3230  104.6350 O.2   124  VAL124     -0.2867
    119  CB        10.4370   19.2310  102.4620 C.3   124  VAL124      0.0252
    120  CG1        9.2730   20.2070  102.4780 C.3   124  VAL124      0.0019
    121  CG2       11.5080   19.6690  101.4700 C.3   124  VAL124      0.0019
    122  N         14.7260   23.1140  103.2340 N.3   126  PHE126     -0.1241
    123  CA        15.1860   23.8500  102.0580 C.3   126  PHE126      0.1605
    124  C         16.3810   24.7400  102.3940 C.2   126  PHE126      0.2264
    125  O         16.6560   25.0280  103.5640 O.2   126  PHE126     -0.2867
    126  CB        14.0520   24.7030  101.4610 C.3   126  PHE126      0.0534
    127  CG        13.5480   25.7650  102.3960 C.ar  126  PHE126     -0.0203
    128  CD1       14.1150   27.0340  102.4010 C.ar  126  PHE126     -0.0042
    129  CD2       12.5190   25.4890  103.2900 C.ar  126  PHE126     -0.0042
    130  CE1       13.6580   28.0100  103.2750 C.ar  126  PHE126     -0.0003
    131  CE2       12.0570   26.4680  104.1690 C.ar  126  PHE126     -0.0003
    132  CZ        12.6310   27.7250  104.1610 C.ar  126  PHE126     -0.0000
    133  N         18.1510   28.4210  100.5020 N.3   128  GLU128     -0.1245
    134  CA        18.1990   29.3970   99.4100 C.3   128  GLU128      0.1567
    135  C         19.3910   30.3320   99.5730 C.2   128  GLU128      0.2260
    136  O         19.6940   30.7650  100.6900 O.2   128  GLU128     -0.2867
    137  CB        16.9000   30.1930   99.3400 C.3   128  GLU128      0.0388
    138  CG        15.7110   29.3250   99.0340 C.3   128  GLU128      0.1160
    139  CD        14.3970   30.0290   99.2790 C.2   128  GLU128      0.3649
    140  OE1       13.8140   29.8690  100.3830 O.co2 128  GLU128     -0.2457
    141  OE2       13.9460   30.7390   98.3560 O.co2 128  GLU128     -0.2457
@<TRIPOS>BOND
     1    22    21    2
     2    21    20    1
     3    20    19    1
     4    20    23    1
     5    23    24    1
     6    30    31    1
     7    33    32    2
     8    31    32    1
     9    31    34    1
    10    24    25    1
    11     4     3    2
    12     1     2    1
    13     8    10   ar
    14     8     6   ar
    15     5     2    1
    16     5     6    1
    17    34    35    1
    18    25    26    1
    19    10    11   ar
    20     2     3    1
    21     6     7   ar
    22    26    27    2
    23    15    14    2
    24    83    82    2
    25    35    36   ar
    26    35    37   ar
    27    18    16    1
    28    36    38   ar
    29    11     9   ar
    30     7     9   ar
    31    77    78    1
    32    12    13    1
    33    27    29    1
    34    27    28    1
    35    78    79    1
    36    78    81    1
    37    14    13    1
    38    44    45    1
    39    82    84   am
    40    82    81    1
    41    37    40   ar
    42    37    39   ar
    43    80    79    2
    44    38    39   ar
    45    16    13    1
    46    16    17    1
    47    40    42   ar
    48   141   139   ar
    49    47    46    2
    50    39    41   ar
    51    45    46    1
    52    45    48    1
    53   138   139    1
    54   138   137    1
    55   139   140   ar
    56   137   134    1
    57   134   135    1
    58   134   133    1
    59   135   136    2
    60    50    52   ar
    61    50    49   ar
    62    42    43   ar
    63    52    54   ar
    64    48    49    1
    65    41    43   ar
    66    49    51   ar
    67    54    53   ar
    68    51    53   ar
    69   126   123    1
    70   126   127    1
    71   121   119    1
    72   107   105   ar
    73   123   124    1
    74   123   122    1
    75   124   125    2
    76   127   128   ar
    77   127   129   ar
    78   128   130   ar
    79   119   120    1
    80   119   116    1
    81   105   106   ar
    82   105   104    1
    83   113   112    1
    84   102   101    2
    85   103   104    1
    86   103   100    1
    87   130   132   ar
    88   129   131   ar
    89    99   100    1
    90    74    76   ar
    91    74    72   ar
    92    76    75   ar
    93    72    71   ar
    94    75    73   ar
    95    71    73   ar
    96    71    70    1
    97    70    67    1
    98   116   117    1
    99   116   115    1
   100   100   101    1
   101   132   131   ar
   102   112   114    1
   103   112   109    1
   104   117   118    2
   105    68    67    1
   106    68    69    2
   107    67    66    1
   108   111   110    2
   109   110   109    1
   110   109   108    1
   111    64    65   ar
   112    64    62   ar
   113    65    63   ar
   114    91    89    1
   115    62    60   ar
   116    90    89    1
   117    63    61   ar
   118    98    96    1
   119    60    61   ar
   120    60    59    1
   121    89    86    1
   122    59    56    1
   123    96    97    1
   124    96    93    1
   125    86    85    1
   126    86    87    1
   127    56    57    1
   128    56    55    1
   129    93    94    1
   130    93    92    1
   131    57    58    2
   132    87    88    2
   133    94    95    2
