@<TRIPOS>MOLECULE
tmp/3rbyB02.pdb
 95 98 0 0 0
SMALL
GASTEIGER

@<TRIPOS>ATOM
      1  N          9.3600   35.0880   89.3450 N.3    38  PRO38      -0.2102
      2  CA         8.9760   34.6220   88.0070 C.3    38  PRO38       0.1504
      3  C          9.9570   33.5850   87.4570 C.2    38  PRO38       0.2576
      4  O         11.1620   33.6580   87.7520 O.2    38  PRO38      -0.2718
      5  CB         9.0560   35.8960   87.1560 C.3    38  PRO38       0.0282
      6  CG        10.0940   36.7430   87.8540 C.3    38  PRO38       0.0208
      7  CD         9.9030   36.4590   89.3300 C.3    38  PRO38       0.0893
      8  N          9.4550   32.6390   86.6630 N.am   39  PHE39      -0.1963
      9  CA        10.3360   31.6960   85.9830 C.3    39  PHE39       0.1771
     10  C         11.0220   32.4010   84.8460 C.2    39  PHE39       0.2619
     11  O         10.4430   33.2950   84.2140 O.2    39  PHE39      -0.2715
     12  CB         9.5550   30.5150   85.4000 C.3    39  PHE39       0.0574
     13  CG         8.9560   29.6000   86.4370 C.ar   39  PHE39      -0.0200
     14  CD1        7.5750   29.4280   86.5200 C.ar   39  PHE39      -0.0042
     15  CD2        9.7670   28.9050   87.3170 C.ar   39  PHE39      -0.0042
     16  CE1        7.0110   28.5770   87.4710 C.ar   39  PHE39      -0.0003
     17  CE2        9.2130   28.0440   88.2770 C.ar   39  PHE39      -0.0003
     18  CZ         7.8280   27.8830   88.3510 C.ar   39  PHE39      -0.0000
     19  N         12.2490   31.9870   84.5620 N.am   40  VAL40      -0.1977
     20  CA        12.9380   32.4910   83.3820 C.3    40  VAL40       0.1596
     21  C         12.4100   31.7910   82.1270 C.2    40  VAL40       0.2287
     22  O         12.1040   32.4510   81.1400 O.2    40  VAL40      -0.2864
     23  CB        14.4500   32.2960   83.4830 C.3    40  VAL40       0.0276
     24  CG1       15.1370   32.8040   82.2040 C.3    40  VAL40       0.0022
     25  CG2       14.9830   33.0120   84.7300 C.3    40  VAL40       0.0022
     26  N          9.5110   29.3120   81.7260 N.3    42  PRO42      -0.2116
     27  CA         8.3500   28.5340   82.1780 C.3    42  PRO42       0.1372
     28  C          8.0080   27.4640   81.1360 C.2    42  PRO42       0.2244
     29  O          8.2250   27.7010   79.9360 O.2    42  PRO42      -0.2868
     30  CB         7.2310   29.5870   82.2510 C.3    42  PRO42       0.0268
     31  CG         7.6550   30.6720   81.2700 C.3    42  PRO42       0.0207
     32  CD         9.1610   30.7020   81.3630 C.3    42  PRO42       0.0892
     33  N          3.4260   32.2140   85.3400 N.3    50  PRO50      -0.2102
     34  CA         4.8720   32.0000   85.2210 C.3    50  PRO50       0.1504
     35  C          5.6820   32.4300   86.4490 C.2    50  PRO50       0.2575
     36  O          6.6430   33.1990   86.3150 O.2    50  PRO50      -0.2718
     37  CB         5.2470   32.8350   83.9870 C.3    50  PRO50       0.0282
     38  CG         4.2220   33.9050   83.9060 C.3    50  PRO50       0.0208
     39  CD         2.9620   33.3830   84.5680 C.3    50  PRO50       0.0893
     40  N          5.2960   31.9400   87.6230 N.am   51  PHE51      -0.1977
     41  CA         5.9890   32.2820   88.8590 C.3    51  PHE51       0.1639
     42  C          6.0980   31.0750   89.7840 C.2    51  PHE51       0.2290
     43  O          5.1090   30.3900   90.0460 O.2    51  PHE51      -0.2864
     44  CB         5.2740   33.4300   89.5740 C.3    51  PHE51       0.0560
     45  CG         5.0120   34.6210   88.6980 C.ar   51  PHE51      -0.0200
     46  CD1        3.8990   34.6620   87.8760 C.ar   51  PHE51      -0.0042
     47  CD2        5.8800   35.7000   88.6960 C.ar   51  PHE51      -0.0042
     48  CE1        3.6560   35.7570   87.0680 C.ar   51  PHE51      -0.0003
     49  CE2        5.6430   36.7980   87.8910 C.ar   51  PHE51      -0.0003
     50  CZ         4.5290   36.8260   87.0760 C.ar   51  PHE51      -0.0000
     51  N          9.2990   48.3070   82.2720 N.3   207  PHE207     -0.1227
     52  CA         8.7030   47.1210   82.8850 C.3   207  PHE207      0.1736
     53  C          9.5900   45.9180   82.6970 C.2   207  PHE207      0.2595
     54  O          9.9850   45.6090   81.5740 O.2   207  PHE207     -0.2718
     55  CB         7.3350   46.8160   82.2940 C.3   207  PHE207      0.0547
     56  CG         6.2520   47.6570   82.8650 C.ar  207  PHE207     -0.0202
     57  CD1        5.5870   47.2550   84.0170 C.ar  207  PHE207     -0.0042
     58  CD2        5.9150   48.8700   82.2760 C.ar  207  PHE207     -0.0042
     59  CE1        4.5860   48.0450   84.5720 C.ar  207  PHE207     -0.0003
     60  CE2        4.9200   49.6660   82.8170 C.ar  207  PHE207     -0.0003
     61  CZ         4.2520   49.2540   83.9690 C.ar  207  PHE207     -0.0000
     62  N          9.9180   45.2450   83.7940 N.am  208  LEU208     -0.1966
     63  CA        10.6790   44.0130   83.7020 C.3   208  LEU208      0.1728
     64  C          9.7050   42.8560   83.7560 C.2   208  LEU208      0.2616
     65  O          9.9690   41.7900   83.2040 O.2   208  LEU208     -0.2715
     66  CB        11.6960   43.9060   84.8310 C.3   208  LEU208      0.0311
     67  CG        12.8540   44.8970   84.7700 C.3   208  LEU208      0.0022
     68  CD1       13.8990   44.4780   85.8010 C.3   208  LEU208      0.0001
     69  CD2       13.4740   44.9650   83.3680 C.3   208  LEU208      0.0001
     70  N          8.5910   43.0730   84.4490 N.am  209  LEU209     -0.1963
     71  CA         7.4410   42.1870   84.3580 C.3   209  LEU209      0.1728
     72  C          6.1670   42.9630   84.6630 C.2   209  LEU209      0.2617
     73  O          6.1700   43.9140   85.4590 O.2   209  LEU209     -0.2715
     74  CB         7.5940   40.9340   85.2360 C.3   209  LEU209      0.0311
     75  CG         7.3570   41.0130   86.7420 C.3   209  LEU209      0.0022
     76  CD1        5.8720   40.8940   87.0580 C.3   209  LEU209      0.0001
     77  CD2        8.1440   39.9010   87.4280 C.3   209  LEU209      0.0001
     78  N          5.0960   42.5660   83.9810 N.am  210  SER210     -0.1936
     79  CA         3.7750   43.1690   84.1130 C.3   210  SER210      0.2055
     80  C          2.7800   42.0260   83.9410 C.2   210  SER210      0.2643
     81  O          2.7190   41.4110   82.8780 O.2   210  SER210     -0.2714
     82  CB         3.5680   44.2290   83.0310 C.3   210  SER210      0.2130
     83  OG         2.4260   45.0270   83.3120 O.3   210  SER210     -0.2179
     84  N          2.0300   41.7070   84.9900 N.am  211  TYR211     -0.1973
     85  CA         1.1440   40.5490   84.9560 C.3   211  TYR211      0.1639
     86  C         -0.1940   40.9220   85.5620 C.2   211  TYR211      0.2290
     87  O         -0.2470   41.5370   86.6430 O.2   211  TYR211     -0.2864
     88  CB         1.7650   39.3910   85.7510 C.3   211  TYR211      0.0560
     89  CG         0.9380   38.1150   85.8170 C.ar  211  TYR211     -0.0198
     90  CD1        0.0880   37.8630   86.8940 C.ar  211  TYR211     -0.0009
     91  CD2        1.0250   37.1480   84.8110 C.ar  211  TYR211     -0.0009
     92  CE1       -0.6640   36.6860   86.9680 C.ar  211  TYR211      0.0417
     93  CE2        0.2720   35.9650   84.8700 C.ar  211  TYR211      0.0417
     94  CZ        -0.5700   35.7400   85.9530 C.ar  211  TYR211      0.1957
     95  OH        -1.3070   34.5720   86.0250 O.3   211  TYR211     -0.2866
@<TRIPOS>BOND
     1    29    28    2
     2    28    27    1
     3    22    21    2
     4    31    32    1
     5    31    30    1
     6    32    26    1
     7    54    53    2
     8    26    27    1
     9    21    20    1
    10    27    30    1
    11    24    23    1
    12    51    52    1
    13    58    60   ar
    14    58    56   ar
    15    55    56    1
    16    55    52    1
    17    53    52    1
    18    53    62   am
    19    60    61   ar
    20    56    57   ar
    21    81    80    2
    22    82    83    1
    23    82    79    1
    24    65    64    2
    25    69    67    1
    26    20    23    1
    27    20    19    1
    28    23    25    1
    29    63    64    1
    30    63    62    1
    31    63    66    1
    32    64    70   am
    33    38    37    1
    34    38    39    1
    35    80    79    1
    36    80    84   am
    37    61    59   ar
    38    78    79    1
    39    78    72   am
    40    37    34    1
    41    57    59   ar
    42    11    10    2
    43    71    70    1
    44    71    72    1
    45    71    74    1
    46    19    10   am
    47    39    33    1
    48    72    73    2
    49    67    66    1
    50    67    68    1
    51    91    93   ar
    52    91    89   ar
    53    10     9    1
    54    93    94   ar
    55    85    84    1
    56    85    86    1
    57    85    88    1
    58    34    33    1
    59    34    35    1
    60    74    75    1
    61    12     9    1
    62    12    13    1
    63    86    87    2
    64    88    89    1
    65    89    90   ar
    66    94    95    1
    67    94    92   ar
    68     9     8    1
    69    36    35    2
    70    13    14   ar
    71    13    15   ar
    72    35    40   am
    73    14    16   ar
    74     8     3   am
    75    75    76    1
    76    75    77    1
    77    90    92   ar
    78    48    50   ar
    79    48    46   ar
    80    50    49   ar
    81     5     6    1
    82     5     2    1
    83    15    17   ar
    84     3     4    2
    85     3     2    1
    86    16    18   ar
    87    40    41    1
    88     6     7    1
    89    46    45   ar
    90    49    47   ar
    91     2     1    1
    92    17    18   ar
    93    47    45   ar
    94    45    44    1
    95    41    44    1
    96    41    42    1
    97     7     1    1
    98    42    43    2
