@<TRIPOS>MOLECULE
tmp/3rc0A01.pdb
 206 205 0 0 0
SMALL
GASTEIGER

@<TRIPOS>ATOM
      1  N         18.2110    9.8150  -34.3010 N.3    26  ARG26      -0.1245
      2  CA        17.0640   10.5180  -34.8340 C.3    26  ARG26       0.1563
      3  C         16.2590    9.5380  -35.6820 C.2    26  ARG26       0.2260
      4  O         15.2860    9.9040  -36.3380 O.2    26  ARG26      -0.2867
      5  CB        17.5270   11.7230  -35.6560 C.3    26  ARG26       0.0307
      6  CG        16.4240   12.6930  -36.0090 C.3    26  ARG26       0.0489
      7  CD        16.9740   14.0600  -36.4050 C.3    26  ARG26       0.2205
      8  NE        16.7520   15.0590  -35.3580 N.pl3  26  ARG26      -0.0865
      9  CZ        15.8280   16.0160  -35.4070 C.cat  26  ARG26       0.5346
     10  NH1       15.0330   16.1270  -36.4630 N.pl3  26  ARG26       0.1354
     11  NH2       15.7030   16.8740  -34.4000 N.pl3  26  ARG26       0.1354
     12  N         10.1470    8.4880  -31.4640 N.3    30  VAL30      -0.1231
     13  CA         8.8110    9.0750  -31.5150 C.3    30  VAL30       0.1692
     14  C          8.8590   10.5390  -31.9290 C.2    30  VAL30       0.2592
     15  O          7.8990   11.0640  -32.4880 O.2    30  VAL30      -0.2718
     16  CB         8.0610    8.9340  -30.1640 C.3    30  VAL30       0.0266
     17  CG1        7.8430    7.4680  -29.8310 C.3    30  VAL30       0.0020
     18  CG2        8.8300    9.6220  -29.0440 C.3    30  VAL30       0.0020
     19  N          9.9820   11.1970  -31.6690 N.am   31  ALA31      -0.1966
     20  CA        10.1220   12.6100  -32.0130 C.3    31  ALA31       0.1728
     21  C         11.5610   13.0990  -31.9220 C.2    31  ALA31       0.2617
     22  O         12.2660   12.7770  -30.9680 O.2    31  ALA31      -0.2715
     23  CB         9.2200   13.4580  -31.1330 C.3    31  ALA31       0.0334
     24  N         11.9890   13.8780  -32.9140 N.am   32  GLY32      -0.1940
     25  CA        13.3170   14.4740  -32.9150 C.3    32  GLY32       0.2014
     26  C         14.4220   13.5070  -32.5240 C.2    32  GLY32       0.2638
     27  O         14.4700   12.3810  -33.0170 O.2    32  GLY32      -0.2714
     28  N         15.3090   13.9510  -31.6400 N.am   33  TYR33      -0.1973
     29  CA        16.3240   13.0850  -31.0540 C.3    33  TYR33       0.1639
     30  C         15.7460   12.2310  -29.9370 C.2    33  TYR33       0.2290
     31  O         14.8160   12.6380  -29.2420 O.2    33  TYR33      -0.2864
     32  CB        17.4690   13.9120  -30.4720 C.3    33  TYR33       0.0560
     33  CG        18.2880   14.6400  -31.5070 C.ar   33  TYR33      -0.0198
     34  CD1       19.2320   13.9650  -32.2710 C.ar   33  TYR33      -0.0009
     35  CD2       18.1210   16.0030  -31.7180 C.ar   33  TYR33      -0.0009
     36  CE1       19.9790   14.6260  -33.2230 C.ar   33  TYR33       0.0417
     37  CE2       18.8670   16.6730  -32.6610 C.ar   33  TYR33       0.0417
     38  CZ        19.7950   15.9790  -33.4120 C.ar   33  TYR33       0.1957
     39  OH        20.5440   16.6440  -34.3550 O.3    33  TYR33      -0.2866
     40  N         21.9920   20.6660  -30.0880 N.3   104  LEU104     -0.1245
     41  CA        20.9720   19.6210  -30.1680 C.3   104  LEU104      0.1561
     42  C         19.5770   20.1510  -29.8540 C.2   104  LEU104      0.2260
     43  O         18.5860   19.4500  -30.0500 O.2   104  LEU104     -0.2867
     44  CB        21.3070   18.4450  -29.2490 C.3   104  LEU104      0.0270
     45  CG        22.5500   17.6180  -29.5810 C.3   104  LEU104      0.0019
     46  CD1       22.5540   16.3100  -28.7890 C.3   104  LEU104      0.0001
     47  CD2       22.6110   17.3280  -31.0640 C.3   104  LEU104      0.0001
     48  N         16.0310   22.0520  -30.1780 N.3   106  PRO106     -0.2116
     49  CA        15.1320   22.1030  -31.3340 C.3   106  PRO106      0.1372
     50  C         15.2120   23.4700  -32.0060 C.2   106  PRO106      0.2244
     51  O         15.6990   24.4170  -31.3870 O.2   106  PRO106     -0.2868
     52  CB        13.7520   21.9110  -30.6990 C.3   106  PRO106      0.0268
     53  CG        13.9130   22.4730  -29.3020 C.3   106  PRO106      0.0207
     54  CD        15.2910   22.0540  -28.9010 C.3   106  PRO106      0.0892
     55  N          5.9030   23.4640  -30.7820 N.3   112  GLU112     -0.1231
     56  CA         4.5190   23.0440  -31.0170 C.3   112  GLU112      0.1699
     57  C          3.5440   23.3660  -29.8900 C.2   112  GLU112      0.2592
     58  O          2.3840   22.9640  -29.9370 O.2   112  GLU112     -0.2718
     59  CB         4.4770   21.5440  -31.3020 C.3   112  GLU112      0.0402
     60  CG         5.3940   21.1430  -32.4300 C.3   112  GLU112      0.1161
     61  CD         5.0290   19.8110  -33.0390 C.2   112  GLU112      0.3649
     62  OE1        3.9510   19.2640  -32.7100 O.co2 112  GLU112     -0.2457
     63  OE2        5.8330   19.3130  -33.8500 O.co2 112  GLU112     -0.2457
     64  N          4.0130   24.0920  -28.8840 N.am  113  HIS113     -0.1976
     65  CA         3.1660   24.4690  -27.7620 C.3   113  HIS113      0.1656
     66  C          1.9610   25.2730  -28.2420 C.2   113  HIS113      0.2291
     67  O          2.0860   26.1080  -29.1320 O.2   113  HIS113     -0.2864
     68  CB         3.9640   25.2910  -26.7490 C.3   113  HIS113      0.0771
     69  CG         5.1620   24.5850  -26.2020 C.ar  113  HIS113      0.0820
     70  ND1        6.2710   24.2990  -26.9680 N.ar  113  HIS113     -0.2267
     71  CD2        5.4310   24.1190  -24.9600 C.ar  113  HIS113      0.1154
     72  CE1        7.1690   23.6820  -26.2240 C.ar  113  HIS113      0.1986
     73  NE2        6.6850   23.5640  -24.9990 N.ar  113  HIS113     -0.2212
     74  N          9.5950   22.6340  -21.4820 N.3   180  ALA180     -0.1231
     75  CA         9.6360   21.3200  -22.1090 C.3   180  ALA180      0.1694
     76  C         10.9440   20.5540  -21.8750 C.2   180  ALA180      0.2592
     77  O         10.9790   19.3330  -22.0190 O.2   180  ALA180     -0.2718
     78  CB         9.3490   21.4440  -23.6170 C.3   180  ALA180      0.0304
     79  N         12.0120   21.2590  -21.5160 N.am  181  TYR181     -0.1976
     80  CA        13.3370   20.6370  -21.4470 C.3   181  TYR181      0.1639
     81  C         13.9710   20.5970  -20.0530 C.2   181  TYR181      0.2290
     82  O         14.7810   19.7160  -19.7670 O.2   181  TYR181     -0.2864
     83  CB        14.2950   21.2950  -22.4520 C.3   181  TYR181      0.0560
     84  CG        14.0970   20.8010  -23.8680 C.ar  181  TYR181     -0.0198
     85  CD1       14.9850   19.9010  -24.4390 C.ar  181  TYR181     -0.0009
     86  CD2       13.0030   21.2050  -24.6170 C.ar  181  TYR181     -0.0009
     87  CE1       14.8020   19.4310  -25.7180 C.ar  181  TYR181      0.0417
     88  CE2       12.8120   20.7420  -25.9040 C.ar  181  TYR181      0.0417
     89  CZ        13.7150   19.8530  -26.4450 C.ar  181  TYR181      0.1957
     90  OH        13.5310   19.3860  -27.7200 O.3   181  TYR181     -0.2866
     91  N         14.7940   20.4030  -15.9210 N.3   183  PHE183     -0.1241
     92  CA        14.5250   19.5250  -14.7800 C.3   183  PHE183      0.1605
     93  C         14.4320   20.3350  -13.4860 C.2   183  PHE183      0.2264
     94  O         15.2000   21.2700  -13.2750 O.2   183  PHE183     -0.2867
     95  CB        15.6170   18.4570  -14.6310 C.3   183  PHE183      0.0534
     96  CG        15.6280   17.4380  -15.7330 C.ar  183  PHE183     -0.0203
     97  CD1       15.2450   16.1300  -15.4920 C.ar  183  PHE183     -0.0042
     98  CD2       16.0140   17.7850  -17.0120 C.ar  183  PHE183     -0.0042
     99  CE1       15.2580   15.1920  -16.5140 C.ar  183  PHE183     -0.0003
    100  CE2       16.0280   16.8500  -18.0260 C.ar  183  PHE183     -0.0003
    101  CZ        15.6480   15.5570  -17.7750 C.ar  183  PHE183     -0.0000
    102  N         17.9620   15.4210  -21.2460 N.3   201  ASP201     -0.1225
    103  CA        16.8630   16.0650  -21.9750 C.3   201  ASP201      0.1805
    104  C         16.8180   15.6790  -23.4570 C.2   201  ASP201      0.2598
    105  O         16.2100   16.3650  -24.2690 O.2   201  ASP201     -0.2718
    106  CB        16.8570   17.5900  -21.7840 C.3   201  ASP201      0.1424
    107  CG        18.0280   18.2870  -22.4810 C.2   201  ASP201      0.3668
    108  OD1       18.6890   17.6560  -23.3300 O.co2 201  ASP201     -0.2456
    109  OD2       18.2800   19.4780  -22.1800 O.co2 201  ASP201     -0.2456
    110  N         17.4680   14.5690  -23.7860 N.am  202  ILE202     -0.1966
    111  CA        17.3740   13.9600  -25.1030 C.3   202  ILE202      0.1727
    112  C         16.2820   12.8900  -25.1090 C.2   202  ILE202      0.2616
    113  O         15.7100   12.5810  -26.1490 O.2   202  ILE202     -0.2715
    114  CB        18.7020   13.2880  -25.4950 C.3   202  ILE202      0.0290
    115  CG1       19.7430   14.3310  -25.8730 C.3   202  ILE202      0.0022
    116  CG2       18.5110   12.3710  -26.6690 C.3   202  ILE202      0.0023
    117  CD1       21.0770   13.7330  -26.2350 C.3   202  ILE202      0.0001
    118  N         15.9960   12.3250  -23.9410 N.am  203  LEU203     -0.1963
    119  CA        15.0300   11.2280  -23.8330 C.3   203  LEU203      0.1728
    120  C         13.5670   11.6730  -23.9300 C.2   203  LEU203      0.2616
    121  O         13.1330   12.5930  -23.2440 O.2   203  LEU203     -0.2715
    122  CB        15.2550   10.4320  -22.5440 C.3   203  LEU203      0.0311
    123  CG        16.3970    9.4140  -22.5490 C.3   203  LEU203      0.0022
    124  CD1       17.7110   10.1010  -22.7480 C.3   203  LEU203      0.0001
    125  CD2       16.4030    8.6630  -21.2510 C.3   203  LEU203      0.0001
    126  N         12.8150   11.0060  -24.7970 N.am  204  ASN204     -0.1958
    127  CA        11.3820   11.2440  -24.9220 C.3   204  ASN204      0.1819
    128  C         10.5990   10.6000  -23.7690 C.2   204  ASN204      0.2621
    129  O         11.1690    9.8760  -22.9630 O.2   204  ASN204     -0.2715
    130  CB        10.8910   10.7570  -26.2860 C.3   204  ASN204      0.1195
    131  CG        11.4210   11.6100  -27.4270 C.2   204  ASN204      0.2630
    132  OD1       11.4210   12.8350  -27.3450 O.2   204  ASN204     -0.2716
    133  ND2       11.8890   10.9670  -28.4870 N.am  204  ASN204     -0.0877
    134  N          9.3000   10.8760  -23.6940 N.am  205  HIS205     -0.1959
    135  CA         8.4780   10.4950  -22.5420 C.3   205  HIS205      0.1787
    136  C          7.3330    9.5660  -22.9350 C.2   205  HIS205      0.2620
    137  O          6.7440    9.7020  -24.0100 O.2   205  HIS205     -0.2715
    138  CB         7.9200   11.7580  -21.8600 C.3   205  HIS205      0.0785
    139  CG         6.6830   11.5290  -21.0370 C.ar  205  HIS205      0.0821
    140  ND1        6.6910   11.5360  -19.6570 N.ar  205  HIS205     -0.2267
    141  CD2        5.3960   11.3120  -21.3990 C.ar  205  HIS205      0.1154
    142  CE1        5.4690   11.3120  -19.2070 C.ar  205  HIS205      0.1986
    143  NE2        4.6640   11.1730  -20.2420 N.ar  205  HIS205     -0.2212
    144  N          7.0380    8.6160  -22.0520 N.am  206  LEU206     -0.1977
    145  CA         5.8380    7.7960  -22.1500 C.3   206  LEU206      0.1596
    146  C          5.3000    7.5370  -20.7510 C.2   206  LEU206      0.2287
    147  O          6.0590    7.5260  -19.7870 O.2   206  LEU206     -0.2864
    148  CB         6.1290    6.4550  -22.8240 C.3   206  LEU206      0.0297
    149  CG         6.3850    6.3890  -24.3280 C.3   206  LEU206      0.0022
    150  CD1        6.5350    4.9350  -24.7470 C.3   206  LEU206      0.0001
    151  CD2        5.2650    7.0480  -25.1110 C.3   206  LEU206      0.0001
    152  N          8.4090   12.3110  -17.6350 N.3   238  TYR238     -0.1241
    153  CA         8.4250   13.7270  -17.2820 C.3   238  TYR238      0.1605
    154  C          7.6100   13.9680  -16.0210 C.2   238  TYR238      0.2264
    155  O          7.6800   15.0350  -15.4160 O.2   238  TYR238     -0.2867
    156  CB         7.8990   14.5810  -18.4420 C.3   238  TYR238      0.0534
    157  CG         8.7380   14.4640  -19.6970 C.ar  238  TYR238     -0.0201
    158  CD1        9.9660   13.8130  -19.6760 C.ar  238  TYR238     -0.0009
    159  CD2        8.3080   15.0080  -20.9020 C.ar  238  TYR238     -0.0009
    160  CE1       10.7360   13.7030  -20.8200 C.ar  238  TYR238      0.0417
    161  CE2        9.0710   14.9080  -22.0440 C.ar  238  TYR238      0.0417
    162  CZ        10.2820   14.2520  -21.9970 C.ar  238  TYR238      0.1957
    163  OH        11.0460   14.1520  -23.1300 O.3   238  TYR238     -0.2866
    164  N          4.6180   20.5750  -23.1420 N.3   250  TYR250     -0.1227
    165  CA         5.5620   19.8850  -24.0170 C.3   250  TYR250      0.1736
    166  C          5.1770   19.8710  -25.5020 C.2   250  TYR250      0.2596
    167  O          5.9580   19.4280  -26.3360 O.2   250  TYR250     -0.2718
    168  CB         5.7930   18.4470  -23.5160 C.3   250  TYR250      0.0548
    169  CG         6.4070   18.3670  -22.1300 C.ar  250  TYR250     -0.0200
    170  CD1        7.7810   18.4370  -21.9540 C.ar  250  TYR250     -0.0009
    171  CD2        5.6140   18.2330  -21.0030 C.ar  250  TYR250     -0.0009
    172  CE1        8.3450   18.3750  -20.6950 C.ar  250  TYR250      0.0417
    173  CE2        6.1690   18.1650  -19.7440 C.ar  250  TYR250      0.0417
    174  CZ         7.5340   18.2400  -19.5950 C.ar  250  TYR250      0.1957
    175  OH         8.0940   18.1710  -18.3380 O.3   250  TYR250     -0.2866
    176  N          3.9780   20.3350  -25.8280 N.am  251  GLY251     -0.1942
    177  CA         3.5430   20.3690  -27.2120 C.3   251  GLY251      0.2014
    178  C          3.3150   19.0160  -27.8750 C.2   251  GLY251      0.2639
    179  O          3.4110   18.8950  -29.0920 O.2   251  GLY251     -0.2714
    180  N          3.0200   17.9900  -27.0840 N.am  252  PHE252     -0.1959
    181  CA         2.6160   16.7030  -27.6410 C.3   252  PHE252      0.1771
    182  C          1.5340   16.0500  -26.7860 C.2   252  PHE252      0.2619
    183  O          1.2410   16.4960  -25.6800 O.2   252  PHE252     -0.2715
    184  CB         3.8170   15.7550  -27.8230 C.3   252  PHE252      0.0574
    185  CG         4.3260   15.1490  -26.5350 C.ar  252  PHE252     -0.0200
    186  CD1        3.8910   13.8990  -26.1210 C.ar  252  PHE252     -0.0042
    187  CD2        5.2400   15.8270  -25.7460 C.ar  252  PHE252     -0.0042
    188  CE1        4.3490   13.3400  -24.9370 C.ar  252  PHE252     -0.0003
    189  CE2        5.7060   15.2750  -24.5690 C.ar  252  PHE252     -0.0003
    190  CZ         5.2560   14.0300  -24.1580 C.ar  252  PHE252     -0.0000
    191  N          0.9230   15.0040  -27.3260 N.am  253  VAL253     -0.1963
    192  CA        -0.0250   14.2020  -26.5800 C.3   253  VAL253      0.1727
    193  C          0.2640   12.7360  -26.8510 C.2   253  VAL253      0.2616
    194  O          0.8560   12.3930  -27.8710 O.2   253  VAL253     -0.2715
    195  CB        -1.4790   14.4970  -26.9930 C.3   253  VAL253      0.0290
    196  CG1       -1.8280   15.9490  -26.7340 C.3   253  VAL253      0.0023
    197  CG2       -1.6990   14.1520  -28.4520 C.3   253  VAL253      0.0023
    198  N         -0.1580   11.8730  -25.9360 N.am  254  GLU254     -0.1977
    199  CA        -0.1440   10.4430  -26.1870 C.3   254  GLU254      0.1602
    200  C         -1.5110    9.9990  -26.6890 C.2   254  GLU254      0.2287
    201  O         -2.5280   10.2310  -26.0300 O.2   254  GLU254     -0.2864
    202  CB         0.2130    9.6800  -24.9240 C.3   254  GLU254      0.0415
    203  CG         1.6350    9.8740  -24.4830 C.3   254  GLU254      0.1163
    204  CD         1.9960    8.9200  -23.3780 C.2   254  GLU254      0.3649
    205  OE1        2.1200    7.7060  -23.6660 O.co2 254  GLU254     -0.2457
    206  OE2        2.1350    9.3780  -22.2270 O.co2 254  GLU254     -0.2457
@<TRIPOS>BOND
     1    10     9    1
     2     7     6    1
     3     7     8    1
     4     4     3    2
     5     6     5    1
     6     3     2    1
     7     5     2    1
     8     9     8    2
     9     9    11    1
    10     2     1    1
    11    39    38    1
    12    63    61   ar
    13    38    36   ar
    14    38    37   ar
    15    36    34   ar
    16    61    62   ar
    17    61    60    1
    18    27    26    2
    19    25    24    1
    20    25    26    1
    21    24    21   am
    22    37    35   ar
    23    26    28   am
    24    15    14    2
    25    60    59    1
    26    34    33   ar
    27    20    21    1
    28    20    19    1
    29    20    23    1
    30    50    51    2
    31    50    49    1
    32    14    19   am
    33    14    13    1
    34    21    22    2
    35    35    33   ar
    36    28    29    1
    37    13    12    1
    38    13    16    1
    39    33    32    1
    40    49    52    1
    41    49    48    1
    42    59    56    1
    43    47    45    1
    44    29    32    1
    45    29    30    1
    46    56    55    1
    47    56    57    1
    48    52    53    1
    49    48    54    1
    50    41    40    1
    51    41    42    1
    52    41    44    1
    53    16    17    1
    54    16    18    1
    55    43    42    2
    56    58    57    2
    57    30    31    2
    58    57    64   am
    59    45    44    1
    60    45    46    1
    61    53    54    1
    62    67    66    2
    63   179   178    2
    64    64    65    1
    65   133   131   am
    66   197   195    1
    67    66    65    1
    68   178   177    1
    69   178   180   am
    70   194   193    2
    71   184   181    1
    72   184   185    1
    73    65    68    1
    74    90    89    1
    75   181   180    1
    76   181   182    1
    77   131   132    2
    78   131   130    1
    79   191   182   am
    80   191   192    1
    81   177   176    1
    82   195   196    1
    83   195   192    1
    84    70    72   ar
    85    70    69   ar
    86   193   192    1
    87   193   198   am
    88   182   183    2
    89    68    69    1
    90   200   199    1
    91   200   201    2
    92   116   114    1
    93   185   186   ar
    94   185   187   ar
    95    89    88   ar
    96    89    87   ar
    97   167   166    2
    98   130   127    1
    99   117   115    1
   100    72    73   ar
   101    69    71   ar
   102   199   198    1
   103   199   202    1
   104   113   112    2
   105   186   188   ar
   106    88    86   ar
   107   115   114    1
   108   176   166   am
   109   187   189   ar
   110    87    85   ar
   111   166   165    1
   112   114   111    1
   113   151   149    1
   114   112   111    1
   115   112   118   am
   116   111   110    1
   117    73    71   ar
   118   188   190   ar
   119   202   203    1
   120   127   126    1
   121   127   128    1
   122   126   120   am
   123   150   149    1
   124    86    84   ar
   125   189   190   ar
   126   203   204    1
   127    85    84   ar
   128   149   148    1
   129   105   104    2
   130   165   168    1
   131   165   164    1
   132   137   136    2
   133   118   119    1
   134   120   119    1
   135   120   121    2
   136    84    83    1
   137   119   122    1
   138   110   104   am
   139   128   134   am
   140   128   129    2
   141   134   135    1
   142   205   204   ar
   143    78    75    1
   144   168   169    1
   145   104   103    1
   146   204   206   ar
   147   108   107   ar
   148   163   162    1
   149   136   135    1
   150   136   144   am
   151   148   145    1
   152   124   123    1
   153   123   122    1
   154   123   125    1
   155   135   138    1
   156   107   109   ar
   157   107   106    1
   158    83    80    1
   159   145   144    1
   160   145   146    1
   161   169   170   ar
   162   169   171   ar
   163    75    76    1
   164    75    74    1
   165   161   162   ar
   166   161   159   ar
   167    77    76    2
   168   162   160   ar
   169   103   106    1
   170   103   102    1
   171   170   172   ar
   172    76    79   am
   173   138   139    1
   174    79    80    1
   175    80    81    1
   176   141   139   ar
   177   141   143   ar
   178   139   140   ar
   179   171   173   ar
   180   159   157   ar
   181   160   158   ar
   182   146   147    2
   183   172   174   ar
   184   143   142   ar
   185    81    82    2
   186   173   174   ar
   187   157   158   ar
   188   157   156    1
   189   140   142   ar
   190   174   175    1
   191   156   153    1
   192   100   101   ar
   193   100    98   ar
   194   101    99   ar
   195   152   153    1
   196   153   154    1
   197    98    96   ar
   198    99    97   ar
   199   154   155    2
   200    91    92    1
   201    96    97   ar
   202    96    95    1
   203    92    95    1
   204    92    93    1
   205    93    94    2
