@<TRIPOS>MOLECULE
tmp/3rc0C00.pdb
 110 110 0 0 0
SMALL
GASTEIGER

@<TRIPOS>ATOM
      1  N          8.2750   -3.2950   14.6090 N.3   179  MET179     -0.1230
      2  CA         9.4490   -3.6310   15.4030 C.3   179  MET179      0.1702
      3  C          9.2560   -3.2560   16.8640 C.2   179  MET179      0.2592
      4  O          9.5900   -4.0290   17.7600 O.2   179  MET179     -0.2718
      5  CB        10.6820   -2.9170   14.8710 C.3   179  MET179      0.0401
      6  CG        11.2960   -3.5550   13.6390 C.3   179  MET179      0.0596
      7  SD        12.9060   -2.8470   13.2630 S.3   179  MET179     -0.1393
      8  CE        12.4180   -1.5020   12.2320 C.3   179  MET179      0.0692
      9  N          8.7050   -2.0710   17.1010 N.am  180  ALA180     -0.1966
     10  CA         8.6590   -1.5130   18.4460 C.3   180  ALA180      0.1728
     11  C          7.3750   -1.8300   19.2210 C.2   180  ALA180      0.2616
     12  O          7.3330   -1.6770   20.4400 O.2   180  ALA180     -0.2715
     13  CB         8.8970   -0.0090   18.3950 C.3   180  ALA180      0.0334
     14  N          6.3360   -2.2810   18.5260 N.am  181  TYR181     -0.1960
     15  CA         5.0270   -2.4330   19.1600 C.3   181  TYR181      0.1771
     16  C          4.4310   -3.8370   19.1090 C.2   181  TYR181      0.2620
     17  O          3.6450   -4.2090   19.9790 O.2   181  TYR181     -0.2715
     18  CB         4.0290   -1.4250   18.5770 C.3   181  TYR181      0.0574
     19  CG         4.2410   -0.0190   19.0900 C.ar  181  TYR181     -0.0198
     20  CD1        3.3740    0.5370   20.0210 C.ar  181  TYR181     -0.0009
     21  CD2        5.3270    0.7430   18.6660 C.ar  181  TYR181     -0.0009
     22  CE1        3.5710    1.8160   20.5020 C.ar  181  TYR181      0.0417
     23  CE2        5.5360    2.0210   19.1500 C.ar  181  TYR181      0.0417
     24  CZ         4.6530    2.5510   20.0650 C.ar  181  TYR181      0.1957
     25  OH         4.8450    3.8190   20.5490 O.3   181  TYR181     -0.2866
     26  N          4.7910   -4.6150   18.0960 N.am  182  SER182     -0.1936
     27  CA         4.1080   -5.8790   17.8610 C.3   182  SER182      0.2055
     28  C          4.5120   -6.9230   18.8840 C.2   182  SER182      0.2643
     29  O          5.5680   -6.8200   19.5040 O.2   182  SER182     -0.2714
     30  CB         4.3880   -6.3980   16.4550 C.3   182  SER182      0.2130
     31  OG         5.7280   -6.8320   16.3520 O.3   182  SER182     -0.2179
     32  N          3.6580   -7.9280   19.0510 N.am  183  PHE183     -0.1959
     33  CA         3.9150   -9.0470   19.9520 C.3   183  PHE183      0.1771
     34  C          4.0130  -10.3390   19.1530 C.2   183  PHE183      0.2619
     35  O          3.2080  -10.5880   18.2640 O.2   183  PHE183     -0.2715
     36  CB         2.7860   -9.1790   20.9680 C.3   183  PHE183      0.0574
     37  CG         2.7830   -8.1100   22.0190 C.ar  183  PHE183     -0.0200
     38  CD1        3.2280   -8.3820   23.3040 C.ar  183  PHE183     -0.0042
     39  CD2        2.3310   -6.8380   21.7330 C.ar  183  PHE183     -0.0042
     40  CE1        3.2160   -7.3960   24.2850 C.ar  183  PHE183     -0.0003
     41  CE2        2.3280   -5.8530   22.7060 C.ar  183  PHE183     -0.0003
     42  CZ         2.7700   -6.1330   23.9800 C.ar  183  PHE183     -0.0000
     43  N          5.0040  -11.1600   19.4680 N.am  184  GLN184     -0.1977
     44  CA         5.1140  -12.4710   18.8490 C.3   184  GLN184      0.1601
     45  C          4.8480  -13.5760   19.8690 C.2   184  GLN184      0.2287
     46  O          5.6440  -13.7990   20.7830 O.2   184  GLN184     -0.2864
     47  CB         6.4920  -12.6680   18.2290 C.3   184  GLN184      0.0394
     48  CG         6.5810  -13.9280   17.3960 C.3   184  GLN184      0.0908
     49  CD         7.9850  -14.2190   16.9440 C.2   184  GLN184      0.2608
     50  OE1        8.8920  -13.4010   17.1270 O.2   184  GLN184     -0.2717
     51  NE2        8.1830  -15.3920   16.3500 N.am  184  GLN184     -0.0878
     52  N          0.3100   -2.8840   24.3540 N.3   200  ASP200     -0.1239
     53  CA         1.4020   -2.1200   23.7550 C.3   200  ASP200      0.1674
     54  C          1.4950   -0.6800   24.2670 C.2   200  ASP200      0.2266
     55  O          2.2350    0.1280   23.7270 O.2   200  ASP200     -0.2867
     56  CB         1.4120   -2.1950   22.2170 C.3   200  ASP200      0.1410
     57  CG         0.1700   -1.5980   21.5780 C.2   200  ASP200      0.3668
     58  OD1       -0.5220   -0.7790   22.2200 O.co2 200  ASP200     -0.2456
     59  OD2       -0.1040   -1.9480   20.4090 O.co2 200  ASP200     -0.2456
     60  N         -0.6130  -15.6870   27.7510 N.3   214  TYR214     -0.1241
     61  CA        -1.4840  -16.1070   26.6670 C.3   214  TYR214      0.1605
     62  C         -2.4040  -17.2480   27.1020 C.2   214  TYR214      0.2264
     63  O         -1.9490  -18.2390   27.6770 O.2   214  TYR214     -0.2867
     64  CB        -0.6400  -16.5770   25.4860 C.3   214  TYR214      0.0534
     65  CG         0.1260  -15.4780   24.7840 C.ar  214  TYR214     -0.0201
     66  CD1       -0.4460  -14.7860   23.7310 C.ar  214  TYR214     -0.0009
     67  CD2        1.4180  -15.1380   25.1640 C.ar  214  TYR214     -0.0009
     68  CE1        0.2360  -13.7870   23.0750 C.ar  214  TYR214      0.0417
     69  CE2        2.1120  -14.1350   24.5080 C.ar  214  TYR214      0.0417
     70  CZ         1.5060  -13.4650   23.4580 C.ar  214  TYR214      0.1957
     71  OH         2.1540  -12.4610   22.7740 O.3   214  TYR214     -0.2866
     72  N          6.1810   -3.6520   31.4830 N.3   235  ASN235     -0.1225
     73  CA         6.1870   -4.9530   30.8350 C.3   235  ASN235      0.1785
     74  C          7.6280   -5.3560   30.5370 C.2   235  ASN235      0.2598
     75  O          8.5530   -4.5740   30.7460 O.2   235  ASN235     -0.2718
     76  CB         5.3890   -4.8550   29.5350 C.3   235  ASN235      0.1169
     77  CG         5.1830   -6.1950   28.8590 C.2   235  ASN235      0.2627
     78  OD1        5.3030   -7.2510   29.4850 O.2   235  ASN235     -0.2716
     79  ND2        4.8560   -6.1570   27.5700 N.am  235  ASN235     -0.0877
     80  N          7.8230   -6.5770   30.0550 N.am  236  THR236     -0.1939
     81  CA         9.1060   -6.9720   29.4980 C.3   236  THR236      0.2028
     82  C          8.9090   -7.2890   28.0230 C.2   236  THR236      0.2642
     83  O          8.0050   -8.0370   27.6580 O.2   236  THR236     -0.2714
     84  CB         9.7060   -8.2000   30.2250 C.3   236  THR236      0.1808
     85  OG1       10.8600   -8.6660   29.5130 O.3   236  THR236     -0.2208
     86  CG2        8.6940   -9.3300   30.3080 C.3   236  THR236      0.0379
     87  N          9.7420   -6.7010   27.1750 N.am  237  TYR237     -0.1973
     88  CA         9.7100   -6.9750   25.7400 C.3   237  TYR237      0.1639
     89  C         10.5380   -8.2210   25.4260 C.2   237  TYR237      0.2290
     90  O         10.6080   -8.6640   24.2830 O.2   237  TYR237     -0.2864
     91  CB        10.2590   -5.7760   24.9510 C.3   237  TYR237      0.0560
     92  CG         9.4950   -4.4800   25.1640 C.ar  237  TYR237     -0.0198
     93  CD1        8.2390   -4.4760   25.7550 C.ar  237  TYR237     -0.0009
     94  CD2       10.0270   -3.2640   24.7600 C.ar  237  TYR237     -0.0009
     95  CE1        7.5430   -3.2980   25.9480 C.ar  237  TYR237      0.0417
     96  CE2        9.3380   -2.0860   24.9430 C.ar  237  TYR237      0.0417
     97  CZ         8.0990   -2.1100   25.5400 C.ar  237  TYR237      0.1957
     98  OH         7.4080   -0.9390   25.7290 O.3   237  TYR237     -0.2866
     99  N         13.6680   -0.7210   19.1510 N.3   249  TYR249     -0.1241
    100  CA        12.7500    0.1130   19.9170 C.3   249  TYR249      0.1605
    101  C         13.1300    1.5890   20.0110 C.2   249  TYR249      0.2264
    102  O         12.3370    2.4000   20.4830 O.2   249  TYR249     -0.2867
    103  CB        12.5690   -0.4640   21.3200 C.3   249  TYR249      0.0534
    104  CG        11.9090   -1.8160   21.3240 C.ar  249  TYR249     -0.0201
    105  CD1       10.5220   -1.9360   21.3070 C.ar  249  TYR249     -0.0009
    106  CD2       12.6690   -2.9790   21.3450 C.ar  249  TYR249     -0.0009
    107  CE1        9.9120   -3.1780   21.3080 C.ar  249  TYR249      0.0417
    108  CE2       12.0690   -4.2230   21.3480 C.ar  249  TYR249      0.0417
    109  CZ        10.6950   -4.3150   21.3270 C.ar  249  TYR249      0.1957
    110  OH        10.1070   -5.5540   21.3240 O.3   249  TYR249     -0.2866
@<TRIPOS>BOND
     1     8     7    1
     2     7     6    1
     3     6     5    1
     4     1     2    1
     5     5     2    1
     6     2     3    1
     7    51    49   am
     8    31    30    1
     9    30    27    1
    10     3     9   am
    11     3     4    2
    12    49    50    2
    13    49    48    1
    14     9    10    1
    15    48    47    1
    16    27    26    1
    17    27    28    1
    18    26    16   am
    19    47    44    1
    20    35    34    2
    21    13    10    1
    22    10    11    1
    23    14    15    1
    24    14    11   am
    25    18    19    1
    26    18    15    1
    27    21    19   ar
    28    21    23   ar
    29    44    43    1
    30    44    45    1
    31    28    32   am
    32    28    29    2
    33    32    33    1
    34    19    20   ar
    35    16    15    1
    36    16    17    2
    37    23    24   ar
    38    99   100    1
    39    34    43   am
    40    34    33    1
    41    11    12    2
    42    45    46    2
    43   100   101    1
    44   100   103    1
    45    33    36    1
    46   101   102    2
    47    20    22   ar
    48    24    22   ar
    49    24    25    1
    50    59    57   ar
    51    36    37    1
    52   105   107   ar
    53   105   104   ar
    54   107   109   ar
    55   103   104    1
    56   104   106   ar
    57   110   109    1
    58   109   108   ar
    59   106   108   ar
    60    57    56    1
    61    57    58   ar
    62    39    37   ar
    63    39    41   ar
    64    37    38   ar
    65    56    53    1
    66    41    42   ar
    67    71    70    1
    68    68    70   ar
    69    68    66   ar
    70    38    40   ar
    71    70    69   ar
    72    55    54    2
    73    66    65   ar
    74    53    54    1
    75    53    52    1
    76    42    40   ar
    77    90    89    2
    78    69    67   ar
    79    94    96   ar
    80    94    92   ar
    81    65    67   ar
    82    65    64    1
    83    96    97   ar
    84    91    92    1
    85    91    88    1
    86    92    93   ar
    87    89    88    1
    88    64    61    1
    89    97    98    1
    90    97    95   ar
    91    88    87    1
    92    93    95   ar
    93    61    62    1
    94    61    60    1
    95    62    63    2
    96    87    82   am
    97    79    77   am
    98    83    82    2
    99    82    81    1
   100    77    78    2
   101    77    76    1
   102    81    80    1
   103    81    84    1
   104    85    84    1
   105    76    73    1
   106    80    74   am
   107    84    86    1
   108    74    75    2
   109    74    73    1
   110    73    72    1
