@<TRIPOS>MOLECULE
tmp/3rc0A00.pdb
 217 216 0 0 0
SMALL
GASTEIGER

@<TRIPOS>ATOM
      1  N          6.9890   32.4670  -11.6210 N.3    78  SER78      -0.1202
      2  CA         7.5630   31.1740  -11.9780 C.3    78  SER78       0.2020
      3  C          8.8750   30.8940  -11.2620 C.2    78  SER78       0.2619
      4  O          9.1520   29.7610  -10.8840 O.2    78  SER78      -0.2717
      5  CB         7.8020   31.1220  -13.4790 C.3    78  SER78       0.2103
      6  OG         8.6720   32.1730  -13.8540 O.3    78  SER78      -0.2182
      7  N          9.6870   31.9270  -11.0890 N.am   79  GLY79      -0.1942
      8  CA        10.9940   31.7650  -10.4890 C.3    79  GLY79       0.2014
      9  C         12.0410   31.3880  -11.5170 C.2    79  GLY79       0.2638
     10  O         13.1300   30.9560  -11.1580 O.2    79  GLY79      -0.2714
     11  N         11.7130   31.5730  -12.7970 N.am   80  TRP80      -0.1973
     12  CA        12.5680   31.1410  -13.9090 C.3    80  TRP80       0.1640
     13  C         13.4190   32.2300  -14.5160 C.2    80  TRP80       0.2290
     14  O         14.2620   31.9390  -15.3630 O.2    80  TRP80      -0.2864
     15  CB        11.7250   30.5720  -15.0390 C.3    80  TRP80       0.0576
     16  CG        11.0110   29.3420  -14.6800 C.ar   80  TRP80       0.0006
     17  CD1       11.0970   28.6650  -13.5060 C.ar   80  TRP80       0.0946
     18  CD2       10.0860   28.6250  -15.4980 C.ar   80  TRP80       0.0152
     19  NE1       10.2830   27.5630  -13.5360 N.ar   80  TRP80      -0.2442
     20  CE2        9.6490   27.5120  -14.7480 C.ar   80  TRP80       0.0810
     21  CE3        9.5810   28.8150  -16.7900 C.ar   80  TRP80       0.0012
     22  CZ2        8.7300   26.5870  -15.2460 C.ar   80  TRP80       0.0191
     23  CZ3        8.6710   27.8990  -17.2880 C.ar   80  TRP80       0.0001
     24  CH2        8.2550   26.7930  -16.5160 C.ar   80  TRP80       0.0015
     25  N         12.2770   25.9350  -21.5530 N.3   178  VAL178     -0.1231
     26  CA        12.4230   25.6240  -20.1410 C.3   178  VAL178      0.1692
     27  C         11.2770   24.7270  -19.6830 C.2   178  VAL178      0.2592
     28  O         11.4870   23.7490  -18.9730 O.2   178  VAL178     -0.2718
     29  CB        12.4760   26.8960  -19.2810 C.3   178  VAL178      0.0266
     30  CG1       12.2550   26.5550  -17.8080 C.3   178  VAL178      0.0020
     31  CG2       13.8040   27.6170  -19.4930 C.3   178  VAL178      0.0020
     32  N         10.0680   25.0620  -20.1140 N.am  179  MET179     -0.1965
     33  CA         8.8980   24.2520  -19.8260 C.3   179  MET179      0.1736
     34  C          9.0700   22.8110  -20.2760 C.2   179  MET179      0.2616
     35  O          8.7240   21.8810  -19.5530 O.2   179  MET179     -0.2715
     36  CB         7.6780   24.8260  -20.5360 C.3   179  MET179      0.0427
     37  CG         7.0450   26.0050  -19.8470 C.3   179  MET179      0.0599
     38  SD         5.3620   26.2790  -20.4410 S.3   179  MET179     -0.1393
     39  CE         5.6680   27.0170  -22.0250 C.3   179  MET179      0.0692
     40  N          9.5950   22.6340  -21.4820 N.am  180  ALA180     -0.1963
     41  CA         9.6360   21.3200  -22.1090 C.3   180  ALA180      0.1728
     42  C         10.9440   20.5540  -21.8750 C.2   180  ALA180      0.2616
     43  O         10.9790   19.3330  -22.0190 O.2   180  ALA180     -0.2715
     44  CB         9.3490   21.4440  -23.6170 C.3   180  ALA180      0.0334
     45  N         12.0120   21.2590  -21.5160 N.am  181  TYR181     -0.1960
     46  CA        13.3370   20.6370  -21.4470 C.3   181  TYR181      0.1771
     47  C         13.9710   20.5970  -20.0530 C.2   181  TYR181      0.2620
     48  O         14.7810   19.7160  -19.7670 O.2   181  TYR181     -0.2715
     49  CB        14.2950   21.2950  -22.4520 C.3   181  TYR181      0.0574
     50  CG        14.0970   20.8010  -23.8680 C.ar  181  TYR181     -0.0198
     51  CD1       14.9850   19.9010  -24.4390 C.ar  181  TYR181     -0.0009
     52  CD2       13.0030   21.2050  -24.6170 C.ar  181  TYR181     -0.0009
     53  CE1       14.8020   19.4310  -25.7180 C.ar  181  TYR181      0.0417
     54  CE2       12.8120   20.7420  -25.9040 C.ar  181  TYR181      0.0417
     55  CZ        13.7150   19.8530  -26.4450 C.ar  181  TYR181      0.1957
     56  OH        13.5310   19.3860  -27.7200 O.3   181  TYR181     -0.2866
     57  N         13.6030   21.5440  -19.1920 N.am  182  SER182     -0.1936
     58  CA        14.2750   21.6990  -17.9050 C.3   182  SER182      0.2055
     59  C         13.9120   20.6070  -16.8960 C.2   182  SER182      0.2643
     60  O         12.8690   19.9670  -17.0060 O.2   182  SER182     -0.2714
     61  CB        13.9970   23.0840  -17.3100 C.3   182  SER182      0.2130
     62  OG        12.6920   23.1580  -16.7660 O.3   182  SER182     -0.2179
     63  N         14.7940   20.4030  -15.9210 N.am  183  PHE183     -0.1959
     64  CA        14.5250   19.5250  -14.7800 C.3   183  PHE183      0.1771
     65  C         14.4320   20.3350  -13.4860 C.2   183  PHE183      0.2619
     66  O         15.2000   21.2700  -13.2750 O.2   183  PHE183     -0.2715
     67  CB        15.6170   18.4570  -14.6310 C.3   183  PHE183      0.0574
     68  CG        15.6280   17.4380  -15.7330 C.ar  183  PHE183     -0.0200
     69  CD1       15.2450   16.1300  -15.4920 C.ar  183  PHE183     -0.0042
     70  CD2       16.0140   17.7850  -17.0120 C.ar  183  PHE183     -0.0042
     71  CE1       15.2580   15.1920  -16.5140 C.ar  183  PHE183     -0.0003
     72  CE2       16.0280   16.8500  -18.0260 C.ar  183  PHE183     -0.0003
     73  CZ        15.6480   15.5570  -17.7750 C.ar  183  PHE183     -0.0000
     74  N         13.4890   19.9770  -12.6240 N.am  184  GLN184     -0.1977
     75  CA        13.4070   20.5870  -11.3030 C.3   184  GLN184      0.1601
     76  C         13.7070   19.5330  -10.2460 C.2   184  GLN184      0.2287
     77  O         12.9560   18.5810  -10.0980 O.2   184  GLN184     -0.2864
     78  CB        12.0230   21.1880  -11.0550 C.3   184  GLN184      0.0394
     79  CG        11.9500   22.0210   -9.7840 C.3   184  GLN184      0.0908
     80  CD        10.5300   22.2730   -9.3170 C.2   184  GLN184      0.2608
     81  OE1        9.5610   21.8840   -9.9730 O.2   184  GLN184     -0.2717
     82  NE2       10.3990   22.9320   -8.1700 N.am  184  GLN184     -0.0878
     83  N         13.7420   17.5910   -6.9010 N.3   186  PRO186     -0.2116
     84  CA        12.8640   17.5660   -5.7240 C.3   186  PRO186      0.1372
     85  C         13.6240   18.0230   -4.4770 C.2   186  PRO186      0.2244
     86  O         14.8310   17.7970   -4.3880 O.2   186  PRO186     -0.2868
     87  CB        12.4760   16.0870   -5.5900 C.3   186  PRO186      0.0268
     88  CG        12.8890   15.4290   -6.8830 C.3   186  PRO186      0.0207
     89  CD        14.0240   16.2390   -7.4170 C.3   186  PRO186      0.0892
     90  N         11.2750   25.6650   -3.2830 N.3   191  PRO191     -0.2102
     91  CA        11.4950   24.7700   -4.4280 C.3   191  PRO191      0.1504
     92  C         12.7100   25.1710   -5.2460 C.2   191  PRO191      0.2576
     93  O         12.8880   26.3530   -5.5650 O.2   191  PRO191     -0.2718
     94  CB        10.2320   24.9500   -5.2750 C.3   191  PRO191      0.0282
     95  CG         9.2250   25.5340   -4.3590 C.3   191  PRO191      0.0208
     96  CD         9.9800   26.3600   -3.3700 C.3   191  PRO191      0.0893
     97  N         13.5430   24.1860   -5.5670 N.am  192  ASN192     -0.1961
     98  CA        14.6590   24.3960   -6.4660 C.3   192  ASN192      0.1819
     99  C         14.1680   24.9470   -7.7980 C.2   192  ASN192      0.2622
    100  O         13.1470   24.5020   -8.3280 O.2   192  ASN192     -0.2715
    101  CB        15.4100   23.0830   -6.6970 C.3   192  ASN192      0.1195
    102  CG        16.1680   22.6230   -5.4680 C.2   192  ASN192      0.2630
    103  OD1       16.8470   23.4170   -4.8060 O.2   192  ASN192     -0.2716
    104  ND2       16.0530   21.3340   -5.1510 N.am  192  ASN192     -0.0877
    105  N         14.8990   25.9150   -8.3340 N.am  193  SER193     -0.1936
    106  CA        14.6380   26.3900   -9.6820 C.3   193  SER193      0.2040
    107  C         15.1010   25.3330  -10.6910 C.2   193  SER193      0.2485
    108  O         15.9950   24.5400  -10.3950 O.2   193  SER193     -0.2729
    109  CB        15.3610   27.7150   -9.9150 C.3   193  SER193      0.2129
    110  OG        15.3940   28.0310  -11.2980 O.3   193  SER193     -0.2179
    111  N         14.4850   25.3120  -11.8830 N.am  194  PRO194     -0.2726
    112  CA        14.8400   24.3520  -12.9350 C.3   194  PRO194      0.1402
    113  C         16.2850   24.4880  -13.3970 C.2   194  PRO194      0.2269
    114  O         16.8670   25.5700  -13.3090 O.2   194  PRO194     -0.2865
    115  CB        13.9030   24.7320  -14.0910 C.3   194  PRO194      0.0296
    116  CG        13.4930   26.1550  -13.8010 C.3   194  PRO194      0.0237
    117  CD        13.4140   26.2270  -12.3100 C.3   194  PRO194      0.0939
    118  N         17.9620   15.4210  -21.2460 N.3   201  ASP201     -0.1239
    119  CA        16.8630   16.0650  -21.9750 C.3   201  ASP201      0.1674
    120  C         16.8180   15.6790  -23.4570 C.2   201  ASP201      0.2266
    121  O         16.2100   16.3650  -24.2690 O.2   201  ASP201     -0.2867
    122  CB        16.8570   17.5900  -21.7840 C.3   201  ASP201      0.1410
    123  CG        18.0280   18.2870  -22.4810 C.2   201  ASP201      0.3668
    124  OD1       18.6890   17.6560  -23.3300 O.co2 201  ASP201     -0.2456
    125  OD2       18.2800   19.4780  -22.1800 O.co2 201  ASP201     -0.2456
    126  N         14.4020    6.3030  -15.6170 N.3   212  ASN212     -0.1225
    127  CA        14.1830    7.4880  -14.7980 C.3   212  ASN212      0.1785
    128  C         15.4520    8.0340  -14.1470 C.2   212  ASN212      0.2597
    129  O         16.4330    7.3190  -13.9720 O.2   212  ASN212     -0.2718
    130  CB        13.0650    7.2780  -13.7650 C.3   212  ASN212      0.1169
    131  CG        13.4620    6.3320  -12.6460 C.2   212  ASN212      0.2627
    132  OD1       14.5900    5.8340  -12.5990 O.2   212  ASN212     -0.2716
    133  ND2       12.5330    6.0890  -11.7270 N.am  212  ASN212     -0.0877
    134  N         15.4140    9.3160  -13.8060 N.am  213  LEU213     -0.1980
    135  CA        16.5770   10.0100  -13.2730 C.3   213  LEU213      0.1596
    136  C         16.6600    9.8960  -11.7530 C.2   213  LEU213      0.2287
    137  O         15.6500    9.9670  -11.0600 O.2   213  LEU213     -0.2864
    138  CB        16.5470   11.4890  -13.6870 C.3   213  LEU213      0.0297
    139  CG        17.7730   12.3820  -13.4880 C.3   213  LEU213      0.0022
    140  CD1       18.8670   11.9720  -14.4430 C.3   213  LEU213      0.0001
    141  CD2       17.3990   13.8360  -13.7170 C.3   213  LEU213      0.0001
    142  N         18.9990   11.5420   -8.4370 N.3   215  TYR215     -0.1241
    143  CA        19.9570   12.5580   -8.0200 C.3   215  TYR215      0.1605
    144  C         20.8600   12.0070   -6.9120 C.2   215  TYR215      0.2264
    145  O         20.4110   11.2840   -6.0240 O.2   215  TYR215     -0.2867
    146  CB        19.2390   13.8220   -7.5350 C.3   215  TYR215      0.0534
    147  CG        18.4490   14.5690   -8.5970 C.ar  215  TYR215     -0.0201
    148  CD1       18.9690   15.6990   -9.2070 C.ar  215  TYR215     -0.0009
    149  CD2       17.1740   14.1540   -8.9730 C.ar  215  TYR215     -0.0009
    150  CE1       18.2410   16.4040  -10.1700 C.ar  215  TYR215      0.0417
    151  CE2       16.4430   14.8440   -9.9350 C.ar  215  TYR215      0.0417
    152  CZ        16.9830   15.9690  -10.5300 C.ar  215  TYR215      0.1957
    153  OH        16.2710   16.6630  -11.4880 O.3   215  TYR215     -0.2866
    154  N         12.2310    8.2870  -20.8240 N.3   236  ASN236     -0.1225
    155  CA        12.1500    8.8890  -19.5030 C.3   236  ASN236      0.1785
    156  C         10.6820    9.1810  -19.1490 C.2   236  ASN236      0.2598
    157  O          9.7970    9.1080  -20.0100 O.2   236  ASN236     -0.2718
    158  CB        12.9620   10.1850  -19.5160 C.3   236  ASN236      0.1169
    159  CG        13.0700   10.8400  -18.1540 C.2   236  ASN236      0.2627
    160  OD1       12.9400   10.1900  -17.1140 O.2   236  ASN236     -0.2716
    161  ND2       13.3280   12.1440  -18.1570 N.am  236  ASN236     -0.0877
    162  N         10.4200    9.4980  -17.8860 N.am  237  THR237     -0.1939
    163  CA         9.1090    9.9980  -17.4910 C.3   237  THR237      0.2028
    164  C          9.2210   11.4380  -17.0480 C.2   237  THR237      0.2642
    165  O         10.0310   11.7550  -16.1860 O.2   237  THR237     -0.2714
    166  CB         8.5030    9.2000  -16.3300 C.3   237  THR237      0.1808
    167  OG1        7.3070    9.8590  -15.8890 O.3   237  THR237     -0.2208
    168  CG2        9.4830    9.1130  -15.1620 C.3   237  THR237      0.0379
    169  N          8.4090   12.3110  -17.6350 N.am  238  TYR238     -0.1973
    170  CA         8.4250   13.7270  -17.2820 C.3   238  TYR238      0.1639
    171  C          7.6100   13.9680  -16.0210 C.2   238  TYR238      0.2290
    172  O          7.6800   15.0350  -15.4160 O.2   238  TYR238     -0.2864
    173  CB         7.8990   14.5810  -18.4420 C.3   238  TYR238      0.0560
    174  CG         8.7380   14.4640  -19.6970 C.ar  238  TYR238     -0.0198
    175  CD1        9.9660   13.8130  -19.6760 C.ar  238  TYR238     -0.0009
    176  CD2        8.3080   15.0080  -20.9020 C.ar  238  TYR238     -0.0009
    177  CE1       10.7360   13.7030  -20.8200 C.ar  238  TYR238      0.0417
    178  CE2        9.0710   14.9080  -22.0440 C.ar  238  TYR238      0.0417
    179  CZ        10.2820   14.2520  -21.9970 C.ar  238  TYR238      0.1957
    180  OH        11.0460   14.1520  -23.1300 O.3   238  TYR238     -0.2866
    181  N          1.7150   12.5250  -16.0920 N.3   241  MET241     -0.1245
    182  CA         1.2360   13.6130  -16.9330 C.3   241  MET241      0.1570
    183  C         -0.0150   13.2760  -17.7330 C.2   241  MET241      0.2261
    184  O          0.0060   12.3740  -18.5710 O.2   241  MET241     -0.2867
    185  CB         2.3470   14.0470  -17.8960 C.3   241  MET241      0.0387
    186  CG         3.6530   14.4470  -17.2200 C.3   241  MET241      0.0595
    187  SD         3.5920   16.0880  -16.4800 S.3   241  MET241     -0.1393
    188  CE         3.5020   17.1050  -17.9430 C.3   241  MET241      0.0692
    189  N         -1.7260   18.4580  -19.7620 N.3   245  GLN245     -0.1245
    190  CA        -0.4450   18.9920  -19.2840 C.3   245  GLN245      0.1566
    191  C          0.6780   18.7780  -20.2960 C.2   245  GLN245      0.2260
    192  O          1.5690   19.6180  -20.4380 O.2   245  GLN245     -0.2867
    193  CB        -0.0380   18.3390  -17.9660 C.3   245  GLN245      0.0367
    194  CG        -0.9660   18.5880  -16.7990 C.3   245  GLN245      0.0905
    195  CD        -0.6330   17.6900  -15.6190 C.2   245  GLN245      0.2608
    196  OE1       -1.0090   16.5140  -15.5890 O.2   245  GLN245     -0.2717
    197  NE2        0.1010   18.2340  -14.6500 N.am  245  GLN245     -0.0878
    198  N          2.6340   21.9660  -21.6840 N.3   249  MET249     -0.1230
    199  CA         4.0440   22.0880  -21.3190 C.3   249  MET249      0.1702
    200  C          5.0130   21.5890  -22.3830 C.2   249  MET249      0.2592
    201  O          6.1140   22.1120  -22.5060 O.2   249  MET249     -0.2718
    202  CB         4.3230   21.3380  -20.0200 C.3   249  MET249      0.0401
    203  CG         3.4010   21.7210  -18.8970 C.3   249  MET249      0.0596
    204  SD         3.6110   23.4340  -18.3780 S.3   249  MET249     -0.1393
    205  CE         5.3220   23.4540  -17.8560 C.3   249  MET249      0.0692
    206  N          4.6180   20.5750  -23.1420 N.am  250  TYR250     -0.1976
    207  CA         5.5620   19.8850  -24.0170 C.3   250  TYR250      0.1639
    208  C          5.1770   19.8710  -25.5020 C.2   250  TYR250      0.2290
    209  O          5.9580   19.4280  -26.3360 O.2   250  TYR250     -0.2864
    210  CB         5.7930   18.4470  -23.5160 C.3   250  TYR250      0.0560
    211  CG         6.4070   18.3670  -22.1300 C.ar  250  TYR250     -0.0198
    212  CD1        7.7810   18.4370  -21.9540 C.ar  250  TYR250     -0.0009
    213  CD2        5.6140   18.2330  -21.0030 C.ar  250  TYR250     -0.0009
    214  CE1        8.3450   18.3750  -20.6950 C.ar  250  TYR250      0.0417
    215  CE2        6.1690   18.1650  -19.7440 C.ar  250  TYR250      0.0417
    216  CZ         7.5340   18.2400  -19.5950 C.ar  250  TYR250      0.1957
    217  OH         8.0940   18.1710  -18.3380 O.3   250  TYR250     -0.2866
@<TRIPOS>BOND
     1    56    55    1
     2    55    54   ar
     3    55    53   ar
     4   209   208    2
     5    54    52   ar
     6    53    51   ar
     7   208   207    1
     8    52    50   ar
     9    51    50   ar
    10   121   120    2
    11   207   210    1
    12   207   206    1
    13    50    49    1
    14    44    41    1
    15   210   211    1
    16   120   119    1
    17   124   123   ar
    18   206   200   am
    19   180   179    1
    20   201   200    2
    21   123   125   ar
    22   123   122    1
    23    49    46    1
    24   200   199    1
    25   211   212   ar
    26   211   213   ar
    27    41    42    1
    28    41    40    1
    29   178   179   ar
    30   178   176   ar
    31    39    38    1
    32    43    42    2
    33   179   177   ar
    34   119   122    1
    35   119   118    1
    36   212   214   ar
    37    42    45   am
    38   198   199    1
    39    25    26    1
    40    45    46    1
    41    40    34   am
    42    46    47    1
    43   199   202    1
    44   213   215   ar
    45   176   174   ar
    46   154   155    1
    47   177   175   ar
    48   214   216   ar
    49    36    37    1
    50    36    33    1
    51    38    37    1
    52   192   191    2
    53   191   190    1
    54    34    33    1
    55    34    35    2
    56    26    27    1
    57    26    29    1
    58    32    33    1
    59    32    27   am
    60    47    48    2
    61    47    57   am
    62   202   203    1
    63   157   156    2
    64   189   190    1
    65   215   216   ar
    66   174   175   ar
    67   174   173    1
    68    27    28    2
    69   216   217    1
    70   158   155    1
    71   158   159    1
    72   155   156    1
    73    31    29    1
    74   190   193    1
    75    29    30    1
    76    57    58    1
    77   156   162   am
    78   203   204    1
    79   184   183    2
    80   173   170    1
    81   204   205    1
    82   161   159   am
    83   159   160    2
    84    72    73   ar
    85    72    70   ar
    86   193   194    1
    87   188   187    1
    88    58    61    1
    89    58    59    1
    90   185   186    1
    91   185   182    1
    92   162   163    1
    93    73    71   ar
    94   183   182    1
    95   169   170    1
    96   169   164   am
    97   163   164    1
    98   163   166    1
    99    61    62    1
   100    23    21   ar
   101    23    24   ar
   102   170   171    1
   103   186   187    1
   104   164   165    2
   105    70    68   ar
   106    60    59    2
   107   182   181    1
   108    59    63   am
   109   194   195    1
   110    21    18   ar
   111    24    22   ar
   112    71    69   ar
   113   166   167    1
   114   166   168    1
   115   171   172    2
   116    63    64    1
   117    68    69   ar
   118    68    67    1
   119   195   196    2
   120   195   197   am
   121   126   127    1
   122    18    20   ar
   123    18    16   ar
   124    14    13    2
   125    22    20   ar
   126    15    16    1
   127    15    12    1
   128   127   128    1
   129   127   130    1
   130    64    67    1
   131    64    65    1
   132    20    19   ar
   133    16    17   ar
   134    13    12    1
   135   140   139    1
   136   128   129    2
   137   128   134   am
   138   115   116    1
   139   115   112    1
   140    12    11    1
   141     6     5    1
   142   134   135    1
   143   116   117    1
   144   130   131    1
   145   141   139    1
   146   138   139    1
   147   138   135    1
   148    19    17   ar
   149    65    66    2
   150    65    74   am
   151     5     2    1
   152   113   114    2
   153   113   112    1
   154   135   136    1
   155   112   111    1
   156    11     9   am
   157   131   132    2
   158   131   133   am
   159    74    75    1
   160   117   111    1
   161     2     1    1
   162     2     3    1
   163   111   107   am
   164   136   137    2
   165     9    10    2
   166     9     8    1
   167   153   152    1
   168    75    78    1
   169    75    76    1
   170   110   109    1
   171     3     7   am
   172     3     4    2
   173     7     8    1
   174    78    79    1
   175   107   108    2
   176   107   106    1
   177   152   150   ar
   178   152   151   ar
   179    76    77    2
   180   150   148   ar
   181    81    80    2
   182   151   149   ar
   183   109   106    1
   184    79    80    1
   185   106   105    1
   186    80    82   am
   187   148   147   ar
   188   149   147   ar
   189   147   146    1
   190   142   143    1
   191   105    99   am
   192   100    99    2
   193   143   146    1
   194   143   144    1
   195    99    98    1
   196    89    83    1
   197    89    88    1
   198   144   145    2
   199    83    84    1
   200    88    87    1
   201   101    98    1
   202   101   102    1
   203    98    97    1
   204    84    87    1
   205    84    85    1
   206    97    92   am
   207    93    92    2
   208   102   104   am
   209   102   103    2
   210    94    91    1
   211    94    95    1
   212    92    91    1
   213    85    86    2
   214    91    90    1
   215    95    96    1
   216    96    90    1
