@<TRIPOS>MOLECULE
tmp/3rc1A00.pdb
 145 138 0 0 0
SMALL
GASTEIGER

@<TRIPOS>ATOM
      1  N         43.2950   16.9670  -28.1300 N.3    13  ILE13      -0.1245
      2  CA        41.8880   16.6130  -27.8300 C.3    13  ILE13       0.1561
      3  C         41.1210   16.2320  -29.0910 C.2    13  ILE13       0.2260
      4  O         40.2470   15.3660  -29.0690 O.2    13  ILE13      -0.2867
      5  CB        41.1000   17.6840  -27.0440 C.3    13  ILE13       0.0252
      6  CG1       39.8200   17.0800  -26.4410 C.3    13  ILE13       0.0019
      7  CG2       40.8500   18.9630  -27.8860 C.3    13  ILE13       0.0019
      8  CD1       40.2100   15.9660  -25.4650 C.3    13  ILE13       0.0001
      9  N         42.4700   12.6000  -29.8570 N.3    16  ARG16      -0.1231
     10  CA        42.0740   11.5660  -28.8930 C.3    16  ARG16       0.1694
     11  C         40.5620   11.3490  -28.7480 C.2    16  ARG16       0.2591
     12  O         40.1310   10.1970  -28.5590 O.2    16  ARG16      -0.2718
     13  CB        42.6920   11.8930  -27.5240 C.3    16  ARG16       0.0321
     14  CG        44.1990   11.5550  -27.5270 C.3    16  ARG16       0.0489
     15  CD        44.7760   11.6040  -26.0990 C.3    16  ARG16       0.2205
     16  NE        44.5630   12.8880  -25.4410 N.pl3  16  ARG16      -0.0865
     17  CZ        43.6420   13.0900  -24.5030 C.cat  16  ARG16       0.5346
     18  NH1       43.5340   14.2990  -23.9750 N.pl3  16  ARG16       0.1354
     19  NH2       42.8250   12.1170  -24.1100 N.pl3  16  ARG16       0.1354
     20  N         39.7870   12.4300  -28.8070 N.am   17  ARG17      -0.1980
     21  CA        38.3710   12.3980  -28.3960 C.3    17  ARG17       0.1597
     22  C         37.4720   12.8220  -29.5690 C.2    17  ARG17       0.2287
     23  O         36.5800   12.0940  -30.0050 O.2    17  ARG17      -0.2864
     24  CB        38.0270   13.3640  -27.2580 C.3    17  ARG17       0.0334
     25  CG        38.7410   13.3290  -25.9110 C.3    17  ARG17       0.0492
     26  CD        38.7160   11.9350  -25.3620 C.3    17  ARG17       0.2205
     27  NE        39.2520   11.9040  -23.9890 N.pl3  17  ARG17      -0.0865
     28  CZ        39.2670   10.7600  -23.3220 C.cat  17  ARG17       0.5346
     29  NH1       38.7920    9.6880  -23.9440 N.pl3  17  ARG17       0.1354
     30  NH2       39.7620   10.6840  -22.0940 N.pl3  17  ARG17       0.1354
     31  N         39.2280   18.9290  -10.1000 N.3   152  PHE152     -0.1241
     32  CA        39.8080   18.3050  -11.3040 C.3   152  PHE152      0.1605
     33  C         41.2520   18.7960  -11.1850 C.2   152  PHE152      0.2264
     34  O         41.5430   19.9740  -11.3900 O.2   152  PHE152     -0.2867
     35  CB        39.1300   18.7430  -12.6300 C.3   152  PHE152      0.0534
     36  CG        39.4140   17.8110  -13.7880 C.ar  152  PHE152     -0.0203
     37  CD1       38.8760   18.0950  -15.0340 C.ar  152  PHE152     -0.0042
     38  CD2       40.1710   16.6470  -13.6480 C.ar  152  PHE152     -0.0042
     39  CE1       39.1030   17.2170  -16.0890 C.ar  152  PHE152     -0.0003
     40  CE2       40.4200   15.7870  -14.7150 C.ar  152  PHE152     -0.0003
     41  CZ        39.8680   16.0720  -15.9380 C.ar  152  PHE152     -0.0000
     42  N         45.4880   17.5270  -12.1390 N.3   154  ILE154     -0.1231
     43  CA        46.2850   16.6060  -12.9370 C.3   154  ILE154      0.1678
     44  C         47.7760   16.8310  -12.6820 C.2   154  ILE154      0.2434
     45  O         48.1630   17.9180  -12.2430 O.2   154  ILE154     -0.2733
     46  CB        46.0300   16.7680  -14.4730 C.3   154  ILE154      0.0265
     47  CG1       46.6240   18.1000  -14.9590 C.3   154  ILE154      0.0019
     48  CG2       44.5230   16.6490  -14.7130 C.3   154  ILE154      0.0020
     49  CD1       46.6190   18.2820  -16.5060 C.3   154  ILE154      0.0001
     50  N         48.5720   15.7890  -12.9280 N.am  155  PRO155     -0.2729
     51  CA        50.0250   15.9350  -12.7930 C.3   155  PRO155      0.1401
     52  C         50.5520   16.8600  -13.8930 C.2   155  PRO155      0.2269
     53  O         49.9360   17.0090  -14.9510 O.2   155  PRO155     -0.2865
     54  CB        50.5540   14.5150  -13.0370 C.3   155  PRO155      0.0296
     55  CG        49.4130   13.5880  -12.7460 C.3   155  PRO155      0.0237
     56  CD        48.1760   14.3940  -13.1800 C.3   155  PRO155      0.0939
     57  N         51.9970   18.7450  -16.9450 N.3   157  LYS157     -0.1245
     58  CA        52.0730   18.4400  -18.3730 C.3   157  LYS157      0.1561
     59  C         53.5290   18.6750  -18.8090 C.2   157  LYS157      0.2260
     60  O         54.2760   19.4140  -18.1700 O.2   157  LYS157     -0.2867
     61  CB        51.1200   19.3670  -19.1480 C.3   157  LYS157      0.0271
     62  CG        49.6340   18.9830  -19.1980 C.3   157  LYS157      0.0035
     63  CD        49.4280   18.0790  -20.4130 C.3   157  LYS157      0.0206
     64  CE        48.0000   17.9550  -20.9420 C.3   157  LYS157      0.1093
     65  NZ        47.7950   16.5470  -21.4250 N.3   157  LYS157     -0.1314
     66  N         49.1340   24.9360  -21.8390 N.3   163  ARG163     -0.1245
     67  CA        48.5280   25.4020  -20.5950 C.3   163  ARG163      0.1563
     68  C         49.4910   26.2500  -19.7820 C.2   163  ARG163      0.2260
     69  O         49.0520   26.9880  -18.9030 O.2   163  ARG163     -0.2867
     70  CB        48.0180   24.2220  -19.7610 C.3   163  ARG163      0.0307
     71  CG        46.8800   23.4900  -20.4780 C.3   163  ARG163      0.0489
     72  CD        46.4610   22.1490  -19.8650 C.3   163  ARG163      0.2205
     73  NE        45.4110   21.5400  -20.6880 N.pl3 163  ARG163     -0.0865
     74  CZ        45.6220   20.9210  -21.8490 C.cat 163  ARG163      0.5346
     75  NH1       46.8480   20.7870  -22.3480 N.pl3 163  ARG163      0.1354
     76  NH2       44.5970   20.4110  -22.5200 N.pl3 163  ARG163      0.1354
     77  N         41.7420   26.4810  -18.2400 N.3   175  ASP175     -0.1225
     78  CA        41.6870   25.2040  -18.9310 C.3   175  ASP175      0.1805
     79  C         41.1250   24.0660  -18.0830 C.2   175  ASP175      0.2597
     80  O         40.6100   23.0990  -18.6390 O.2   175  ASP175     -0.2718
     81  CB        43.0390   24.7910  -19.5090 C.3   175  ASP175      0.1424
     82  CG        43.1430   25.1450  -20.9770 C.2   175  ASP175      0.3668
     83  OD1       43.3380   26.3400  -21.2410 O.co2 175  ASP175     -0.2456
     84  OD2       42.9670   24.2830  -21.8620 O.co2 175  ASP175     -0.2456
     85  N         41.2350   24.1560  -16.7640 N.am  176  ILE176     -0.1980
     86  CA        40.8640   22.9680  -15.9720 C.3   176  ILE176      0.1595
     87  C         39.8610   23.3910  -14.9010 C.2   176  ILE176      0.2287
     88  O         38.9000   22.6500  -14.6560 O.2   176  ILE176     -0.2864
     89  CB        42.1070   22.4090  -15.2360 C.3   176  ILE176      0.0276
     90  CG1       43.1370   21.9410  -16.2750 C.3   176  ILE176      0.0022
     91  CG2       41.7320   21.1980  -14.3420 C.3   176  ILE176      0.0022
     92  CD1       44.5350   21.6140  -15.7090 C.3   176  ILE176      0.0001
     93  N         36.0290   23.1170  -15.4280 N.3   179  TYR179     -0.1241
     94  CA        35.2240   21.9150  -15.2190 C.3   179  TYR179      0.1605
     95  C         34.4690   21.9250  -13.8710 C.2   179  TYR179      0.2264
     96  O         33.2420   21.7840  -13.8540 O.2   179  TYR179     -0.2867
     97  CB        36.0800   20.6450  -15.3470 C.3   179  TYR179      0.0534
     98  CG        36.6030   20.3160  -16.7340 C.ar  179  TYR179     -0.0201
     99  CD1       35.8900   19.5190  -17.6190 C.ar  179  TYR179     -0.0009
    100  CD2       37.8280   20.8110  -17.1510 C.ar  179  TYR179     -0.0009
    101  CE1       36.4490   19.1870  -18.8530 C.ar  179  TYR179      0.0417
    102  CE2       38.3740   20.4800  -18.3850 C.ar  179  TYR179      0.0417
    103  CZ        37.6670   19.6880  -19.2480 C.ar  179  TYR179      0.1957
    104  OH        38.2360   19.3490  -20.4640 O.3   179  TYR179     -0.2866
    105  N         46.3180   13.0640   -9.7810 N.3   233  TYR233     -0.1241
    106  CA        45.0740   13.0940  -10.5380 C.3   233  TYR233      0.1605
    107  C         43.9000   12.9450   -9.5660 C.2   233  TYR233      0.2264
    108  O         43.8110   11.9960   -8.7640 O.2   233  TYR233     -0.2867
    109  CB        45.0960   11.8830  -11.4580 C.3   233  TYR233      0.0534
    110  CG        43.9100   11.8520  -12.4080 C.ar  233  TYR233     -0.0201
    111  CD1       42.8650   10.9670  -12.1740 C.ar  233  TYR233     -0.0009
    112  CD2       43.8750   12.7010  -13.4900 C.ar  233  TYR233     -0.0009
    113  CE1       41.7870   10.9250  -13.0560 C.ar  233  TYR233      0.0417
    114  CE2       42.8080   12.6780  -14.3780 C.ar  233  TYR233      0.0417
    115  CZ        41.7790   11.7930  -14.1330 C.ar  233  TYR233      0.1957
    116  OH        40.7230   11.6860  -15.0120 O.3   233  TYR233     -0.2866
    117  N         35.9810    9.9590  -11.4060 N.3   250  ARG250     -0.1245
    118  CA        35.9160   10.0180  -12.8700 C.3   250  ARG250      0.1563
    119  C         34.7140   10.8020  -13.3880 C.2   250  ARG250      0.2260
    120  O         34.0480   10.4410  -14.3590 O.2   250  ARG250     -0.2867
    121  CB        36.1150    8.6640  -13.5530 C.3   250  ARG250      0.0307
    122  CG        37.1910    7.7850  -12.8930 C.3   250  ARG250      0.0489
    123  CD        37.6090    6.5770  -13.8020 C.3   250  ARG250      0.2205
    124  NE        38.4620    7.0910  -14.8840 N.pl3 250  ARG250     -0.0865
    125  CZ        39.2010    6.3180  -15.6760 C.cat 250  ARG250      0.5346
    126  NH1       39.9250    6.8660  -16.6550 N.pl3 250  ARG250      0.1354
    127  NH2       39.1620    4.9940  -15.4910 N.pl3 250  ARG250      0.1354
    128  N         35.6520   13.0080  -17.0480 N.3   253  THR253     -0.1218
    129  CA        36.2210   12.3050  -18.2140 C.3   253  THR253      0.1862
    130  C         36.1860   10.7820  -18.0830 C.2   253  THR253      0.2287
    131  O         37.1990   10.0880  -18.2440 O.2   253  THR253     -0.2866
    132  CB        37.6840   12.7320  -18.4390 C.3   253  THR253      0.1770
    133  OG1       38.4060   12.5120  -17.2220 O.3   253  THR253     -0.2211
    134  CG2       37.8580   14.1910  -18.8690 C.3   253  THR253      0.0375
    135  N         31.7210   11.7300  -25.4070 N.3   281  PHE281     -0.1241
    136  CA        32.2990   12.4070  -26.5670 C.3   281  PHE281      0.1605
    137  C         31.3610   12.2480  -27.7830 C.2   281  PHE281      0.2264
    138  O         31.0140   13.1990  -28.4890 O.2   281  PHE281     -0.2867
    139  CB        33.7010   11.8140  -26.7910 C.3   281  PHE281      0.0534
    140  CG        34.4070   11.4810  -25.4770 C.ar  281  PHE281     -0.0203
    141  CD1       34.9730   12.4950  -24.6890 C.ar  281  PHE281     -0.0042
    142  CD2       34.3950   10.1850  -24.9630 C.ar  281  PHE281     -0.0042
    143  CE1       35.5660   12.2220  -23.4250 C.ar  281  PHE281     -0.0003
    144  CE2       35.0090    9.8860  -23.7710 C.ar  281  PHE281     -0.0003
    145  CZ        35.6100   10.8930  -23.0010 C.ar  281  PHE281     -0.0000
@<TRIPOS>BOND
     1    23    22    2
     2     9    10    1
     3    22    21    1
     4     3     4    2
     5     3     2    1
     6    10    11    1
     7    10    13    1
     8    20    11   am
     9    20    21    1
    10    11    12    2
    11   138   137    2
    12    21    24    1
    13     1     2    1
    14     7     5    1
    15     2     5    1
    16   137   136    1
    17    14    13    1
    18    14    15    1
    19    24    25    1
    20     5     6    1
    21   139   136    1
    22   139   140    1
    23   136   135    1
    24     6     8    1
    25    15    16    1
    26    25    26    1
    27   140   142   ar
    28   140   141   ar
    29    16    17    2
    30    26    27    1
    31   142   144   ar
    32   141   143   ar
    33    17    19    1
    34    17    18    1
    35    27    28    2
    36    29    28    1
    37   144   145   ar
    38   143   145   ar
    39    28    30    1
    40    76    74    1
    41    75    74    1
    42    84    82   ar
    43    74    73    2
    44    66    67    1
    45    65    64    1
    46    83    82   ar
    47    82    81    1
    48    64    63    1
    49    73    72    1
    50    67    68    1
    51    67    70    1
    52    71    72    1
    53    71    70    1
    54   104   103    1
    55    63    62    1
    56    68    69    2
    57    81    78    1
    58   103   101   ar
    59   103   102   ar
    60    62    61    1
    61    61    58    1
    62    78    77    1
    63    78    79    1
    64   134   132    1
    65   101    99   ar
    66    59    58    1
    67    59    60    2
    68    80    79    2
    69   132   129    1
    70   132   133    1
    71   102   100   ar
    72    58    57    1
    73   131   130    2
    74   129   130    1
    75   129   128    1
    76    79    85   am
    77    99    98   ar
    78   100    98   ar
    79    85    86    1
    80    98    97    1
    81   126   125    1
    82    49    47    1
    83    90    92    1
    84    90    89    1
    85    39    41   ar
    86    39    37   ar
    87    86    89    1
    88    86    87    1
    89    41    40   ar
    90   125   127    1
    91   125   124    2
    92    93    94    1
    93    97    94    1
    94    89    91    1
    95    94    95    1
    96    37    36   ar
    97   116   115    1
    98    47    46    1
    99    53    52    2
   100    87    88    2
   101   124   123    1
   102    40    38   ar
   103    48    46    1
   104    46    43    1
   105   114   115   ar
   106   114   112   ar
   107   120   119    2
   108   115   113   ar
   109    52    51    1
   110    95    96    2
   111   123   122    1
   112    36    38   ar
   113    36    35    1
   114   121   122    1
   115   121   118    1
   116   112   110   ar
   117   119   118    1
   118    56    50    1
   119    56    55    1
   120   113   111   ar
   121    54    51    1
   122    54    55    1
   123    43    44    1
   124    43    42    1
   125    50    51    1
   126    50    44   am
   127   118   117    1
   128    44    45    2
   129    35    32    1
   130   110   111   ar
   131   110   109    1
   132   109   106    1
   133    34    33    2
   134    32    33    1
   135    32    31    1
   136   106   105    1
   137   106   107    1
   138   107   108    2
