@<TRIPOS>MOLECULE
tmp/3rc3A00.pdb
 160 152 0 0 0
SMALL
GASTEIGER

@<TRIPOS>ATOM
      1  N         27.4150   82.0840   27.0090 N.3   136  THR136     -0.1203
      2  CA        28.3820   81.0810   26.6240 C.3   136  THR136      0.1994
      3  C         29.7920   81.7470   26.3910 C.2   136  THR136      0.2618
      4  O         29.9260   82.9950   26.1690 O.2   136  THR136     -0.2717
      5  CB        27.9220   80.3110   25.3570 C.3   136  THR136      0.1784
      6  OG1       28.8750   79.2920   25.0380 O.3   136  THR136     -0.2211
      7  CG2       27.7850   81.2410   24.1730 C.3   136  THR136      0.0376
      8  N         30.8330   80.9140   26.4730 N.am  137  ASN137     -0.1960
      9  CA        32.1850   81.3800   26.2790 C.3   137  ASN137      0.1819
     10  C         32.5900   82.4400   27.3050 C.2   137  ASN137      0.2622
     11  O         33.3550   83.3600   26.9560 O.2   137  ASN137     -0.2715
     12  CB        32.3990   81.9350   24.8610 C.3   137  ASN137      0.1195
     13  CG        33.8840   82.1930   24.5720 C.2   137  ASN137      0.2630
     14  OD1       34.7490   81.3740   24.9360 O.2   137  ASN137     -0.2716
     15  ND2       34.1840   83.3330   23.9480 N.am  137  ASN137     -0.0877
     16  N         32.1000   82.3050   28.5510 N.am  138  SER138     -0.1936
     17  CA        32.4380   83.2600   29.5920 C.3   138  SER138      0.2055
     18  C         33.2880   82.5840   30.6690 C.2   138  SER138      0.2644
     19  O         33.7010   83.2600   31.6230 O.2   138  SER138     -0.2714
     20  CB        31.1730   83.8340   30.2490 C.3   138  SER138      0.2130
     21  OG        30.3880   82.7280   30.8060 O.3   138  SER138     -0.2179
     22  N         33.4930   81.2670   30.5850 N.am  139  GLY139     -0.1939
     23  CA        34.2710   80.5360   31.6220 C.3   139  GLY139      0.2014
     24  C         33.3850   80.0920   32.8190 C.2   139  GLY139      0.2639
     25  O         33.8760   79.4740   33.8040 O.2   139  GLY139     -0.2714
     26  N         32.0900   80.3510   32.7460 N.am  140  LYS140     -0.1963
     27  CA        31.1870   79.9350   33.8440 C.3   140  LYS140      0.1728
     28  C         31.2600   78.4130   34.0070 C.2   140  LYS140      0.2617
     29  O         31.2520   77.9370   35.1460 O.2   140  LYS140     -0.2715
     30  CB        29.7470   80.3830   33.6270 C.3   140  LYS140      0.0311
     31  CG        29.0070   79.6720   32.4830 C.3   140  LYS140      0.0038
     32  CD        27.6010   80.3480   32.3560 C.3   140  LYS140      0.0206
     33  CE        26.6970   79.6610   31.3160 C.3   140  LYS140      0.1093
     34  NZ        27.1590   79.9780   29.9540 N.3   140  LYS140     -0.1314
     35  N         31.4030   77.6750   32.8880 N.am  141  THR141     -0.1937
     36  CA        31.4030   76.1800   32.9200 C.3   141  THR141      0.2028
     37  C         32.7410   75.6500   33.4000 C.2   141  THR141      0.2642
     38  O         32.7970   74.7630   34.2760 O.2   141  THR141     -0.2714
     39  CB        31.0780   75.6000   31.5190 C.3   141  THR141      0.1808
     40  OG1       29.9790   76.3640   30.9540 O.3   141  THR141     -0.2208
     41  CG2       30.7330   74.0680   31.5990 C.3   141  THR141      0.0379
     42  N         33.8170   76.2520   32.8660 N.am  142  TYR142     -0.1959
     43  CA        35.1900   75.9160   33.2540 C.3   142  TYR142      0.1771
     44  C         35.4200   75.9920   34.7670 C.2   142  TYR142      0.2619
     45  O         36.0280   75.0540   35.3580 O.2   142  TYR142     -0.2715
     46  CB        36.1780   76.7890   32.4690 C.3   142  TYR142      0.0574
     47  CG        37.6130   76.4130   32.6500 C.ar  142  TYR142     -0.0198
     48  CD1       38.2260   75.4270   31.7960 C.ar  142  TYR142     -0.0009
     49  CD2       38.3960   77.0490   33.6400 C.ar  142  TYR142     -0.0009
     50  CE1       39.5860   75.0720   31.9660 C.ar  142  TYR142      0.0417
     51  CE2       39.7160   76.6990   33.8150 C.ar  142  TYR142      0.0417
     52  CZ        40.3190   75.7500   32.9680 C.ar  142  TYR142      0.1957
     53  OH        41.6300   75.4160   33.1520 O.3   142  TYR142     -0.2866
     54  N         34.8900   77.0490   35.4100 N.am  143  HIS143     -0.1973
     55  CA        34.9780   77.2130   36.8900 C.3   143  HIS143      0.1656
     56  C         34.3090   76.0660   37.6170 C.2   143  HIS143      0.2291
     57  O         34.9300   75.4240   38.5160 O.2   143  HIS143     -0.2864
     58  CB        34.3740   78.5460   37.3590 C.3   143  HIS143      0.0771
     59  CG        35.3210   79.7180   37.2570 C.ar  143  HIS143      0.0820
     60  ND1       35.7790   80.1990   36.0450 N.ar  143  HIS143     -0.2267
     61  CD2       35.9100   80.4850   38.2130 C.ar  143  HIS143      0.1154
     62  CE1       36.5770   81.2390   36.2550 C.ar  143  HIS143      0.1986
     63  NE2       36.6850   81.4220   37.5600 N.ar  143  HIS143     -0.2212
     64  N         28.2780   65.8840   25.8280 N.3   163  LEU163     -0.1245
     65  CA        28.8870   66.6100   27.0120 C.3   163  LEU163      0.1561
     66  C         29.2230   65.6190   28.0940 C.2   163  LEU163      0.2260
     67  O         30.2590   65.7640   28.7600 O.2   163  LEU163     -0.2867
     68  CB        27.8810   67.6550   27.5780 C.3   163  LEU163      0.0270
     69  CG        27.8520   68.8850   26.6610 C.3   163  LEU163      0.0019
     70  CD1       26.6610   69.8150   26.9720 C.3   163  LEU163      0.0001
     71  CD2       29.1800   69.7340   26.8980 C.3   163  LEU163      0.0001
     72  N         37.7590   64.3780   29.6560 N.3   170  LYS170     -0.1245
     73  CA        38.6380   65.3960   30.2810 C.3   170  LYS170      0.1561
     74  C         39.0540   65.0920   31.7240 C.2   170  LYS170      0.2260
     75  O         40.2040   65.2650   32.1220 O.2   170  LYS170     -0.2867
     76  CB        38.0390   66.7860   30.1670 C.3   170  LYS170      0.0271
     77  CG        38.1220   67.2920   28.7370 C.3   170  LYS170      0.0035
     78  CD        37.4700   68.7100   28.6450 C.3   170  LYS170      0.0206
     79  CE        37.6540   69.2620   27.2110 C.3   170  LYS170      0.1093
     80  NZ        36.6830   70.3650   27.0800 N.3   170  LYS170     -0.1314
     81  N         24.5640   71.2550   34.3450 N.3   217  ASP217     -0.1239
     82  CA        24.8470   72.1450   33.2330 C.3   217  ASP217      0.1674
     83  C         23.5420   72.5960   32.5990 C.2   217  ASP217      0.2266
     84  O         22.5360   71.8790   32.7180 O.2   217  ASP217     -0.2867
     85  CB        25.6940   71.3690   32.1870 C.3   217  ASP217      0.1410
     86  CG        26.5950   72.2740   31.3440 C.2   217  ASP217      0.3668
     87  OD1       26.4790   73.5590   31.3440 O.co2 217  ASP217     -0.2456
     88  OD2       27.4550   71.6590   30.6790 O.co2 217  ASP217     -0.2456
     89  N         34.7740   85.6820   27.5140 N.3   271  LEU271     -0.1245
     90  CA        36.2270   85.6140   27.6220 C.3   271  LEU271      0.1561
     91  C         36.9060   86.4000   26.4990 C.2   271  LEU271      0.2260
     92  O         38.0010   86.8880   26.6850 O.2   271  LEU271     -0.2867
     93  CB        36.6700   84.1390   27.5700 C.3   271  LEU271      0.0270
     94  CG        36.3580   83.4350   28.8920 C.3   271  LEU271      0.0019
     95  CD1       36.5410   81.9350   28.7440 C.3   271  LEU271      0.0001
     96  CD2       37.2300   84.0560   29.9870 C.3   271  LEU271      0.0001
     97  N         24.6950   74.8390   19.0800 N.3   351  GLY351     -0.1225
     98  CA        24.5090   75.7030   20.2480 C.3   351  GLY351      0.1811
     99  C         25.2090   75.1540   21.4940 C.2   351  GLY351      0.2280
    100  O         25.6960   75.9390   22.3240 O.2   351  GLY351     -0.2866
    101  N         27.5770   71.4830   23.2340 N.3   352  GLY352     -0.1225
    102  CA        28.1410   70.1700   23.1870 C.3   352  GLY352      0.1811
    103  C         29.2440   69.9310   22.1690 C.2   352  GLY352      0.2280
    104  O         29.7350   68.8300   22.0900 O.2   352  GLY352     -0.2866
    105  N         32.9880   71.6690   20.6480 N.3   354  ASN354     -0.1240
    106  CA        33.9780   72.7440   20.6430 C.3   354  ASN354      0.1653
    107  C         34.3010   73.0530   19.2120 C.2   354  ASN354      0.2266
    108  O         34.8050   72.1820   18.5050 O.2   354  ASN354     -0.2867
    109  CB        35.1960   72.2120   21.3780 C.3   354  ASN354      0.1155
    110  CG        34.8980   72.0120   22.8180 C.2   354  ASN354      0.2627
    111  OD1       34.4960   72.9730   23.5130 O.2   354  ASN354     -0.2716
    112  ND2       35.0330   70.7910   23.2890 N.am  354  ASN354     -0.0877
    113  N         22.8400   82.1000   22.3950 N.3   377  GLN377     -0.1245
    114  CA        23.6090   80.8590   22.4700 C.3   377  GLN377      0.1566
    115  C         24.3020   80.5800   21.1070 C.2   377  GLN377      0.2260
    116  O         25.5080   80.2170   21.0710 O.2   377  GLN377     -0.2867
    117  CB        22.7910   79.6470   22.9460 C.3   377  GLN377      0.0367
    118  CG        23.7330   78.3590   23.2600 C.3   377  GLN377      0.0905
    119  CD        24.7820   78.5560   24.4550 C.2   377  GLN377      0.2608
    120  OE1       24.6320   79.4550   25.2850 O.2   377  GLN377     -0.2717
    121  NE2       25.7910   77.6590   24.5560 N.am  377  GLN377     -0.0878
    122  N         28.8150   81.1530   19.9110 N.3   381  ARG381     -0.1245
    123  CA        29.7700   80.1170   19.4530 C.3   381  ARG381      0.1563
    124  C         30.9660   80.6810   18.5950 C.2   381  ARG381      0.2260
    125  O         32.0000   79.9930   18.4620 O.2   381  ARG381     -0.2867
    126  CB        29.0100   78.9990   18.6840 C.3   381  ARG381      0.0307
    127  CG        27.7650   78.3600   19.4970 C.3   381  ARG381      0.0489
    128  CD        28.1180   78.0720   20.9300 C.3   381  ARG381      0.2205
    129  NE        28.9630   76.8870   21.1290 N.pl3 381  ARG381     -0.0865
    130  CZ        29.1730   76.2930   22.3130 C.cat 381  ARG381      0.5346
    131  NH1       28.6840   76.8150   23.4770 N.pl3 381  ARG381      0.1354
    132  NH2       29.9180   75.1900   22.3530 N.pl3 381  ARG381      0.1354
    133  N         35.4050   81.3950   20.3030 N.3   384  ARG384     -0.1231
    134  CA        35.5320   80.7040   21.6020 C.3   384  ARG384      0.1694
    135  C         36.9920   80.7530   22.1270 C.2   384  ARG384      0.2592
    136  O         37.9600   80.6460   21.3370 O.2   384  ARG384     -0.2718
    137  CB        35.0220   79.2670   21.4980 C.3   384  ARG384      0.0321
    138  CG        33.4620   79.2320   21.2680 C.3   384  ARG384      0.0489
    139  CD        32.9330   77.7710   21.0430 C.3   384  ARG384      0.2205
    140  NE        33.5200   76.7940   21.9810 N.pl3 384  ARG384     -0.0865
    141  CZ        33.1400   76.6800   23.2630 C.cat 384  ARG384      0.5346
    142  NH1       32.1900   77.4710   23.7720 N.pl3 384  ARG384      0.1354
    143  NH2       33.7010   75.7690   24.0320 N.pl3 384  ARG384      0.1354
    144  N         37.1420   80.9180   23.4410 N.am  385  PHE385     -0.1962
    145  CA        38.4440   81.0940   24.0840 C.3   385  PHE385      0.1771
    146  C         39.3800   79.9170   23.7560 C.2   385  PHE385      0.2620
    147  O         40.5880   80.0960   23.6520 O.2   385  PHE385     -0.2715
    148  CB        38.2510   81.1840   25.6000 C.3   385  PHE385      0.0574
    149  CG        39.5190   81.4320   26.3590 C.ar  385  PHE385     -0.0200
    150  CD1       40.0440   82.7240   26.4540 C.ar  385  PHE385     -0.0042
    151  CD2       40.1960   80.3820   26.9710 C.ar  385  PHE385     -0.0042
    152  CE1       41.2220   82.9480   27.1400 C.ar  385  PHE385     -0.0003
    153  CE2       41.3690   80.5990   27.6860 C.ar  385  PHE385     -0.0003
    154  CZ        41.8920   81.8780   27.7620 C.ar  385  PHE385     -0.0000
    155  N         38.7970   78.7140   23.6240 N.am  386  SER386     -0.1950
    156  CA        39.5680   77.4850   23.3610 C.3   386  SER386      0.1924
    157  C         39.8470   77.2680   21.8800 C.2   386  SER386      0.2314
    158  O         40.4130   76.2290   21.5080 O.2   386  SER386     -0.2863
    159  CB        38.8100   76.2500   23.9100 C.3   386  SER386      0.2116
    160  OG        37.4270   76.2830   23.4710 O.3   386  SER386     -0.2180
@<TRIPOS>BOND
     1   125   124    2
     2   108   107    2
     3   124   123    1
     4   126   123    1
     5   126   127    1
     6    97    98    1
     7   107   106    1
     8   123   122    1
     9   127   128    1
    10    98    99    1
    11   133   134    1
    12   106   105    1
    13   106   109    1
    14   128   129    1
    15   139   138    1
    16   139   140    1
    17   116   115    2
    18   115   114    1
    19   129   130    2
    20   138   137    1
    21   136   135    2
    22   109   110    1
    23    99   100    2
    24   137   134    1
    25   158   157    2
    26   134   135    1
    27   157   156    1
    28   140   141    2
    29   104   103    2
    30   135   144   am
    31   103   102    1
    32   130   132    1
    33   130   131    1
    34   113   114    1
    35   114   117    1
    36   110   112   am
    37   110   111    2
    38   117   118    1
    39   102   101    1
    40   118   119    1
    41   141   142    1
    42   141   143    1
    43   156   155    1
    44   156   159    1
    45   144   145    1
    46   160   159    1
    47   155   146   am
    48   147   146    2
    49   146   145    1
    50    15    13   am
    51   145   148    1
    52     7     5    1
    53   119   121   am
    54   119   120    2
    55    13    12    1
    56    13    14    2
    57    12     9    1
    58     6     5    1
    59     5     2    1
    60   148   149    1
    61    64    65    1
    62     4     3    2
    63     9     8    1
    64     9    10    1
    65   149   150   ar
    66   149   151   ar
    67     3     8   am
    68     3     2    1
    69   150   152   ar
    70    91    92    2
    71    91    90    1
    72     2     1    1
    73    69    71    1
    74    69    70    1
    75    69    68    1
    76    11    10    2
    77   151   153   ar
    78    65    68    1
    79    65    66    1
    80    80    79    1
    81   152   154   ar
    82    79    78    1
    83    10    16   am
    84    89    90    1
    85    93    90    1
    86    93    94    1
    87   153   154   ar
    88    66    67    2
    89    16    17    1
    90    78    77    1
    91    77    76    1
    92    95    94    1
    93    94    96    1
    94    17    20    1
    95    17    18    1
    96    72    73    1
    97    34    33    1
    98    76    73    1
    99    20    21    1
   100    73    74    1
   101    22    18   am
   102    22    23    1
   103    18    19    2
   104    88    86   ar
   105    40    39    1
   106    33    32    1
   107    87    86   ar
   108    86    85    1
   109    39    41    1
   110    39    36    1
   111    23    24    1
   112    74    75    2
   113    48    50   ar
   114    48    47   ar
   115    50    52   ar
   116    85    82    1
   117    32    31    1
   118    46    47    1
   119    46    43    1
   120    31    30    1
   121    83    84    2
   122    83    82    1
   123    47    49   ar
   124    26    24   am
   125    26    27    1
   126    24    25    2
   127    42    43    1
   128    42    37   am
   129    35    36    1
   130    35    28   am
   131    36    37    1
   132    52    53    1
   133    52    51   ar
   134    82    81    1
   135    43    44    1
   136    37    38    2
   137    30    27    1
   138    49    51   ar
   139    27    28    1
   140    28    29    2
   141    44    45    2
   142    44    54   am
   143    54    55    1
   144    60    62   ar
   145    60    59   ar
   146    62    63   ar
   147    55    58    1
   148    55    56    1
   149    59    58    1
   150    59    61   ar
   151    63    61   ar
   152    56    57    2
