@<TRIPOS>MOLECULE
tmp/3rc4A00.pdb
 143 136 0 0 0
SMALL
GASTEIGER

@<TRIPOS>ATOM
      1  N         -2.7840   -5.8620    8.6070 N.3    60  GLN60      -0.1245
      2  CA        -3.5790   -5.4040    9.7360 C.3    60  GLN60       0.1566
      3  C         -2.6790   -4.8020   10.7960 C.2    60  GLN60       0.2260
      4  O         -1.5290   -5.2190   10.9560 O.2    60  GLN60      -0.2867
      5  CB        -4.3510   -6.5720   10.3880 C.3    60  GLN60       0.0367
      6  CG        -5.2530   -7.4140    9.5020 C.3    60  GLN60       0.0905
      7  CD        -5.9920   -8.4770   10.3240 C.2    60  GLN60       0.2608
      8  OE1       -6.3810   -8.2270   11.4710 O.2    60  GLN60      -0.2717
      9  NE2       -6.1600   -9.6660    9.7540 N.am   60  GLN60      -0.0878
     10  N         -3.1070   -3.9750   14.9630 N.3    62  PHE62      -0.1241
     11  CA        -3.9410   -4.2790   16.1230 C.3    62  PHE62       0.1605
     12  C         -3.0910   -4.1600   17.3790 C.2    62  PHE62       0.2264
     13  O         -2.0460   -3.5280   17.3670 O.2    62  PHE62      -0.2867
     14  CB        -4.6790   -5.6210   15.9390 C.3    62  PHE62       0.0534
     15  CG        -3.8010   -6.7670   15.5250 C.ar   62  PHE62      -0.0203
     16  CD1       -3.3740   -6.8870   14.1990 C.ar   62  PHE62      -0.0042
     17  CD2       -3.4170   -7.7400   16.4380 C.ar   62  PHE62      -0.0042
     18  CE1       -2.5630   -7.9220   13.8060 C.ar   62  PHE62      -0.0003
     19  CE2       -2.6340   -8.7850   16.0500 C.ar   62  PHE62      -0.0003
     20  CZ        -2.1810   -8.8800   14.7480 C.ar   62  PHE62      -0.0000
     21  N         -7.2040  -14.0300   15.1010 N.3    76  HIS76      -0.1241
     22  CA        -7.7190  -13.5150   13.8460 C.3    76  HIS76       0.1621
     23  C         -6.8590  -12.3980   13.2650 C.2    76  HIS76       0.2264
     24  O         -6.9620  -12.1000   12.0740 O.2    76  HIS76      -0.2867
     25  CB        -9.1930  -13.1100   13.9770 C.3    76  HIS76       0.0745
     26  CG        -9.4280  -11.7950   14.6540 C.ar   76  HIS76       0.0817
     27  ND1       -9.9250  -11.6810   15.9420 N.ar   76  HIS76      -0.2268
     28  CD2       -9.3180  -10.5290   14.1810 C.ar   76  HIS76       0.1154
     29  CE1      -10.0840  -10.3980   16.2350 C.ar   76  HIS76       0.1986
     30  NE2       -9.7030   -9.6760   15.1910 N.ar   76  HIS76      -0.2212
     31  N         -9.6780  -17.6460   20.0000 N.3   100  ASP100     -0.1239
     32  CA        -9.1720  -16.4910   19.2560 C.3   100  ASP100      0.1674
     33  C         -7.9870  -15.8460   19.9810 C.2   100  ASP100      0.2266
     34  O         -7.8870  -14.6360   20.0540 O.2   100  ASP100     -0.2867
     35  CB       -10.2830  -15.4730   18.9810 C.3   100  ASP100      0.1410
     36  CG        -9.9290  -14.5010   17.8670 C.2   100  ASP100      0.3668
     37  OD1       -8.9470  -14.7550   17.1470 O.co2 100  ASP100     -0.2456
     38  OD2      -10.6090  -13.4690   17.7280 O.co2 100  ASP100     -0.2456
     39  N        -18.3760  -10.7390   27.8270 N.3   142  ARG142     -0.1245
     40  CA       -19.0400   -9.5950   27.1930 C.3   142  ARG142      0.1563
     41  C        -19.1450   -8.4170   28.1290 C.2   142  ARG142      0.2260
     42  O        -19.2700   -8.5890   29.3480 O.2   142  ARG142     -0.2867
     43  CB       -20.4460   -9.9580   26.6950 C.3   142  ARG142      0.0307
     44  CG       -21.0840   -8.8360   25.8580 C.3   142  ARG142      0.0489
     45  CD       -22.1520   -9.3280   24.9100 C.3   142  ARG142      0.2205
     46  NE       -21.6140  -10.1370   23.8170 N.pl3 142  ARG142     -0.0865
     47  CZ       -22.3270  -10.5610   22.7740 C.cat 142  ARG142      0.5346
     48  NH1      -23.6110  -10.2390   22.6600 N.pl3 142  ARG142      0.1354
     49  NH2      -21.7570  -11.3040   21.8320 N.pl3 142  ARG142      0.1354
     50  N        -18.4470    1.2670   14.7900 N.3   151  ILE151     -0.1245
     51  CA       -17.4650    0.1720   14.8200 C.3   151  ILE151      0.1561
     52  C        -16.0770    0.6040   14.3480 C.2   151  ILE151      0.2260
     53  O        -15.0690    0.0660   14.8180 O.2   151  ILE151     -0.2867
     54  CB       -17.9170   -1.0860   14.0310 C.3   151  ILE151      0.0252
     55  CG1      -18.2270   -0.7610   12.5610 C.3   151  ILE151      0.0019
     56  CG2      -19.1110   -1.7040   14.6870 C.3   151  ILE151      0.0019
     57  CD1      -18.4150   -2.0080   11.7010 C.3   151  ILE151      0.0001
     58  N        -13.4460    1.1420   17.0280 N.3   154  LEU154     -0.1231
     59  CA       -12.8180   -0.0110   17.6860 C.3   154  LEU154      0.1693
     60  C        -11.9670   -0.8650   16.7470 C.2   154  LEU154      0.2592
     61  O        -11.2610   -1.7670   17.2170 O.2   154  LEU154     -0.2718
     62  CB       -13.8740   -0.8980   18.3510 C.3   154  LEU154      0.0284
     63  CG       -14.7310   -0.2400   19.4240 C.3   154  LEU154      0.0019
     64  CD1      -15.8270   -1.2130   19.8530 C.3   154  LEU154      0.0001
     65  CD2      -13.8940    0.1770   20.6210 C.3   154  LEU154      0.0001
     66  N        -12.0420   -0.6100   15.4380 N.am  155  LYS155     -0.1966
     67  CA       -11.2580   -1.3480   14.4580 C.3   155  LYS155      0.1728
     68  C         -9.7870   -1.2170   14.8110 C.2   155  LYS155      0.2616
     69  O         -9.2750   -0.1160   15.0060 O.2   155  LYS155     -0.2715
     70  CB       -11.5150   -0.8360   13.0390 C.3   155  LYS155      0.0311
     71  CG       -10.8570   -1.6420   11.9180 C.3   155  LYS155      0.0038
     72  CD       -11.2790   -1.1030   10.5460 C.3   155  LYS155      0.0206
     73  CE       -11.0910   -2.1370    9.4460 C.3   155  LYS155      0.1093
     74  NZ        -9.6660   -2.4280    9.1840 N.3   155  LYS155     -0.1314
     75  N         -9.1070   -2.3480   14.9200 N.am  156  GLY156     -0.1955
     76  CA        -7.6840   -2.3500   15.2290 C.3   156  GLY156      0.1869
     77  C         -7.3660   -2.3730   16.7070 C.2   156  GLY156      0.2309
     78  O         -6.2000   -2.2960   17.0630 O.2   156  GLY156     -0.2863
     79  N         -8.4910   -4.9870   18.7200 N.3   158  ALA158     -0.1245
     80  CA        -8.4080   -6.3750   19.1450 C.3   158  ALA158      0.1562
     81  C         -7.0040   -6.6800   19.6520 C.2   158  ALA158      0.2260
     82  O         -6.0060   -6.2580   19.0670 O.2   158  ALA158     -0.2867
     83  CB        -8.8060   -7.3370   18.0120 C.3   158  ALA158      0.0290
     84  N         -9.6040   -7.6970   24.5540 N.3   173  PHE173     -0.1227
     85  CA       -10.6670   -7.3730   23.6070 C.3   173  PHE173      0.1736
     86  C        -10.5660   -8.2110   22.3120 C.2   173  PHE173      0.2595
     87  O         -9.4860   -8.3450   21.7400 O.2   173  PHE173     -0.2718
     88  CB       -10.6200   -5.8780   23.2830 C.3   173  PHE173      0.0547
     89  CG       -11.5830   -5.4370   22.1970 C.ar  173  PHE173     -0.0202
     90  CD1      -12.9350   -5.7490   22.2600 C.ar  173  PHE173     -0.0042
     91  CD2      -11.1350   -4.7230   21.1120 C.ar  173  PHE173     -0.0042
     92  CE1      -13.8040   -5.3330   21.2730 C.ar  173  PHE173     -0.0003
     93  CE2      -12.0110   -4.3020   20.1100 C.ar  173  PHE173     -0.0003
     94  CZ       -13.3360   -4.6130   20.1890 C.ar  173  PHE173     -0.0000
     95  N        -11.6890   -8.7810   21.8710 N.am  174  ARG174     -0.1966
     96  CA       -11.7330   -9.7110   20.7300 C.3   174  ARG174      0.1729
     97  C        -12.5020   -9.1210   19.5370 C.2   174  ARG174      0.2616
     98  O        -12.0330   -9.1300   18.3930 O.2   174  ARG174     -0.2715
     99  CB       -12.3910  -11.0490   21.1850 C.3   174  ARG174      0.0348
    100  CG       -12.5140  -12.0610   20.0940 C.3   174  ARG174      0.0492
    101  CD       -12.8620  -13.4330   20.6390 C.3   174  ARG174      0.2205
    102  NE       -14.2090  -13.5370   21.2080 N.pl3 174  ARG174     -0.0865
    103  CZ       -15.3340  -13.5530   20.5000 C.cat 174  ARG174      0.5346
    104  NH1      -16.5050  -13.6860   21.1230 N.pl3 174  ARG174      0.1354
    105  NH2      -15.3110  -13.4500   19.1760 N.pl3 174  ARG174      0.1354
    106  N        -13.7060   -8.6360   19.8090 N.am  175  ALA175     -0.1963
    107  CA       -14.5940   -8.1870   18.7460 C.3   175  ALA175      0.1728
    108  C        -15.6890   -7.2810   19.2700 C.2   175  ALA175      0.2616
    109  O        -16.1560   -7.4350   20.3900 O.2   175  ALA175     -0.2715
    110  CB       -15.2050   -9.3790   18.0520 C.3   175  ALA175      0.0334
    111  N        -16.0870   -6.3330   18.4240 N.am  176  ALA176     -0.1963
    112  CA       -17.2200   -5.4750   18.7030 C.3   176  ALA176      0.1728
    113  C        -18.5060   -6.2390   18.4590 C.2   176  ALA176      0.2616
    114  O        -18.5730   -7.1300   17.6070 O.2   176  ALA176     -0.2715
    115  CB       -17.1890   -4.2440   17.8020 C.3   176  ALA176      0.0334
    116  N        -19.5430   -5.8430   19.1770 N.am  177  VAL177     -0.1963
    117  CA       -20.8690   -6.3330   18.9360 C.3   177  VAL177      0.1727
    118  C        -21.5990   -5.1370   18.3580 C.2   177  VAL177      0.2617
    119  O        -21.7160   -4.1170   19.0210 O.2   177  VAL177     -0.2715
    120  CB       -21.5400   -6.7900   20.2400 C.3   177  VAL177      0.0290
    121  CG1      -22.9420   -7.3240   19.9560 C.3   177  VAL177      0.0023
    122  CG2      -20.6720   -7.8360   20.9500 C.3   177  VAL177      0.0023
    123  N        -22.0680   -5.2410   17.1250 N.am  178  SER178     -0.1936
    124  CA       -22.5620   -4.0660   16.4260 C.3   178  SER178      0.2055
    125  C        -23.9130   -4.2790   15.7750 C.2   178  SER178      0.2643
    126  O        -24.2690   -5.3960   15.4080 O.2   178  SER178     -0.2714
    127  CB       -21.5450   -3.6340   15.3780 C.3   178  SER178      0.2130
    128  OG       -21.5110   -4.5320   14.2820 O.3   178  SER178     -0.2179
    129  N        -24.6560   -3.1860   15.6430 N.am  179  THR179     -0.1950
    130  CA       -25.9240   -3.1750   14.9220 C.3   179  THR179      0.1897
    131  C        -25.9480   -1.9350   14.0440 C.2   179  THR179      0.2313
    132  O        -25.7870   -0.8220   14.5450 O.2   179  THR179     -0.2863
    133  CB       -27.1450   -3.1380   15.8640 C.3   179  THR179      0.1794
    134  OG1      -27.1240   -4.2820   16.7290 O.3   179  THR179     -0.2208
    135  CG2      -28.4250   -3.1470   15.0570 C.3   179  THR179      0.0378
    136  N        -17.0200   -8.1150   22.9470 N.3   187  ASP187     -0.1239
    137  CA       -16.6470   -9.4680   23.3060 C.3   187  ASP187      0.1674
    138  C        -15.1700   -9.4750   23.6270 C.2   187  ASP187      0.2266
    139  O        -14.3730   -8.8410   22.9490 O.2   187  ASP187     -0.2867
    140  CB       -16.9350  -10.4280   22.1580 C.3   187  ASP187      0.1410
    141  CG       -18.4050  -10.6890   21.9790 C.2   187  ASP187      0.3668
    142  OD1      -19.1230  -10.6990   22.9870 O.co2 187  ASP187     -0.2456
    143  OD2      -18.8420  -10.8970   20.8310 O.co2 187  ASP187     -0.2456
@<TRIPOS>BOND
     1     1     2    1
     2    74    73    1
     3    73    72    1
     4     6     7    1
     5     6     5    1
     6     2     5    1
     7     2     3    1
     8     9     7   am
     9     7     8    2
    10    72    71    1
    11     3     4    2
    12    57    55    1
    13    71    70    1
    14    24    23    2
    15    55    54    1
    16    70    67    1
    17    23    22    1
    18    18    16   ar
    19    18    20   ar
    20    22    25    1
    21    22    21    1
    22    25    26    1
    23    54    56    1
    24    54    51    1
    25   131   132    2
    26   131   130    1
    27    28    26   ar
    28    28    30   ar
    29    16    15   ar
    30   128   127    1
    31    52    53    2
    32    52    51    1
    33    67    68    1
    34    67    66    1
    35    26    27   ar
    36    20    19   ar
    37    50    51    1
    38    68    75   am
    39    68    69    2
    40    75    76    1
    41   130   129    1
    42   130   133    1
    43    10    11    1
    44   135   133    1
    45    30    29   ar
    46    76    77    1
    47   127   124    1
    48   126   125    2
    49    66    60   am
    50    15    14    1
    51    15    17   ar
    52   129   125   am
    53   125   124    1
    54   133   134    1
    55    14    11    1
    56    27    29   ar
    57    19    17   ar
    58    11    12    1
    59   124   123    1
    60    77    78    2
    61    60    61    2
    62    60    59    1
    63    58    59    1
    64   123   118   am
    65    37    36   ar
    66    13    12    2
    67   114   113    2
    68    59    62    1
    69    38    36   ar
    70   115   112    1
    71    36    35    1
    72    83    80    1
    73   110   107    1
    74    62    63    1
    75   118   117    1
    76   118   119    2
    77    98    97    2
    78   111   112    1
    79   111   108   am
    80   113   112    1
    81   113   116   am
    82    79    80    1
    83   107   108    1
    84   107   106    1
    85   117   116    1
    86   117   120    1
    87    35    32    1
    88    82    81    2
    89    80    81    1
    90   105   103    1
    91    32    33    1
    92    32    31    1
    93   108   109    2
    94    63    64    1
    95    63    65    1
    96    97   106   am
    97    97    96    1
    98   121   120    1
    99    33    34    2
   100   100   101    1
   101   100    99    1
   102    93    94   ar
   103    93    91   ar
   104    94    92   ar
   105   120   122    1
   106   103   104    1
   107   103   102    2
   108   101   102    1
   109    96    99    1
   110    96    95    1
   111   143   141   ar
   112    91    89   ar
   113    92    90   ar
   114    87    86    2
   115    49    47    1
   116    95    86   am
   117   141   140    1
   118   141   142   ar
   119   140   137    1
   120    89    90   ar
   121    89    88    1
   122    86    85    1
   123    48    47    1
   124    47    46    2
   125   136   137    1
   126   139   138    2
   127    88    85    1
   128   137   138    1
   129    85    84    1
   130    46    45    1
   131    45    44    1
   132    44    43    1
   133    43    40    1
   134    40    39    1
   135    40    41    1
   136    41    42    2
