@<TRIPOS>MOLECULE
tmp/3rc5A00.pdb
 167 161 0 0 0
SMALL
GASTEIGER

@<TRIPOS>ATOM
      1  N         -2.9190   -6.0340    8.6800 N.3    59  GLN59      -0.1245
      2  CA        -3.6900   -5.5560    9.8200 C.3    59  GLN59       0.1566
      3  C         -2.7520   -4.9240   10.8260 C.2    59  GLN59       0.2260
      4  O         -1.6010   -5.3490   10.9740 O.2    59  GLN59      -0.2867
      5  CB        -4.4150   -6.7130   10.5410 C.3    59  GLN59       0.0367
      6  CG        -5.4660   -7.4860    9.7520 C.3    59  GLN59       0.0905
      7  CD        -6.1860   -8.5430   10.6090 C.2    59  GLN59       0.2608
      8  OE1       -6.6740   -8.2500   11.7100 O.2    59  GLN59      -0.2717
      9  NE2       -6.2730   -9.7690   10.0940 N.am   59  GLN59      -0.0878
     10  N         -3.0830   -3.9950   14.9980 N.3    61  PHE61      -0.1241
     11  CA        -3.9280   -4.2920   16.1560 C.3    61  PHE61       0.1605
     12  C         -3.0580   -4.1890   17.4250 C.2    61  PHE61       0.2264
     13  O         -1.9950   -3.5570   17.3820 O.2    61  PHE61      -0.2867
     14  CB        -4.6880   -5.6330   15.9940 C.3    61  PHE61       0.0534
     15  CG        -3.8240   -6.8020   15.5710 C.ar   61  PHE61      -0.0203
     16  CD1       -3.4140   -6.9450   14.2580 C.ar   61  PHE61      -0.0042
     17  CD2       -3.4440   -7.7880   16.4760 C.ar   61  PHE61      -0.0042
     18  CE1       -2.6230   -8.0030   13.8700 C.ar   61  PHE61      -0.0003
     19  CE2       -2.6620   -8.8450   16.1000 C.ar   61  PHE61      -0.0003
     20  CZ        -2.2280   -8.9620   14.8080 C.ar   61  PHE61      -0.0000
     21  N         -4.9260  -11.6770   19.5120 N.3    73  VAL73      -0.1245
     22  CA        -5.9820  -12.4590   18.9160 C.3    73  VAL73       0.1561
     23  C         -5.4710  -13.3070   17.7550 C.2    73  VAL73       0.2260
     24  O         -4.6690  -12.8650   16.9310 O.2    73  VAL73      -0.2867
     25  CB        -7.1630  -11.5650   18.4220 C.3    73  VAL73       0.0252
     26  CG1       -7.9780  -11.0700   19.6240 C.3    73  VAL73       0.0019
     27  CG2       -6.6760  -10.3840   17.5870 C.3    73  VAL73       0.0019
     28  N         -7.2880  -14.1430   15.2060 N.3    75  HIS75      -0.1226
     29  CA        -7.8320  -13.6200   13.9540 C.3    75  HIS75       0.1752
     30  C         -6.9850  -12.4910   13.3560 C.2    75  HIS75       0.2596
     31  O         -7.1380  -12.1740   12.1850 O.2    75  HIS75      -0.2718
     32  CB        -9.3110  -13.2270   14.1020 C.3    75  HIS75       0.0759
     33  CG        -9.5530  -11.9190   14.7760 C.ar   75  HIS75       0.0818
     34  ND1      -10.0230  -11.8190   16.0750 N.ar   75  HIS75      -0.2268
     35  CD2       -9.4280  -10.6510   14.3170 C.ar   75  HIS75       0.1154
     36  CE1      -10.1660  -10.5390   16.3820 C.ar   75  HIS75       0.1986
     37  NE2       -9.8080   -9.8110   15.3340 N.ar   75  HIS75      -0.2212
     38  N         -6.0970  -11.9160   14.1640 N.am   76  GLY76      -0.1957
     39  CA        -5.1230  -10.9430   13.6970 C.3    76  GLY76       0.1869
     40  C         -3.7630  -11.5440   13.3820 C.2    76  GLY76       0.2309
     41  O         -3.2110  -11.3130   12.3100 O.2    76  GLY76      -0.2863
     42  N        -18.5190  -10.6080   27.9180 N.3   141  ARG141     -0.1245
     43  CA       -19.2490   -9.4800   27.3340 C.3   141  ARG141      0.1563
     44  C        -19.2390   -8.2820   28.2600 C.2   141  ARG141      0.2260
     45  O        -19.2800   -8.4300   29.4880 O.2   141  ARG141     -0.2867
     46  CB       -20.6920   -9.8770   27.0160 C.3   141  ARG141      0.0307
     47  CG       -20.8460  -10.8210   25.8170 C.3   141  ARG141      0.0489
     48  CD       -20.4930  -10.1260   24.5010 C.3   141  ARG141      0.2205
     49  NE       -20.5940  -10.9810   23.3190 N.pl3 141  ARG141     -0.0865
     50  CZ       -21.6630  -11.1010   22.5250 C.cat 141  ARG141      0.5346
     51  NH1      -22.7970  -10.4520   22.7750 N.pl3 141  ARG141      0.1354
     52  NH2      -21.5990  -11.8980   21.4660 N.pl3 141  ARG141      0.1354
     53  N        -18.4670    1.0230   14.7220 N.3   150  ILE150     -0.1245
     54  CA       -17.4850   -0.0780   14.7390 C.3   150  ILE150      0.1561
     55  C        -16.1080    0.3720   14.2430 C.2   150  ILE150      0.2260
     56  O        -15.0820   -0.1230   14.7260 O.2   150  ILE150     -0.2867
     57  CB       -17.9360   -1.3410   13.9540 C.3   150  ILE150      0.0252
     58  CG1      -18.3920   -0.9960   12.5350 C.3   150  ILE150      0.0019
     59  CG2      -19.0340   -2.0740   14.6840 C.3   150  ILE150      0.0019
     60  CD1      -18.3730   -2.1980   11.5860 C.3   150  ILE150      0.0001
     61  N        -13.5210    0.9350   16.8980 N.3   153  LEU153     -0.1231
     62  CA       -12.9550   -0.2050   17.6280 C.3   153  LEU153      0.1693
     63  C        -12.0640   -1.0930   16.7580 C.2   153  LEU153      0.2592
     64  O        -11.3300   -1.9270   17.2770 O.2   153  LEU153     -0.2718
     65  CB       -14.0820   -1.0420   18.2650 C.3   153  LEU153      0.0284
     66  CG       -14.8420   -0.3800   19.4130 C.3   153  LEU153      0.0019
     67  CD1      -16.0880   -1.1990   19.7710 C.3   153  LEU153      0.0001
     68  CD2      -13.9290   -0.1910   20.6320 C.3   153  LEU153      0.0001
     69  N        -12.1550   -0.9380   15.4340 N.am  154  LYS154     -0.1966
     70  CA       -11.3210   -1.7330   14.5250 C.3   154  LYS154      0.1728
     71  C         -9.8540   -1.4150   14.7950 C.2   154  LYS154      0.2617
     72  O         -9.4560   -0.2450   14.8650 O.2   154  LYS154     -0.2715
     73  CB       -11.6370   -1.4340   13.0610 C.3   154  LYS154      0.0311
     74  CG       -13.0420   -1.7300   12.6250 C.3   154  LYS154      0.0038
     75  CD       -13.3650   -3.2030   12.7100 C.3   154  LYS154      0.0206
     76  CE       -14.8260   -3.4430   12.4250 C.3   154  LYS154      0.1093
     77  NZ       -15.1690   -3.2780   10.9860 N.3   154  LYS154     -0.1314
     78  N         -9.0620   -2.4620   14.9930 N.am  155  GLY155     -0.1940
     79  CA        -7.6530   -2.2990   15.2840 C.3   155  GLY155      0.2014
     80  C         -7.3330   -2.3160   16.7610 C.2   155  GLY155      0.2640
     81  O         -6.1680   -2.2230   17.1400 O.2   155  GLY155     -0.2714
     82  N         -8.3520   -2.4600   17.6060 N.am  156  SER156     -0.1935
     83  CA        -8.1310   -2.5300   19.0510 C.3   156  SER156      0.2055
     84  C         -8.1210   -3.9530   19.6190 C.2   156  SER156      0.2642
     85  O         -7.7500   -4.1430   20.7820 O.2   156  SER156     -0.2714
     86  CB        -9.1600   -1.6880   19.8120 C.3   156  SER156      0.2130
     87  OG        -8.9280   -0.2940   19.6350 O.3   156  SER156     -0.2179
     88  N         -8.4880   -4.9560   18.8270 N.am  157  ALA157     -0.1977
     89  CA        -8.4210   -6.3420   19.3290 C.3   157  ALA157      0.1597
     90  C         -6.9940   -6.6370   19.8100 C.2   157  ALA157      0.2287
     91  O         -6.0190   -6.2020   19.1970 O.2   157  ALA157     -0.2864
     92  CB        -8.8530   -7.3500   18.2550 C.3   157  ALA157      0.0319
     93  N         -9.6680   -7.7120   24.6270 N.3   172  PHE172     -0.1227
     94  CA       -10.7360   -7.3530   23.6870 C.3   172  PHE172      0.1736
     95  C        -10.5440   -8.0980   22.3600 C.2   172  PHE172      0.2595
     96  O         -9.4270   -8.1950   21.8760 O.2   172  PHE172     -0.2718
     97  CB       -10.7280   -5.8380   23.4600 C.3   172  PHE172      0.0547
     98  CG       -11.6430   -5.3690   22.3600 C.ar  172  PHE172     -0.0202
     99  CD1      -13.0120   -5.6180   22.4080 C.ar  172  PHE172     -0.0042
    100  CD2      -11.1380   -4.6420   21.2750 C.ar  172  PHE172     -0.0042
    101  CE1      -13.8500   -5.1850   21.3820 C.ar  172  PHE172     -0.0003
    102  CE2      -11.9760   -4.2040   20.2620 C.ar  172  PHE172     -0.0003
    103  CZ       -13.3220   -4.4770   20.3100 C.ar  172  PHE172     -0.0000
    104  N        -11.6140   -8.6640   21.8090 N.am  173  ARG173     -0.1966
    105  CA       -11.4960   -9.3350   20.5070 C.3   173  ARG173      0.1729
    106  C        -12.5030   -8.9140   19.4420 C.2   173  ARG173      0.2616
    107  O        -12.1610   -8.9620   18.2750 O.2   173  ARG173     -0.2715
    108  CB       -11.5150  -10.8590   20.6590 C.3   173  ARG173      0.0348
    109  CG       -12.7540  -11.4690   21.2910 C.3   173  ARG173      0.0492
    110  CD       -12.8390  -12.9990   21.0060 C.3   173  ARG173      0.2205
    111  NE       -13.0090  -13.2400   19.5700 N.pl3 173  ARG173     -0.0865
    112  CZ       -14.1630  -13.2130   18.9140 C.cat 173  ARG173      0.5346
    113  NH1      -14.1770  -13.4040   17.5880 N.pl3 173  ARG173      0.1354
    114  NH2      -15.3130  -12.9770   19.5500 N.pl3 173  ARG173      0.1354
    115  N        -13.7230   -8.5140   19.8080 N.am  174  ALA174     -0.1963
    116  CA       -14.7440   -8.2240   18.8170 C.3   174  ALA174      0.1728
    117  C        -15.7990   -7.2410   19.3240 C.2   174  ALA174      0.2616
    118  O        -16.2100   -7.3140   20.4850 O.2   174  ALA174     -0.2715
    119  CB       -15.4010   -9.5230   18.3570 C.3   174  ALA174      0.0334
    120  N        -16.2050   -6.3190   18.4550 N.am  175  ALA175     -0.1963
    121  CA       -17.3250   -5.4250   18.7370 C.3   175  ALA175      0.1728
    122  C        -18.6200   -6.1960   18.5600 C.2   175  ALA175      0.2616
    123  O        -18.7250   -7.0880   17.7200 O.2   175  ALA175     -0.2715
    124  CB       -17.2990   -4.2410   17.7980 C.3   175  ALA175      0.0334
    125  N        -19.6270   -5.8300   19.3430 N.am  176  VAL176     -0.1963
    126  CA       -20.9580   -6.3600   19.1920 C.3   176  VAL176      0.1727
    127  C        -21.7740   -5.2190   18.6080 C.2   176  VAL176      0.2617
    128  O        -22.0640   -4.2460   19.3000 O.2   176  VAL176     -0.2715
    129  CB       -21.5330   -6.8330   20.5410 C.3   176  VAL176      0.0290
    130  CG1      -22.9580   -7.3610   20.3580 C.3   176  VAL176      0.0023
    131  CG2      -20.6290   -7.8970   21.1320 C.3   176  VAL176      0.0023
    132  N        -22.1260   -5.3510   17.3330 N.am  177  SER177     -0.1936
    133  CA       -22.5740   -4.2320   16.5150 C.3   177  SER177      0.2055
    134  C        -23.9580   -4.4610   15.9410 C.2   177  SER177      0.2644
    135  O        -24.3040   -5.5840   15.5720 O.2   177  SER177     -0.2714
    136  CB       -21.5890   -4.0290   15.3630 C.3   177  SER177      0.2130
    137  OG       -22.0000   -2.9640   14.5200 O.3   177  SER177     -0.2179
    138  N        -24.7390   -3.3840   15.8810 N.am  178  THR178     -0.1936
    139  CA       -26.0250   -3.3670   15.2000 C.3   178  THR178      0.2028
    140  C        -26.0400   -2.1870   14.2320 C.2   178  THR178      0.2642
    141  O        -25.9230   -1.0380   14.6520 O.2   178  THR178     -0.2714
    142  CB       -27.1820   -3.1890   16.1920 C.3   178  THR178      0.1808
    143  OG1      -27.0790   -4.1720   17.2360 O.3   178  THR178     -0.2208
    144  CG2      -28.5320   -3.3080   15.4720 C.3   178  THR178      0.0379
    145  N        -26.1710   -2.4670   12.9410 N.am  179  ARG179     -0.1963
    146  CA       -26.2260   -1.4120   11.9260 C.3   179  ARG179      0.1729
    147  C        -25.0300   -0.4530   12.0550 C.2   179  ARG179      0.2616
    148  O        -25.1820    0.7610   11.9340 O.2   179  ARG179     -0.2715
    149  CB       -27.5380   -0.6330   12.0290 C.3   179  ARG179      0.0348
    150  CG       -28.6650   -1.5870   11.6150 C.3   179  ARG179      0.0492
    151  CD       -30.0220   -0.9360   11.6990 C.3   179  ARG179      0.2205
    152  NE       -30.3310   -0.6250   13.1110 N.pl3 179  ARG179     -0.0865
    153  CZ       -30.1580    0.6510   13.4200 C.cat 179  ARG179      0.5346
    154  NH1      -29.6670    1.4060   12.4490 N.pl3 179  ARG179      0.1354
    155  NH2      -30.2620    1.0140   14.6400 N.pl3 179  ARG179      0.1354
    156  N        -23.8620   -1.0170   12.3520 N.am  180  GLY180     -0.1955
    157  CA       -22.6110   -0.2810   12.3930 C.3   180  GLY180      0.1869
    158  C        -22.2840    0.3460   13.7370 C.2   180  GLY180      0.2309
    159  O        -21.2050    0.9150   13.8950 O.2   180  GLY180     -0.2863
    160  N        -16.9790   -8.0020   23.0280 N.3   186  ASP186     -0.1239
    161  CA       -16.6850   -9.3720   23.3450 C.3   186  ASP186      0.1674
    162  C        -15.2020   -9.4450   23.6450 C.2   186  ASP186      0.2266
    163  O        -14.3850   -8.8780   22.9240 O.2   186  ASP186     -0.2867
    164  CB       -17.0310  -10.2880   22.1780 C.3   186  ASP186      0.1410
    165  CG       -17.0010  -11.7450   22.5590 C.2   186  ASP186      0.3668
    166  OD1      -17.9870  -12.2180   23.1830 O.co2 186  ASP186     -0.2456
    167  OD2      -15.9980  -12.4280   22.2380 O.co2 186  ASP186     -0.2456
@<TRIPOS>BOND
     1     1     2    1
     2     6     5    1
     3     6     7    1
     4     2     5    1
     5     2     3    1
     6     9     7   am
     7     7     8    2
     8     3     4    2
     9    77    76    1
    10    60    58    1
    11   150   151    1
    12   150   149    1
    13   151   152    1
    14   146   149    1
    15   146   147    1
    16   146   145    1
    17   148   147    2
    18   147   156   am
    19    31    30    2
    20    41    40    2
    21   156   157    1
    22   157   158    1
    23    76    75    1
    24   154   153    1
    25    58    57    1
    26    74    75    1
    27    74    73    1
    28   145   140   am
    29    73    70    1
    30   152   153    2
    31    30    29    1
    32    30    38   am
    33    40    39    1
    34   153   155    1
    35    39    38    1
    36   158   159    2
    37    18    16   ar
    38    18    20   ar
    39    57    59    1
    40    57    54    1
    41    29    32    1
    42    29    28    1
    43    32    33    1
    44   140   141    2
    45   140   139    1
    46    55    56    2
    47    55    54    1
    48    16    15   ar
    49    35    33   ar
    50    35    37   ar
    51   137   136    1
    52    70    71    1
    53    70    69    1
    54    53    54    1
    55    33    34   ar
    56    71    72    2
    57    71    78   am
    58    20    19   ar
    59    78    79    1
    60    10    11    1
    61   139   138    1
    62   139   142    1
    63    79    80    1
    64    37    36   ar
    65   136   133    1
    66    69    63   am
    67   144   142    1
    68    15    14    1
    69    15    17   ar
    70   135   134    2
    71   138   134   am
    72   134   133    1
    73    14    11    1
    74    34    36   ar
    75    19    17   ar
    76    11    12    1
    77   142   143    1
    78   133   132    1
    79    63    64    2
    80    63    62    1
    81    80    81    2
    82    80    82   am
    83    61    62    1
    84    24    23    2
    85   132   127   am
    86    13    12    2
    87    27    25    1
    88   113   112    1
    89    82    83    1
    90    62    65    1
    91   123   122    2
    92    23    22    1
    93   124   121    1
    94    92    89    1
    95    65    66    1
    96   107   106    2
    97   119   116    1
    98    25    22    1
    99    25    26    1
   100   120   121    1
   101   120   117   am
   102   122   121    1
   103   122   125   am
   104   127   126    1
   105   127   128    2
   106   116   117    1
   107   116   115    1
   108    88    89    1
   109    88    84   am
   110   112   114    1
   111   112   111    2
   112    22    21    1
   113    83    84    1
   114    83    86    1
   115   126   125    1
   116   126   129    1
   117    91    90    2
   118   117   118    2
   119    89    90    1
   120    66    67    1
   121    66    68    1
   122   106   115   am
   123   106   105    1
   124   111   110    1
   125    84    85    2
   126    87    86    1
   127   102   103   ar
   128   102   100   ar
   129   103   101   ar
   130   130   129    1
   131   105   108    1
   132   105   104    1
   133   129   131    1
   134   108   109    1
   135   110   109    1
   136   100    98   ar
   137   101    99   ar
   138    52    50    1
   139   104    95   am
   140    96    95    2
   141   164   165    1
   142   164   161    1
   143   167   165   ar
   144    98    99   ar
   145    98    97    1
   146    95    94    1
   147    50    51    1
   148    50    49    2
   149   165   166   ar
   150   163   162    2
   151   160   161    1
   152    49    48    1
   153   161   162    1
   154    97    94    1
   155    94    93    1
   156    48    47    1
   157    47    46    1
   158    46    43    1
   159    43    42    1
   160    43    44    1
   161    44    45    2
