@<TRIPOS>MOLECULE
tmp/3rc9A02.pdb
 139 136 0 0 0
SMALL
GASTEIGER

@<TRIPOS>ATOM
      1  N        -28.5560  -26.5130  -30.0120 N.3   119  MET119     -0.1230
      2  CA       -28.3650  -25.6330  -28.8690 C.3   119  MET119      0.1702
      3  C        -29.6840  -25.4630  -28.1040 C.2   119  MET119      0.2592
      4  O        -30.7250  -25.1640  -28.7050 O.2   119  MET119     -0.2718
      5  CB       -27.9070  -24.2570  -29.3500 C.3   119  MET119      0.0401
      6  CG       -27.6590  -23.2410  -28.2200 C.3   119  MET119      0.0596
      7  SD       -27.1010  -21.6630  -28.9180 S.3   119  MET119     -0.1393
      8  CE       -26.7130  -20.8450  -27.3830 C.3   119  MET119      0.0692
      9  N        -29.6400  -25.6670  -26.7870 N.am  120  GLU120     -0.1979
     10  CA       -30.8490  -25.4790  -25.9600 C.3   120  GLU120      0.1602
     11  C        -30.8590  -23.9880  -25.6000 C.2   120  GLU120      0.2287
     12  O        -29.8400  -23.5160  -25.1130 O.2   120  GLU120     -0.2864
     13  CB       -30.7200  -26.3000  -24.6790 C.3   120  GLU120      0.0415
     14  CG       -31.8710  -26.0850  -23.6480 C.3   120  GLU120      0.1163
     15  CD       -31.8170  -27.1020  -22.5090 C.2   120  GLU120      0.3649
     16  OE1      -32.8790  -27.6290  -22.1360 O.co2 120  GLU120     -0.2457
     17  OE2      -30.7110  -27.4510  -22.0580 O.co2 120  GLU120     -0.2457
     18  N        -31.5640  -21.2190  -23.4380 N.3   122  PHE122     -0.1241
     19  CA       -31.9040  -20.5140  -22.2040 C.3   122  PHE122      0.1605
     20  C        -31.4950  -19.0600  -22.3330 C.2   122  PHE122      0.2264
     21  O        -30.3310  -18.7490  -22.1560 O.2   122  PHE122     -0.2867
     22  CB       -31.1320  -21.1520  -21.0490 C.3   122  PHE122      0.0534
     23  CG       -31.7720  -22.3740  -20.4630 C.ar  122  PHE122     -0.0203
     24  CD1      -31.2070  -23.6190  -20.6520 C.ar  122  PHE122     -0.0042
     25  CD2      -32.8940  -22.2550  -19.6650 C.ar  122  PHE122     -0.0042
     26  CE1      -31.7800  -24.7670  -20.0950 C.ar  122  PHE122     -0.0003
     27  CE2      -33.4790  -23.3850  -19.1210 C.ar  122  PHE122     -0.0003
     28  CZ       -32.9130  -24.6290  -19.3280 C.ar  122  PHE122     -0.0000
     29  N        -29.0400  -17.2130  -19.8100 N.3   125  LEU125     -0.1231
     30  CA       -27.6160  -17.5100  -19.7290 C.3   125  LEU125      0.1693
     31  C        -26.7960  -16.4830  -20.5200 C.2   125  LEU125      0.2592
     32  O        -25.6180  -16.3420  -20.2670 O.2   125  LEU125     -0.2718
     33  CB       -27.3200  -18.9230  -20.2550 C.3   125  LEU125      0.0284
     34  CG       -27.9480  -20.0420  -19.4170 C.3   125  LEU125      0.0019
     35  CD1      -27.6930  -21.3440  -20.1520 C.3   125  LEU125      0.0001
     36  CD2      -27.2680  -20.0900  -18.0250 C.3   125  LEU125      0.0001
     37  N        -27.4070  -15.8000  -21.4800 N.am  126  HIS126     -0.1976
     38  CA       -26.6540  -14.8600  -22.3120 C.3   126  HIS126      0.1656
     39  C        -26.7340  -13.4310  -21.7600 C.2   126  HIS126      0.2291
     40  O        -26.1750  -12.5060  -22.3660 O.2   126  HIS126     -0.2864
     41  CB       -27.1400  -14.9550  -23.7670 C.3   126  HIS126      0.0771
     42  CG       -26.8670  -16.3110  -24.3310 C.ar  126  HIS126      0.0820
     43  ND1      -25.5990  -16.6960  -24.7190 N.ar  126  HIS126     -0.2267
     44  CD2      -27.6640  -17.3980  -24.4420 C.ar  126  HIS126      0.1154
     45  CE1      -25.6410  -17.9600  -25.1000 C.ar  126  HIS126      0.1986
     46  NE2      -26.8800  -18.4020  -24.9550 N.ar  126  HIS126     -0.2212
     47  N        -25.4710  -12.3460  -14.7670 N.3   130  HIS130     -0.1226
     48  CA       -25.1230  -13.4730  -13.9040 C.3   130  HIS130      0.1752
     49  C        -23.6300  -13.5960  -13.6540 C.2   130  HIS130      0.2595
     50  O        -23.1990  -13.8810  -12.5420 O.2   130  HIS130     -0.2718
     51  CB       -25.7050  -14.7650  -14.4930 C.3   130  HIS130      0.0759
     52  CG       -27.1230  -14.5360  -14.9040 C.ar  130  HIS130      0.0818
     53  ND1      -28.1410  -14.3540  -13.9890 N.ar  130  HIS130     -0.2268
     54  CD2      -27.6680  -14.3910  -16.1330 C.ar  130  HIS130      0.1154
     55  CE1      -29.2570  -14.0890  -14.6470 C.ar  130  HIS130      0.1986
     56  NE2      -29.0000  -14.1050  -15.9480 N.ar  130  HIS130     -0.2212
     57  N        -22.8290  -13.3970  -14.6970 N.am  131  ARG131     -0.1980
     58  CA       -21.3900  -13.3220  -14.5080 C.3   131  ARG131      0.1597
     59  C        -20.9950  -12.1890  -13.5550 C.2   131  ARG131      0.2287
     60  O        -20.0420  -12.3060  -12.7770 O.2   131  ARG131     -0.2864
     61  CB       -20.7150  -13.0960  -15.8670 C.3   131  ARG131      0.0334
     62  CG       -19.1900  -13.0130  -15.7210 C.3   131  ARG131      0.0492
     63  CD       -18.6340  -14.3210  -15.1200 C.3   131  ARG131      0.2205
     64  NE       -17.1840  -14.2310  -14.9610 N.pl3 131  ARG131     -0.0865
     65  CZ       -16.2960  -14.5580  -15.8990 C.cat 131  ARG131      0.5346
     66  NH1      -16.6820  -15.0250  -17.0800 N.pl3 131  ARG131      0.1354
     67  NH2      -14.9990  -14.4280  -15.6610 N.pl3 131  ARG131      0.1354
     68  N        -21.6990  -13.4710  -10.2170 N.3   134  ALA134     -0.1245
     69  CA       -20.7720  -14.5510   -9.8320 C.3   134  ALA134      0.1562
     70  C        -19.4070  -13.9170   -9.5330 C.2   134  ALA134      0.2260
     71  O        -18.6990  -14.4480   -8.6930 O.2   134  ALA134     -0.2867
     72  CB       -20.5620  -15.5770  -10.9640 C.3   134  ALA134      0.0290
     73  N        -31.8340  -24.6260  -13.8490 N.3   171  ARG171     -0.1245
     74  CA       -30.6650  -24.3200  -14.6550 C.3   171  ARG171      0.1563
     75  C        -29.8050  -23.2530  -13.9690 C.2   171  ARG171      0.2260
     76  O        -28.5820  -23.3120  -14.0460 O.2   171  ARG171     -0.2867
     77  CB       -31.1070  -23.7360  -15.9990 C.3   171  ARG171      0.0307
     78  CG       -29.9040  -23.5410  -16.9320 C.3   171  ARG171      0.0489
     79  CD       -29.2560  -24.8670  -17.4180 C.3   171  ARG171      0.2205
     80  NE       -28.0030  -24.6530  -18.1650 N.pl3 171  ARG171     -0.0865
     81  CZ       -26.8370  -24.2400  -17.6690 C.cat 171  ARG171      0.5346
     82  NH1      -25.7740  -24.1090  -18.4690 N.pl3 171  ARG171      0.1354
     83  NH2      -26.6960  -23.9510  -16.3680 N.pl3 171  ARG171      0.1354
     84  N        -25.8780  -23.2940  -12.9700 N.3   175  LEU175     -0.1231
     85  CA       -25.0120  -22.2200  -13.4390 C.3   175  LEU175      0.1693
     86  C        -24.1450  -21.7540  -12.2700 C.2   175  LEU175      0.2592
     87  O        -22.9220  -21.6600  -12.4030 O.2   175  LEU175     -0.2718
     88  CB       -25.8790  -21.0430  -13.9010 C.3   175  LEU175      0.0284
     89  CG       -25.0920  -19.7680  -14.2570 C.3   175  LEU175      0.0019
     90  CD1      -24.0030  -20.0430  -15.3180 C.3   175  LEU175      0.0001
     91  CD2      -26.0420  -18.6380  -14.7210 C.3   175  LEU175      0.0001
     92  N        -24.7670  -21.5080  -11.1090 N.am  176  PHE176     -0.1976
     93  CA       -24.0230  -21.0030   -9.9590 C.3   176  PHE176      0.1639
     94  C        -23.3530  -22.0050   -9.0530 C.2   176  PHE176      0.2290
     95  O        -22.3130  -21.7080   -8.4440 O.2   176  PHE176     -0.2864
     96  CB       -24.9120  -20.0860   -9.0980 C.3   176  PHE176      0.0560
     97  CG       -25.1920  -18.7770   -9.7450 C.ar  176  PHE176     -0.0200
     98  CD1      -24.2020  -17.7890   -9.7910 C.ar  176  PHE176     -0.0042
     99  CD2      -26.4410  -18.5200  -10.2660 C.ar  176  PHE176     -0.0042
    100  CE1      -24.4740  -16.5900  -10.4100 C.ar  176  PHE176     -0.0003
    101  CE2      -26.7310  -17.3390  -10.9020 C.ar  176  PHE176     -0.0003
    102  CZ       -25.7470  -16.3440  -10.9310 C.ar  176  PHE176     -0.0000
    103  N        -19.2650  -27.3280  -23.6370 N.3   289  GLU289     -0.1231
    104  CA       -19.8750  -27.0330  -22.3830 C.3   289  GLU289      0.1699
    105  C        -21.3710  -26.9260  -22.5540 C.2   289  GLU289      0.2592
    106  O        -22.0630  -27.3030  -21.6700 O.2   289  GLU289     -0.2718
    107  CB       -19.3930  -25.7250  -21.8130 C.3   289  GLU289      0.0402
    108  CG       -18.1360  -25.7780  -21.0210 C.3   289  GLU289      0.1161
    109  CD       -17.2780  -24.4970  -21.2210 C.2   289  GLU289      0.3649
    110  OE1      -17.6880  -23.6260  -21.9710 O.co2 289  GLU289     -0.2457
    111  OE2      -16.1790  -24.4170  -20.6630 O.co2 289  GLU289     -0.2457
    112  N        -21.8430  -26.4180  -23.6870 N.am  290  TRP290     -0.1976
    113  CA       -23.3090  -26.2090  -23.8210 C.3   290  TRP290      0.1640
    114  C        -24.0450  -27.5500  -23.7550 C.2   290  TRP290      0.2290
    115  O        -25.0710  -27.7500  -23.0900 O.2   290  TRP290     -0.2864
    116  CB       -23.6550  -25.5260  -25.1370 C.3   290  TRP290      0.0576
    117  CG       -23.1230  -24.1030  -25.2560 C.ar  290  TRP290      0.0006
    118  CD1      -22.4860  -23.3800  -24.2680 C.ar  290  TRP290      0.0946
    119  CD2      -23.2330  -23.2350  -26.3880 C.ar  290  TRP290      0.0152
    120  NE1      -22.2040  -22.1170  -24.7350 N.ar  290  TRP290     -0.2442
    121  CE2      -22.6340  -22.0090  -26.0330 C.ar  290  TRP290      0.0810
    122  CE3      -23.7880  -23.3730  -27.6700 C.ar  290  TRP290      0.0012
    123  CZ2      -22.5940  -20.9140  -26.9040 C.ar  290  TRP290      0.0191
    124  CZ3      -23.7060  -22.2980  -28.5530 C.ar  290  TRP290      0.0001
    125  CH2      -23.1130  -21.0880  -28.1650 C.ar  290  TRP290      0.0015
    126  N        -23.7180  -29.1960  -20.1770 N.3   293  ASP293     -0.1225
    127  CA       -24.6560  -28.5300  -19.2670 C.3   293  ASP293      0.1805
    128  C        -26.0950  -28.9600  -19.5880 C.2   293  ASP293      0.2598
    129  O        -26.8430  -29.2180  -18.6530 O.2   293  ASP293     -0.2718
    130  CB       -24.5140  -27.0200  -19.4320 C.3   293  ASP293      0.1424
    131  CG       -23.2530  -26.4930  -18.7460 C.2   293  ASP293      0.3668
    132  OD1      -22.5560  -27.3140  -18.1360 O.co2 293  ASP293     -0.2456
    133  OD2      -22.9760  -25.2840  -18.7490 O.co2 293  ASP293     -0.2456
    134  N        -26.5040  -29.0520  -20.8540 N.am  294  SER294     -0.1952
    135  CA       -27.8940  -29.4180  -21.1790 C.3   294  SER294      0.1924
    136  C        -28.1620  -30.8570  -20.7420 C.2   294  SER294      0.2314
    137  O        -29.2750  -31.1840  -20.3050 O.2   294  SER294     -0.2863
    138  CB       -28.1310  -29.3030  -22.6870 C.3   294  SER294      0.2116
    139  OG       -28.2850  -27.9200  -23.0210 O.3   294  SER294     -0.2180
@<TRIPOS>BOND
     1     1     2    1
     2     5     2    1
     3     5     6    1
     4     7     6    1
     5     7     8    1
     6     2     3    1
     7     4     3    2
     8   124   125   ar
     9   124   122   ar
    10   125   123   ar
    11     3     9   am
    12   122   119   ar
    13   123   121   ar
    14     9    10    1
    15   119   121   ar
    16   119   117   ar
    17   121   120   ar
    18    10    11    1
    19    10    13    1
    20    11    12    2
    21   117   116    1
    22   117   118   ar
    23   116   113    1
    24    45    46   ar
    25    45    43   ar
    26    46    44   ar
    27   120   118   ar
    28    43    42   ar
    29    13    14    1
    30    44    42   ar
    31    42    41    1
    32   113   114    1
    33   113   112    1
    34    41    38    1
    35   114   115    2
    36   112   105   am
    37    14    15    1
    38   103   104    1
    39    18    19    1
    40   139   138    1
    41   138   135    1
    42   105   104    1
    43   105   106    2
    44    15    16   ar
    45    15    17   ar
    46   104   107    1
    47    40    39    2
    48    20    19    1
    49    20    21    2
    50    38    39    1
    51    38    37    1
    52    19    22    1
    53   110   109   ar
    54   107   108    1
    55    37    31   am
    56   109   108    1
    57   109   111   ar
    58   135   134    1
    59   135   136    1
    60    22    23    1
    61   134   128   am
    62   136   137    2
    63    24    23   ar
    64    24    26   ar
    65    31    32    2
    66    31    30    1
    67    23    25   ar
    68    33    30    1
    69    33    34    1
    70   126   127    1
    71    35    34    1
    72    26    28   ar
    73    29    30    1
    74    25    27   ar
    75   128   127    1
    76   128   129    2
    77   130   127    1
    78   130   131    1
    79    34    36    1
    80    28    27   ar
    81   133   131   ar
    82   131   132   ar
    83    82    81    1
    84    80    81    2
    85    80    79    1
    86    81    83    1
    87    79    78    1
    88    66    65    1
    89    78    77    1
    90    54    56   ar
    91    54    52   ar
    92    77    74    1
    93    56    55   ar
    94    65    67    1
    95    65    64    2
    96    61    62    1
    97    61    58    1
    98    62    63    1
    99    90    89    1
   100    63    64    1
   101    52    51    1
   102    52    53   ar
   103    47    48    1
   104    91    89    1
   105    57    58    1
   106    57    49   am
   107    74    75    1
   108    74    73    1
   109    55    53   ar
   110    58    59    1
   111    51    48    1
   112    89    88    1
   113    76    75    2
   114    48    49    1
   115    88    85    1
   116    49    50    2
   117    59    60    2
   118    85    84    1
   119    85    86    1
   120    87    86    2
   121    86    92   am
   122    92    93    1
   123    72    69    1
   124   102   101   ar
   125   102   100   ar
   126   101    99   ar
   127   100    98   ar
   128    99    97   ar
   129    68    69    1
   130    93    96    1
   131    93    94    1
   132    69    70    1
   133    98    97   ar
   134    97    96    1
   135    70    71    2
   136    94    95    2
