@<TRIPOS>MOLECULE
tmp/3rcdC00.pdb
 198 187 0 0 0
SMALL
GASTEIGER

@<TRIPOS>ATOM
      1  N        -45.6650  -23.3740  -75.2650 N.3    17  LEU17      -0.1231
      2  CA       -45.4390  -23.7710  -73.8780 C.3    17  LEU17       0.1693
      3  C        -44.6870  -22.6670  -73.1470 C.2    17  LEU17       0.2593
      4  O        -45.2510  -21.9810  -72.2970 O.2    17  LEU17      -0.2718
      5  CB       -44.6850  -25.1030  -73.7860 C.3    17  LEU17       0.0284
      6  CG       -45.3690  -26.3300  -74.3950 C.3    17  LEU17       0.0019
      7  CD1      -44.5610  -27.5640  -74.1040 C.3    17  LEU17       0.0001
      8  CD2      -46.7790  -26.5040  -73.8710 C.3    17  LEU17       0.0001
      9  N        -43.4200  -22.4770  -73.4940 N.am   18  GLY18      -0.1942
     10  CA       -42.6270  -21.4500  -72.8450 C.3    18  GLY18       0.2014
     11  C        -41.5440  -20.8470  -73.7060 C.2    18  GLY18       0.2640
     12  O        -41.0180  -21.5030  -74.6080 O.2    18  GLY18      -0.2714
     13  N        -41.2210  -19.5860  -73.4120 N.am   19  SER19      -0.1935
     14  CA       -40.1130  -18.8880  -74.0440 C.3    19  SER19       0.2055
     15  C        -38.8910  -18.9800  -73.1290 C.2    19  SER19       0.2643
     16  O        -38.7500  -18.1870  -72.2010 O.2    19  SER19      -0.2714
     17  CB       -40.4950  -17.4260  -74.3210 C.3    19  SER19       0.2130
     18  OG       -39.7650  -16.8930  -75.4160 O.3    19  SER19      -0.2179
     19  N        -38.0340  -19.9720  -73.3780 N.am   20  GLY20      -0.1954
     20  CA       -36.7630  -20.1380  -72.6540 C.3    20  GLY20       0.1869
     21  C        -35.6420  -19.3540  -73.3170 C.2    20  GLY20       0.2309
     22  O        -35.8060  -18.8400  -74.4310 O.2    20  GLY20      -0.2863
     23  N        -40.6380  -22.9420  -76.9290 N.3    25  VAL25      -0.1245
     24  CA       -41.0900  -24.3300  -76.9650 C.3    25  VAL25       0.1561
     25  C        -42.6150  -24.3900  -77.1220 C.2    25  VAL25       0.2260
     26  O        -43.3530  -23.7410  -76.3740 O.2    25  VAL25      -0.2867
     27  CB       -40.6420  -25.1120  -75.7140 C.3    25  VAL25       0.0252
     28  CG1      -41.0430  -26.5750  -75.8200 C.3    25  VAL25       0.0019
     29  CG2      -39.1440  -25.0140  -75.5410 C.3    25  VAL25       0.0019
     30  N        -43.1680  -32.2720  -79.1140 N.3    42  ALA42      -0.1245
     31  CA       -42.6200  -31.0460  -78.5520 C.3    42  ALA42       0.1562
     32  C        -41.7150  -30.4110  -79.5990 C.2    42  ALA42       0.2260
     33  O        -40.8220  -31.0720  -80.1370 O.2    42  ALA42      -0.2867
     34  CB       -41.8440  -31.3480  -77.2910 C.3    42  ALA42       0.0290
     35  N        -39.0740  -27.3090  -80.4670 N.3    44  LYS44      -0.1245
     36  CA       -38.2310  -26.1880  -80.0520 C.3    44  LYS44       0.1561
     37  C        -37.7560  -25.3450  -81.2470 C.2    44  LYS44       0.2260
     38  O        -37.3250  -25.8830  -82.2780 O.2    44  LYS44      -0.2867
     39  CB       -37.0520  -26.6720  -79.2040 C.3    44  LYS44       0.0271
     40  CG       -36.3770  -25.5520  -78.4070 C.3    44  LYS44       0.0035
     41  CD       -35.4930  -26.0730  -77.2840 C.3    44  LYS44       0.0206
     42  CE       -34.9020  -24.9170  -76.5040 C.3    44  LYS44       0.1093
     43  NZ       -34.6580  -25.3160  -75.0950 N.3    44  LYS44      -0.1314
     44  N        -23.9350  -31.7330  -84.0470 N.3    57  GLU57      -0.1245
     45  CA       -24.7650  -31.8870  -82.8590 C.3    57  GLU57       0.1567
     46  C        -25.9000  -32.9100  -83.0670 C.2    57  GLU57       0.2260
     47  O        -25.8310  -34.0180  -82.5370 O.2    57  GLU57      -0.2867
     48  CB       -25.3390  -30.5120  -82.5110 C.3    57  GLU57       0.0388
     49  CG       -25.7350  -30.2910  -81.0690 C.3    57  GLU57       0.1160
     50  CD       -26.3420  -28.9110  -80.8580 C.2    57  GLU57       0.3649
     51  OE1      -27.0230  -28.4000  -81.7790 O.co2  57  GLU57      -0.2457
     52  OE2      -26.1330  -28.3350  -79.7710 O.co2  57  GLU57      -0.2457
     53  N        -27.8440  -37.4810  -83.2710 N.3    61  MET61      -0.1245
     54  CA       -29.1890  -37.8890  -82.8560 C.3    61  MET61       0.1570
     55  C        -29.7350  -39.0110  -83.7420 C.2    61  MET61       0.2261
     56  O        -30.8210  -39.5410  -83.4920 O.2    61  MET61      -0.2867
     57  CB       -30.1430  -36.6850  -82.7990 C.3    61  MET61       0.0387
     58  CG       -29.8900  -35.7160  -81.6330 C.3    61  MET61       0.0595
     59  SD       -28.1490  -35.2800  -81.3590 S.3    61  MET61      -0.1393
     60  CE       -28.2910  -33.8040  -80.3460 C.3    61  MET61       0.0692
     61  N        -34.2200  -38.4390  -74.1540 N.3    70  SER70      -0.1202
     62  CA       -35.1420  -37.8370  -75.0870 C.3    70  SER70       0.2020
     63  C        -34.6020  -37.9460  -76.5240 C.2    70  SER70       0.2619
     64  O        -33.4710  -37.5480  -76.8140 O.2    70  SER70      -0.2717
     65  CB       -35.3790  -36.3820  -74.6780 C.3    70  SER70       0.2103
     66  OG       -36.4150  -35.7770  -75.4240 O.3    70  SER70      -0.2182
     67  N        -35.4180  -38.4970  -77.4140 N.am   71  ARG71      -0.1965
     68  CA       -34.9930  -38.8140  -78.7660 C.3    71  ARG71       0.1729
     69  C        -35.6160  -37.8770  -79.7960 C.2    71  ARG71       0.2616
     70  O        -36.8350  -37.7400  -79.8800 O.2    71  ARG71      -0.2715
     71  CB       -35.3530  -40.2700  -79.0750 C.3    71  ARG71       0.0348
     72  CG       -35.0640  -40.7350  -80.4990 C.3    71  ARG71       0.0492
     73  CD       -33.6270  -41.2350  -80.6450 C.3    71  ARG71       0.2205
     74  NE       -33.4710  -42.2200  -81.7200 N.pl3  71  ARG71      -0.0865
     75  CZ       -33.8170  -43.5040  -81.6260 C.cat  71  ARG71       0.5346
     76  NH1      -34.3610  -43.9840  -80.5080 N.pl3  71  ARG71       0.1354
     77  NH2      -33.6220  -44.3140  -82.6570 N.pl3  71  ARG71       0.1354
     78  N        -34.7600  -37.2530  -80.5940 N.am   72  LEU72      -0.1977
     79  CA       -35.1820  -36.3380  -81.6510 C.3    72  LEU72       0.1596
     80  C        -35.8480  -37.0600  -82.8310 C.2    72  LEU72       0.2287
     81  O        -35.3720  -38.1050  -83.2790 O.2    72  LEU72      -0.2864
     82  CB       -33.9700  -35.5560  -82.1560 C.3    72  LEU72       0.0297
     83  CG       -34.2270  -34.1700  -82.7410 C.3    72  LEU72       0.0022
     84  CD1      -34.6470  -33.1810  -81.6360 C.3    72  LEU72       0.0001
     85  CD2      -32.9770  -33.6890  -83.4640 C.3    72  LEU72       0.0001
     86  N        -36.8860  -28.0110  -83.9160 N.3    83  LEU83      -0.1231
     87  CA       -36.5190  -29.3670  -83.5930 C.3    83  LEU83       0.1693
     88  C        -37.7510  -29.9980  -83.0340 C.2    83  LEU83       0.2592
     89  O        -38.4180  -29.4090  -82.1850 O.2    83  LEU83      -0.2718
     90  CB       -35.4040  -29.4260  -82.5520 C.3    83  LEU83       0.0284
     91  CG       -34.0110  -28.9050  -82.9080 C.3    83  LEU83       0.0019
     92  CD1      -33.8860  -27.4820  -82.4130 C.3    83  LEU83       0.0001
     93  CD2      -32.9270  -29.7740  -82.2770 C.3    83  LEU83       0.0001
     94  N        -38.0540  -31.1980  -83.5080 N.am   84  VAL84      -0.1966
     95  CA       -39.2710  -31.8700  -83.1030 C.3    84  VAL84       0.1727
     96  C        -38.9460  -33.1160  -82.3200 C.2    84  VAL84       0.2617
     97  O        -38.0620  -33.8840  -82.6990 O.2    84  VAL84      -0.2715
     98  CB       -40.1490  -32.1800  -84.3110 C.3    84  VAL84       0.0290
     99  CG1      -41.2240  -33.1810  -83.9680 C.3    84  VAL84       0.0023
    100  CG2      -40.7800  -30.8960  -84.8080 C.3    84  VAL84       0.0023
    101  N        -39.6550  -33.2960  -81.2120 N.am   85  THR85      -0.1937
    102  CA       -39.4980  -34.4840  -80.3910 C.3    85  THR85       0.2028
    103  C        -40.8650  -34.9090  -79.8270 C.2    85  THR85       0.2642
    104  O        -41.7620  -34.0730  -79.7060 O.2    85  THR85      -0.2714
    105  CB       -38.4070  -34.2600  -79.3020 C.3    85  THR85       0.1808
    106  OG1      -37.7320  -35.4930  -79.0280 O.3    85  THR85      -0.2208
    107  CG2      -38.9730  -33.6460  -78.0070 C.3    85  THR85       0.0379
    108  N        -41.0320  -36.2030  -79.5320 N.am   86  GLN86      -0.1963
    109  CA       -42.2670  -36.7120  -78.9050 C.3    86  GLN86       0.1733
    110  C        -42.5560  -35.9760  -77.5840 C.2    86  GLN86       0.2616
    111  O        -41.6280  -35.6870  -76.8080 O.2    86  GLN86      -0.2715
    112  CB       -42.1930  -38.2480  -78.7090 C.3    86  GLN86       0.0408
    113  CG       -42.9060  -38.8370  -77.4550 C.3    86  GLN86       0.0908
    114  CD       -44.1030  -39.7380  -77.7550 C.2    86  GLN86       0.2608
    115  OE1      -44.3910  -40.0500  -78.9090 O.2    86  GLN86      -0.2717
    116  NE2      -44.8030  -40.1670  -76.6970 N.am   86  GLN86      -0.0878
    117  N        -43.8360  -35.6720  -77.3520 N.am   87  LEU87      -0.1963
    118  CA       -44.2590  -34.9650  -76.1450 C.3    87  LEU87       0.1728
    119  C        -44.3200  -35.8620  -74.9000 C.2    87  LEU87       0.2616
    120  O        -44.9900  -36.9010  -74.8980 O.2    87  LEU87      -0.2715
    121  CB       -45.5970  -34.2560  -76.3720 C.3    87  LEU87       0.0311
    122  CG       -46.1310  -33.3480  -75.2620 C.3    87  LEU87       0.0022
    123  CD1      -45.1140  -32.2890  -74.8680 C.3    87  LEU87       0.0001
    124  CD2      -47.4320  -32.7050  -75.7030 C.3    87  LEU87       0.0001
    125  N        -43.6040  -35.4490  -73.8540 N.am   88  MET88      -0.1977
    126  CA       -43.6510  -36.1150  -72.5570 C.3    88  MET88       0.1605
    127  C        -44.8210  -35.5870  -71.7370 C.2    88  MET88       0.2287
    128  O        -44.8300  -34.4180  -71.3480 O.2    88  MET88      -0.2864
    129  CB       -42.3590  -35.9010  -71.7810 C.3    88  MET88       0.0413
    130  CG       -41.1250  -36.5050  -72.4110 C.3    88  MET88       0.0598
    131  SD       -41.2960  -38.2510  -72.7680 S.3    88  MET88      -0.1393
    132  CE       -41.3250  -38.2060  -74.5500 C.3    88  MET88       0.0692
    133  N        -44.6300  -33.2760  -68.4210 N.3    91  GLY91      -0.1210
    134  CA       -43.8270  -32.0670  -68.4940 C.3    91  GLY91       0.1956
    135  C        -42.4710  -32.2680  -67.8890 C.2    91  GLY91       0.2612
    136  O        -41.9050  -33.3490  -67.9780 O.2    91  GLY91      -0.2717
    137  N        -41.9700  -31.2220  -67.2470 N.am   92  CYS92      -0.1970
    138  CA       -40.6230  -31.2150  -66.6920 C.3    92  CYS92       0.1712
    139  C        -40.5850  -31.6630  -65.2370 C.2    92  CYS92       0.2296
    140  O        -41.5170  -31.4220  -64.4650 O.2    92  CYS92      -0.2864
    141  CB       -40.0050  -29.8280  -66.8490 C.3    92  CYS92       0.0983
    142  SG       -39.0650  -29.2730  -65.4300 S.3    92  CYS92      -0.0798
    143  N        -33.9920  -29.1610  -64.2510 N.3   136  ARG136     -0.1245
    144  CA       -34.8020  -28.4110  -65.2180 C.3   136  ARG136      0.1563
    145  C        -34.8670  -29.1070  -66.5770 C.2   136  ARG136      0.2260
    146  O        -35.8410  -28.9330  -67.3060 O.2   136  ARG136     -0.2867
    147  CB       -34.3100  -26.9560  -65.3510 C.3   136  ARG136      0.0307
    148  CG       -33.7240  -26.5560  -66.7070 C.3   136  ARG136      0.0489
    149  CD       -33.0260  -25.1930  -66.6720 C.3   136  ARG136      0.2205
    150  NE       -31.5710  -25.3410  -66.6930 N.pl3 136  ARG136     -0.0865
    151  CZ       -30.7700  -25.2100  -65.6350 C.cat 136  ARG136      0.5346
    152  NH1      -29.4580  -25.3780  -65.7630 N.pl3 136  ARG136      0.1354
    153  NH2      -31.2710  -24.9070  -64.4480 N.pl3 136  ARG136      0.1354
    154  N        -37.3450  -34.7040  -68.2160 N.3   139  LEU139     -0.1245
    155  CA       -38.7700  -34.6880  -68.5290 C.3   139  LEU139      0.1561
    156  C        -39.4320  -35.9440  -68.0080 C.2   139  LEU139      0.2260
    157  O        -38.7530  -36.9580  -67.8210 O.2   139  LEU139     -0.2867
    158  CB       -38.9740  -34.5610  -70.0290 C.3   139  LEU139      0.0270
    159  CG       -38.5280  -33.2040  -70.5610 C.3   139  LEU139      0.0019
    160  CD1      -38.2290  -33.3320  -72.0250 C.3   139  LEU139      0.0001
    161  CD2      -39.5790  -32.1240  -70.2970 C.3   139  LEU139      0.0001
    162  N        -33.1180  -34.3620  -71.5020 N.3   149  THR149     -0.1203
    163  CA       -33.1510  -33.6560  -72.7820 C.3   149  THR149      0.1994
    164  C        -32.1270  -32.5230  -72.8890 C.2   149  THR149      0.2618
    165  O        -31.3250  -32.3300  -71.9810 O.2   149  THR149     -0.2717
    166  CB       -34.5730  -33.1530  -73.1030 C.3   149  THR149      0.1784
    167  OG1      -34.6960  -32.9320  -74.5160 O.3   149  THR149     -0.2211
    168  CG2      -34.8830  -31.8700  -72.3540 C.3   149  THR149      0.0376
    169  N        -32.1540  -31.8060  -74.0160 N.am  150  ASP150     -0.1959
    170  CA       -31.4240  -30.5360  -74.2270 C.3   150  ASP150      0.1840
    171  C        -30.0480  -30.6560  -74.8700 C.2   150  ASP150      0.2622
    172  O        -29.9090  -30.3890  -76.0590 O.2   150  ASP150     -0.2715
    173  CB       -31.3590  -29.6710  -72.9570 C.3   150  ASP150      0.1450
    174  CG       -32.3280  -28.4880  -72.9890 C.2   150  ASP150      0.3671
    175  OD1      -33.4000  -28.5820  -73.6410 O.co2 150  ASP150     -0.2456
    176  OD2      -32.0120  -27.4550  -72.3440 O.co2 150  ASP150     -0.2456
    177  N        -29.0440  -31.0420  -74.0860 N.am  151  PHE151     -0.1974
    178  CA       -27.6400  -31.0860  -74.5340 C.3   151  PHE151      0.1639
    179  C        -27.3320  -30.2730  -75.8080 C.2   151  PHE151      0.2290
    180  O        -27.2820  -30.8310  -76.9110 O.2   151  PHE151     -0.2864
    181  CB       -27.1470  -32.5350  -74.6610 C.3   151  PHE151      0.0560
    182  CG       -28.1810  -33.4840  -75.1580 C.ar  151  PHE151     -0.0200
    183  CD1      -29.0970  -34.0400  -74.2840 C.ar  151  PHE151     -0.0042
    184  CD2      -28.2370  -33.8310  -76.5020 C.ar  151  PHE151     -0.0042
    185  CE1      -30.0750  -34.9330  -74.7460 C.ar  151  PHE151     -0.0003
    186  CE2      -29.2030  -34.7260  -76.9800 C.ar  151  PHE151     -0.0003
    187  CZ       -30.1230  -35.2820  -76.1030 C.ar  151  PHE151     -0.0000
    188  N        -49.3400  -29.8120  -65.4410 N.3   266  PHE266     -0.1241
    189  CA       -49.0920  -29.8520  -66.8630 C.3   266  PHE266      0.1605
    190  C        -49.9200  -30.9290  -67.5490 C.2   266  PHE266      0.2264
    191  O        -50.6030  -30.6600  -68.5350 O.2   266  PHE266     -0.2867
    192  CB       -47.6040  -30.0380  -67.1570 C.3   266  PHE266      0.0534
    193  CG       -47.2870  -29.9750  -68.6110 C.ar  266  PHE266     -0.0203
    194  CD1      -46.8000  -31.0840  -69.2730 C.ar  266  PHE266     -0.0042
    195  CD2      -47.5380  -28.8160  -69.3370 C.ar  266  PHE266     -0.0042
    196  CE1      -46.5240  -31.0310  -70.6310 C.ar  266  PHE266     -0.0003
    197  CE2      -47.2770  -28.7550  -70.6910 C.ar  266  PHE266     -0.0003
    198  CZ       -46.7640  -29.8640  -71.3410 C.ar  266  PHE266     -0.0000
@<TRIPOS>BOND
     1   100    98    1
     2    98    99    1
     3    98    95    1
     4    44    45    1
     5    86    87    1
     6    55    56    2
     7    55    54    1
     8    87    88    1
     9    87    90    1
    10    94    95    1
    11    94    88   am
    12    85    83    1
    13    81    80    2
    14    53    54    1
    15    95    96    1
    16    46    45    1
    17    46    47    2
    18    88    89    2
    19    91    90    1
    20    91    92    1
    21    91    93    1
    22    45    48    1
    23    54    57    1
    24    80    79    1
    25    57    58    1
    26    83    82    1
    27    83    84    1
    28    97    96    2
    29    77    75    1
    30    48    49    1
    31    96   101   am
    32    38    37    2
    33    82    79    1
    34    51    50   ar
    35    74    75    2
    36    74    73    1
    37    79    78    1
    38    58    59    1
    39    75    76    1
    40    59    60    1
    41    37    36    1
    42   101   102    1
    43    49    50    1
    44    50    52   ar
    45    73    72    1
    46    78    69   am
    47    72    71    1
    48    35    36    1
    49   102   103    1
    50   102   105    1
    51    33    32    2
    52    36    39    1
    53    70    69    2
    54   103   104    2
    55   103   108   am
    56    69    68    1
    57    32    31    1
    58   108   109    1
    59   105   106    1
    60   105   107    1
    61    39    40    1
    62    30    31    1
    63    71    68    1
    64   115   114    2
    65   109   112    1
    66   109   110    1
    67    68    67    1
    68   112   113    1
    69    31    34    1
    70    40    41    1
    71   114   113    1
    72   114   116   am
    73   110   117   am
    74   110   111    2
    75    67    63   am
    76   117   118    1
    77    41    42    1
    78    25    24    1
    79    25    26    2
    80   186   184   ar
    81   186   187   ar
    82    24    23    1
    83    24    27    1
    84   180   179    2
    85    64    63    2
    86    63    62    1
    87    42    43    1
    88   184   182   ar
    89   121   118    1
    90   121   122    1
    91   118   119    1
    92   187   185   ar
    93   172   171    2
    94    28    27    1
    95   179   178    1
    96    27    29    1
    97   124   122    1
    98    66    65    1
    99    18    17    1
   100     1     2    1
   101   122   123    1
   102   182   181    1
   103   182   183   ar
   104    62    65    1
   105    62    61    1
   106   119   120    2
   107   119   125   am
   108   171   170    1
   109   171   177   am
   110   185   183   ar
   111   181   178    1
   112    12    11    2
   113   132   131    1
   114   178   177    1
   115   167   166    1
   116    22    21    2
   117     6     7    1
   118     6     8    1
   119     6     5    1
   120    17    14    1
   121   170   169    1
   122   170   173    1
   123    14    13    1
   124    14    15    1
   125   169   164   am
   126     2     5    1
   127     2     3    1
   128   125   126    1
   129    11    13   am
   130    11    10    1
   131   175   174   ar
   132     9     3   am
   133     9    10    1
   134    19    15   am
   135    19    20    1
   136    21    20    1
   137     3     4    2
   138    15    16    2
   139   166   163    1
   140   166   168    1
   141   174   173    1
   142   174   176   ar
   143   164   163    1
   144   164   165    2
   145   163   162    1
   146   131   130    1
   147   126   129    1
   148   126   127    1
   149   130   129    1
   150   160   159    1
   151   127   128    2
   152   198   197   ar
   153   198   196   ar
   154   197   195   ar
   155   196   194   ar
   156   159   161    1
   157   159   158    1
   158   158   155    1
   159   195   193   ar
   160   194   193   ar
   161   193   192    1
   162   191   190    2
   163   155   154    1
   164   155   156    1
   165   134   133    1
   166   134   135    1
   167   156   157    2
   168   136   135    2
   169   135   137   am
   170   190   189    1
   171   146   145    2
   172   137   138    1
   173   192   189    1
   174   189   188    1
   175   141   138    1
   176   141   142    1
   177   148   149    1
   178   148   147    1
   179   150   149    1
   180   150   151    2
   181   138   139    1
   182   145   144    1
   183   152   151    1
   184   151   153    1
   185   147   144    1
   186   139   140    2
   187   144   143    1
