@<TRIPOS>MOLECULE
tmp/3rcfA00.pdb
 125 122 0 0 0
SMALL
GASTEIGER

@<TRIPOS>ATOM
      1  N          9.6660   13.2280   13.4640 N.3    54  ARG54      -0.1245
      2  CA         9.6740   14.5590   12.8700 C.3    54  ARG54       0.1563
      3  C         10.9830   15.2390   13.2150 C.2    54  ARG54       0.2260
      4  O         11.2830   15.4610   14.3870 O.2    54  ARG54      -0.2867
      5  CB         8.4870   15.3960   13.3390 C.3    54  ARG54       0.0307
      6  CG         8.3340   16.6750   12.5300 C.3    54  ARG54       0.0489
      7  CD         6.9000   17.1660   12.4610 C.3    54  ARG54       0.2205
      8  NE         6.7370   18.2300   11.4610 N.pl3  54  ARG54      -0.0865
      9  CZ         6.4680   19.5100   11.7200 C.cat  54  ARG54       0.5346
     10  NH1        6.3180   19.9430   12.9630 N.pl3  54  ARG54       0.1354
     11  NH2        6.3380   20.3740   10.7190 N.pl3  54  ARG54       0.1354
     12  N         13.6180   18.4030   11.8780 N.3    56  ILE56      -0.1231
     13  CA        13.7670   19.5880   11.0410 C.3    56  ILE56       0.1678
     14  C         15.1710   20.1560   11.2470 C.2    56  ILE56       0.2434
     15  O         15.5060   20.6070   12.3470 O.2    56  ILE56      -0.2733
     16  CB        12.6950   20.6390   11.3710 C.3    56  ILE56       0.0265
     17  CG1       11.2980   20.0560   11.1130 C.3    56  ILE56       0.0019
     18  CG2       12.9190   21.8930   10.5400 C.3    56  ILE56       0.0020
     19  CD1       10.1640   20.9660   11.5210 C.3    56  ILE56       0.0001
     20  N         16.0250   20.0740   10.2100 N.am   57  PRO57      -0.2718
     21  CA        17.3850   20.5880   10.3360 C.3    57  PRO57       0.1535
     22  C         17.4260   22.0490   10.7710 C.2    57  PRO57       0.2599
     23  O         16.5920   22.8480   10.3460 O.2    57  PRO57      -0.2715
     24  CB        17.9630   20.4010    8.9260 C.3    57  PRO57       0.0310
     25  CG        17.2120   19.2470    8.3840 C.3    57  PRO57       0.0237
     26  CD        15.8120   19.4410    8.8970 C.3    57  PRO57       0.0939
     27  N         18.3910   22.3720   11.6260 N.am   58  SER58      -0.1936
     28  CA        18.5550   23.7070   12.1960 C.3    58  SER58       0.2055
     29  C         17.3850   24.1010   13.1020 C.2    58  SER58       0.2643
     30  O         17.1370   25.2840   13.3320 O.2    58  SER58      -0.2714
     31  CB        18.8160   24.7510   11.0960 C.3    58  SER58       0.2130
     32  OG        19.9590   24.3860   10.3390 O.3    58  SER58      -0.2179
     33  N         16.6750   23.1050   13.6390 N.am   59  PHE59      -0.1959
     34  CA        15.5840   23.3700   14.5780 C.3    59  PHE59       0.1771
     35  C         15.5750   22.3250   15.7020 C.2    59  PHE59       0.2619
     36  O         16.0540   22.6010   16.7950 O.2    59  PHE59      -0.2715
     37  CB        14.2410   23.4780   13.8330 C.3    59  PHE59       0.0574
     38  CG        13.0350   23.6430   14.7290 C.ar   59  PHE59      -0.0200
     39  CD1       13.1160   24.2630   15.9760 C.ar   59  PHE59      -0.0042
     40  CD2       11.8010   23.1870   14.2990 C.ar   59  PHE59      -0.0042
     41  CE1       11.9880   24.3950   16.7780 C.ar   59  PHE59      -0.0003
     42  CE2       10.6800   23.3220   15.0940 C.ar   59  PHE59      -0.0003
     43  CZ        10.7730   23.9300   16.3310 C.ar   59  PHE59      -0.0000
     44  N         15.0430   21.1360   15.4420 N.am   60  MET60      -0.1977
     45  CA        14.9050   20.1410   16.5020 C.3    60  MET60       0.1605
     46  C         14.6150   18.7570   15.9450 C.2    60  MET60       0.2287
     47  O         14.2480   18.5860   14.7770 O.2    60  MET60      -0.2864
     48  CB        13.8180   20.5600   17.5080 C.3    60  MET60       0.0413
     49  CG        12.4240   20.7170   16.9080 C.3    60  MET60       0.0598
     50  SD        11.5190   19.1590   16.7970 S.3    60  MET60      -0.1393
     51  CE        10.8400   19.2680   15.1420 C.3    60  MET60       0.0692
     52  N         12.2370   15.4860   16.9940 N.3    62  GLN62      -0.1245
     53  CA        11.0730   15.1460   17.8120 C.3    62  GLN62       0.1566
     54  C         10.7840   13.6490   17.8030 C.2    62  GLN62       0.2260
     55  O         10.8520   12.9910   16.7670 O.2    62  GLN62      -0.2867
     56  CB         9.8470   15.9110   17.3230 C.3    62  GLN62       0.0367
     57  CG         8.5930   15.6930   18.1610 C.3    62  GLN62       0.0905
     58  CD         7.4620   16.6370   17.8010 C.2    62  GLN62       0.2608
     59  OE1        7.6840   17.7220   17.2730 O.2    62  GLN62      -0.2717
     60  NE2        6.2350   16.2210   18.0920 N.am   62  GLN62      -0.0878
     61  N          7.1140   18.3060   23.6270 N.3   100  ALA100     -0.1245
     62  CA         6.2250   18.6230   22.5190 C.3   100  ALA100      0.1562
     63  C          4.8090   18.6860   23.0740 C.2   100  ALA100      0.2260
     64  O          4.5130   18.0820   24.1030 O.2   100  ALA100     -0.2867
     65  CB         6.3410   17.5640   21.4280 C.3   100  ALA100      0.0290
     66  N         11.2210   16.8330   22.2900 N.3   112  PHE112     -0.1241
     67  CA        12.1640   17.2020   21.2550 C.3   112  PHE112      0.1605
     68  C         13.4840   17.6200   21.8570 C.2   112  PHE112      0.2264
     69  O         13.5600   18.0860   23.0010 O.2   112  PHE112     -0.2867
     70  CB        11.6070   18.2680   20.2890 C.3   112  PHE112      0.0534
     71  CG        11.2080   19.5750   20.9390 C.ar  112  PHE112     -0.0203
     72  CD1       10.0050   19.6890   21.6260 C.ar  112  PHE112     -0.0042
     73  CD2       12.0100   20.7050   20.8100 C.ar  112  PHE112     -0.0042
     74  CE1        9.6230   20.8950   22.2010 C.ar  112  PHE112     -0.0003
     75  CE2       11.6270   21.9170   21.3800 C.ar  112  PHE112     -0.0003
     76  CZ        10.4300   22.0110   22.0770 C.ar  112  PHE112     -0.0000
     77  N         19.3580   24.1720   18.0290 N.3   116  ILE116     -0.1245
     78  CA        19.6180   25.6050   18.0330 C.3   116  ILE116      0.1561
     79  C         18.8610   26.1920   19.2280 C.2   116  ILE116      0.2260
     80  O         18.0210   25.5160   19.8250 O.2   116  ILE116     -0.2867
     81  CB        19.1030   26.3490   16.7390 C.3   116  ILE116      0.0252
     82  CG1       17.5640   26.2800   16.5950 C.3   116  ILE116      0.0019
     83  CG2       19.7920   25.8100   15.4890 C.3   116  ILE116      0.0019
     84  CD1       16.9240   27.3290   15.6040 C.3   116  ILE116      0.0001
     85  N         11.4800   31.3350   20.8170 N.3   120  TRP120     -0.1227
     86  CA        10.0520   31.5380   20.5800 C.3   120  TRP120      0.1737
     87  C          9.1870   30.4420   21.2310 C.2   120  TRP120      0.2595
     88  O          7.9660   30.5820   21.3190 O.2   120  TRP120     -0.2718
     89  CB         9.7650   31.6530   19.0750 C.3   120  TRP120      0.0564
     90  CG         9.9940   30.3970   18.3010 C.ar  120  TRP120      0.0003
     91  CD1        9.0580   29.4550   17.9890 C.ar  120  TRP120      0.0946
     92  CD2       11.2260   29.9390   17.7300 C.ar  120  TRP120      0.0152
     93  NE1        9.6280   28.4440   17.2670 N.ar  120  TRP120     -0.2442
     94  CE2       10.9570   28.7110   17.0910 C.ar  120  TRP120      0.0810
     95  CE3       12.5280   30.4440   17.6920 C.ar  120  TRP120      0.0012
     96  CZ2       11.9420   27.9790   16.4310 C.ar  120  TRP120      0.0191
     97  CZ3       13.5030   29.7170   17.0230 C.ar  120  TRP120      0.0001
     98  CH2       13.2020   28.4980   16.4080 C.ar  120  TRP120      0.0015
     99  N          9.8180   29.3600   21.6920 N.am  121  LEU121     -0.1980
    100  CA         9.1060   28.3010   22.3990 C.3   121  LEU121      0.1596
    101  C          9.0650   28.5240   23.9150 C.2   121  LEU121      0.2287
    102  O          8.3470   27.8070   24.6160 O.2   121  LEU121     -0.2864
    103  CB         9.7210   26.9400   22.0590 C.3   121  LEU121      0.0297
    104  CG         9.7230   26.6130   20.5590 C.3   121  LEU121      0.0022
    105  CD1       10.3210   25.2360   20.3270 C.3   121  LEU121      0.0001
    106  CD2        8.3260   26.7030   19.9630 C.3   121  LEU121      0.0001
    107  N          6.4870   25.6120   25.7140 N.3   125  HIS125     -0.1241
    108  CA         6.9210   24.2340   25.9190 C.3   125  HIS125      0.1621
    109  C          7.7330   24.1410   27.1870 C.2   125  HIS125      0.2264
    110  O          8.5760   24.9980   27.4580 O.2   125  HIS125     -0.2867
    111  CB         7.7370   23.7530   24.7250 C.3   125  HIS125      0.0745
    112  CG         6.9380   23.7240   23.4690 C.ar  125  HIS125      0.0817
    113  ND1        6.3570   22.5740   22.9870 N.ar  125  HIS125     -0.2268
    114  CD2        6.5360   24.7240   22.6490 C.ar  125  HIS125      0.1154
    115  CE1        5.6720   22.8590   21.8930 C.ar  125  HIS125      0.1986
    116  NE2        5.7600   24.1580   21.6700 N.ar  125  HIS125     -0.2212
    117  N         12.8890   19.9880    5.7280 N.3   147  LYS147     -0.1245
    118  CA        12.1050   21.1790    6.0640 C.3   147  LYS147      0.1561
    119  C         10.6750   20.8450    6.5050 C.2   147  LYS147      0.2260
    120  O         10.1360   21.4970    7.3970 O.2   147  LYS147     -0.2867
    121  CB        12.0930   22.1580    4.8890 C.3   147  LYS147      0.0271
    122  CG        13.4490   22.7780    4.6020 C.3   147  LYS147      0.0035
    123  CD        13.7270   23.9340    5.5600 C.3   147  LYS147      0.0206
    124  CE        15.1890   24.3720    5.5650 C.3   147  LYS147      0.1093
    125  NZ        16.0520   23.4500    6.3780 N.3   147  LYS147     -0.1314
@<TRIPOS>BOND
     1   122   121    1
     2   122   123    1
     3   121   118    1
     4   123   124    1
     5   124   125    1
     6   117   118    1
     7   118   119    1
     8   119   120    2
     9    25    26    1
    10    25    24    1
    11    26    20    1
    12    24    21    1
    13    20    21    1
    14    20    14   am
    15    21    22    1
    16    32    31    1
    17    23    22    2
    18    18    16    1
    19    11     9    1
    20    22    27   am
    21    13    14    1
    22    13    16    1
    23    13    12    1
    24    31    28    1
    25    17    16    1
    26    17    19    1
    27    14    15    2
    28     8     9    2
    29     8     7    1
    30    27    28    1
    31     9    10    1
    32    28    29    1
    33     7     6    1
    34     6     5    1
    35     2     3    1
    36     2     5    1
    37     2     1    1
    38    29    30    2
    39    29    33   am
    40     3     4    2
    41    33    34    1
    42    37    34    1
    43    37    38    1
    44    40    38   ar
    45    40    42   ar
    46    34    35    1
    47    38    39   ar
    48    47    46    2
    49    42    43   ar
    50    51    50    1
    51    44    35   am
    52    44    45    1
    53    83    81    1
    54    84    82    1
    55    35    36    2
    56    46    45    1
    57    39    41   ar
    58    43    41   ar
    59    98    96   ar
    60    98    97   ar
    61    96    94   ar
    62    45    48    1
    63    82    81    1
    64    81    78    1
    65    55    54    2
    66    50    49    1
    67    49    48    1
    68    52    53    1
    69    97    95   ar
    70    94    93   ar
    71    94    92   ar
    72    93    91   ar
    73    59    58    2
    74    56    53    1
    75    56    57    1
    76    95    92   ar
    77    92    90   ar
    78    58    60   am
    79    58    57    1
    80    54    53    1
    81    91    90   ar
    82    77    78    1
    83    78    79    1
    84    90    89    1
    85    89    86    1
    86    79    80    2
    87   106   104    1
    88    70    71    1
    89    70    67    1
    90   105   104    1
    91   104   103    1
    92    86    85    1
    93    86    87    1
    94    73    71   ar
    95    73    75   ar
    96    71    72   ar
    97    87    88    2
    98    87    99   am
    99    67    68    1
   100    67    66    1
   101    75    76   ar
   102    65    62    1
   103    72    74   ar
   104   116   115   ar
   105   116   114   ar
   106    99   100    1
   107    68    69    2
   108   115   113   ar
   109   103   100    1
   110    76    74   ar
   111   100   101    1
   112    62    63    1
   113    62    61    1
   114   114   112   ar
   115   113   112   ar
   116    63    64    2
   117   112   111    1
   118   101   102    2
   119   111   108    1
   120   107   108    1
   121   108   109    1
   122   109   110    2
