@<TRIPOS>MOLECULE
tmp/3rciA02.pdb
 79 73 0 0 0
SMALL
GASTEIGER

@<TRIPOS>ATOM
      1  N         11.9890   15.3350   17.0070 N.3    62  GLN62      -0.1245
      2  CA        10.8180   15.0020   17.8240 C.3    62  GLN62       0.1566
      3  C         10.5370   13.4990   17.8280 C.2    62  GLN62       0.2260
      4  O         10.5950   12.8240   16.7940 O.2    62  GLN62      -0.2867
      5  CB         9.5890   15.7380   17.2990 C.3    62  GLN62       0.0367
      6  CG         8.3350   15.5910   18.1690 C.3    62  GLN62       0.0905
      7  CD         7.1870   16.4590   17.6760 C.2    62  GLN62       0.2608
      8  OE1        7.4170   17.4760   17.0160 O.2    62  GLN62      -0.2717
      9  NE2        5.9440   16.0720   18.0090 N.am   62  GLN62      -0.0878
     10  N          2.7360   11.6260   15.6440 N.3    71  GLY71      -0.1210
     11  CA         2.4990   12.9350   16.2520 C.3    71  GLY71       0.1956
     12  C          1.1170   13.0990   16.8440 C.2    71  GLY71       0.2613
     13  O          0.8450   14.0670   17.5550 O.2    71  GLY71      -0.2717
     14  N          0.2250   12.1410   16.5760 N.am   72  THR72      -0.1938
     15  CA        -1.1360   12.2410   17.1070 C.3    72  THR72       0.2028
     16  C         -1.3170   11.5080   18.4240 C.2    72  THR72       0.2642
     17  O         -2.3240   11.7160   19.1090 O.2    72  THR72      -0.2714
     18  CB        -2.1590   11.7040   16.1070 C.3    72  THR72       0.1808
     19  OG1       -1.9100   10.3080   15.9020 O.3    72  THR72      -0.2208
     20  CG2       -2.0720   12.4670   14.7890 C.3    72  THR72       0.0379
     21  N         -0.3430   10.6880   18.8100 N.am   73  GLY73      -0.1954
     22  CA        -0.5290    9.7810   19.9380 C.3    73  GLY73       0.1869
     23  C          0.3960   10.0180   21.1200 C.2    73  GLY73       0.2309
     24  O          0.8310   11.1490   21.4010 O.2    73  GLY73      -0.2863
     25  N         -3.1000   12.8840   29.2440 N.3    81  ARG81      -0.1245
     26  CA        -2.4160   14.1840   29.2020 C.3    81  ARG81       0.1563
     27  C         -2.2190   14.7240   30.6010 C.2    81  ARG81       0.2260
     28  O         -2.9540   14.3640   31.5100 O.2    81  ARG81      -0.2867
     29  CB        -3.2300   15.1840   28.3730 C.3    81  ARG81       0.0307
     30  CG        -3.4530   14.7580   26.9080 C.3    81  ARG81       0.0489
     31  CD        -2.1510   14.7580   26.1110 C.3    81  ARG81       0.2205
     32  NE        -2.2960   14.4240   24.6900 N.pl3  81  ARG81      -0.0865
     33  CZ        -2.0390   13.2300   24.1510 C.cat  81  ARG81       0.5346
     34  NH1       -1.6570   12.1990   24.8980 N.pl3  81  ARG81       0.1354
     35  NH2       -2.1940   13.0530   22.8430 N.pl3  81  ARG81       0.1354
     36  N          6.7870   18.1520   23.7040 N.3   100  ALA100     -0.1231
     37  CA         5.9260   18.4960   22.5840 C.3   100  ALA100      0.1694
     38  C          4.5100   18.5560   23.1280 C.2   100  ALA100      0.2592
     39  O          4.2150   17.9860   24.1710 O.2   100  ALA100     -0.2718
     40  CB         6.0540   17.4520   21.4340 C.3   100  ALA100      0.0304
     41  N          3.6340   19.3060   22.4530 N.am  101  ASN101     -0.1960
     42  CA         2.2440   19.3920   22.8900 C.3   101  ASN101      0.1819
     43  C          1.3170   19.8080   21.7460 C.2   101  ASN101      0.2621
     44  O          1.7570   20.0560   20.5960 O.2   101  ASN101     -0.2715
     45  CB         2.1260   20.2950   24.1430 C.3   101  ASN101      0.1195
     46  CG         2.4360   21.7590   23.8550 C.2   101  ASN101      0.2630
     47  OD1        1.9500   22.3360   22.8650 O.2   101  ASN101     -0.2716
     48  ND2        3.2400   22.3800   24.7290 N.am  101  ASN101     -0.0877
     49  N          0.0280   19.8220   22.0790 N.am  102  ALA102     -0.1977
     50  CA        -1.0130   20.2940   21.1770 C.3   102  ALA102      0.1597
     51  C         -1.7370   21.4940   21.7990 C.2   102  ALA102      0.2287
     52  O         -2.9490   21.6140   21.6760 O.2   102  ALA102     -0.2864
     53  CB        -1.9930   19.1930   20.8780 C.3   102  ALA102      0.0319
     54  N         -1.3100   19.8750   27.4700 N.3   106  THR106     -0.1218
     55  CA        -1.5610   18.6630   26.6710 C.3   106  THR106      0.1862
     56  C         -0.2900   17.7960   26.5580 C.2   106  THR106      0.2287
     57  O         -0.0550   17.1160   25.5490 O.2   106  THR106     -0.2866
     58  CB        -2.1150   18.9980   25.2680 C.3   106  THR106      0.1770
     59  OG1       -1.2170   19.8760   24.5970 O.3   106  THR106     -0.2211
     60  CG2       -3.5060   19.6720   25.3500 C.3   106  THR106      0.0375
     61  N          1.9410   14.6300   26.9620 N.3   108  GLY108     -0.1210
     62  CA         1.6450   13.1930   27.0150 C.3   108  GLY108      0.1956
     63  C          2.9710   12.4860   27.1520 C.2   108  GLY108      0.2613
     64  O          3.5280   12.3870   28.2610 O.2   108  GLY108     -0.2717
     65  N          3.5070   12.0410   26.0140 N.am  109  SER109     -0.1938
     66  CA         4.8330   11.4180   25.9860 C.3   109  SER109      0.2055
     67  C          5.7530   11.9870   24.9090 C.2   109  SER109      0.2642
     68  O          6.9290   11.6410   24.8580 O.2   109  SER109     -0.2714
     69  CB         4.7050    9.9100   25.7510 C.3   109  SER109      0.2130
     70  OG         3.9470    9.6300   24.5810 O.3   109  SER109     -0.2179
     71  N          5.2390   12.8310   24.0290 N.am  110  GLN110     -0.1976
     72  CA         6.0650   13.3160   22.9540 C.3   110  GLN110      0.1601
     73  C          6.9890   14.4140   23.4550 C.2   110  GLN110      0.2287
     74  O          6.6080   15.2360   24.2670 O.2   110  GLN110     -0.2864
     75  CB         5.2170   13.8160   21.7940 C.3   110  GLN110      0.0394
     76  CG         4.4680   12.7280   21.0810 C.3   110  GLN110      0.0908
     77  CD         3.7510   13.2530   19.8580 C.2   110  GLN110      0.2608
     78  OE1        4.3790   13.8860   19.0020 O.2   110  GLN110     -0.2717
     79  NE2        2.4230   13.0310   19.7840 N.am  110  GLN110     -0.0878
@<TRIPOS>BOND
     1    20    18    1
     2    10    11    1
     3    19    18    1
     4    18    15    1
     5    11    12    1
     6    14    12   am
     7    14    15    1
     8     4     3    2
     9    12    13    2
    10     1     2    1
    11     8     7    2
    12    15    16    1
    13     5     2    1
    14     5     6    1
    15     7     9   am
    16     7     6    1
    17     2     3    1
    18    16    21   am
    19    16    17    2
    20    21    22    1
    21    78    77    2
    22    79    77   am
    23    77    76    1
    24    22    23    1
    25    44    43    2
    26    53    50    1
    27    76    75    1
    28    23    24    2
    29    50    51    1
    30    50    49    1
    31    40    37    1
    32    52    51    2
    33    43    49   am
    34    43    42    1
    35    75    72    1
    36    41    42    1
    37    41    38   am
    38    37    38    1
    39    37    36    1
    40    35    33    1
    41    47    46    2
    42    42    45    1
    43    72    73    1
    44    72    71    1
    45    38    39    2
    46    73    74    2
    47    46    45    1
    48    46    48   am
    49    71    67   am
    50    33    32    2
    51    33    34    1
    52    70    69    1
    53    59    58    1
    54    32    31    1
    55    68    67    2
    56    67    66    1
    57    58    60    1
    58    58    55    1
    59    57    56    2
    60    69    66    1
    61    66    65    1
    62    65    63   am
    63    31    30    1
    64    56    55    1
    65    55    54    1
    66    30    29    1
    67    61    62    1
    68    62    63    1
    69    63    64    2
    70    29    26    1
    71    26    25    1
    72    26    27    1
    73    27    28    2
