@<TRIPOS>MOLECULE
tmp/3rcjA00.pdb
 145 135 0 0 0
SMALL
GASTEIGER

@<TRIPOS>ATOM
      1  N        -14.7870  -25.3370  -15.0330 N.3    12  LEU12      -0.1231
      2  CA       -15.1830  -25.9640  -13.7770 C.3    12  LEU12       0.1693
      3  C        -16.5350  -25.4470  -13.3000 C.2    12  LEU12       0.2593
      4  O        -17.1960  -26.0760  -12.4750 O.2    12  LEU12      -0.2718
      5  CB       -14.1270  -25.6970  -12.7020 C.3    12  LEU12       0.0284
      6  CG       -12.7240  -26.2460  -12.9780 C.3    12  LEU12       0.0019
      7  CD1      -11.7510  -25.7000  -11.9400 C.3    12  LEU12       0.0001
      8  CD2      -12.7460  -27.7660  -12.9570 C.3    12  LEU12       0.0001
      9  N        -16.9380  -24.2910  -13.8090 N.am   13  GLY13      -0.1942
     10  CA       -18.2540  -23.7790  -13.4870 C.3    13  GLY13       0.2014
     11  C        -18.6140  -22.5910  -14.3500 C.2    13  GLY13       0.2639
     12  O        -17.7630  -21.7580  -14.6540 O.2    13  GLY13      -0.2714
     13  N        -19.8780  -22.5150  -14.7550 N.am   14  GLU14      -0.1963
     14  CA       -20.3620  -21.3700  -15.5130 C.3    14  GLU14       0.1733
     15  C        -21.3840  -20.5890  -14.7020 C.2    14  GLU14       0.2616
     16  O        -22.3730  -21.1480  -14.2290 O.2    14  GLU14      -0.2715
     17  CB       -20.9830  -21.8300  -16.8340 C.3    14  GLU14       0.0429
     18  CG       -19.9630  -22.3420  -17.8400 C.3    14  GLU14       0.1163
     19  CD       -20.6010  -22.9300  -19.0850 C.2    14  GLU14       0.3649
     20  OE1      -21.5600  -22.3260  -19.6080 O.co2  14  GLU14      -0.2457
     21  OE2      -20.1410  -23.9990  -19.5420 O.co2  14  GLU14      -0.2457
     22  N        -21.1280  -19.2970  -14.5360 N.am   15  GLY15      -0.1955
     23  CA       -22.0570  -18.4400  -13.8260 C.3    15  GLY15       0.1869
     24  C        -22.6860  -17.4320  -14.7650 C.2    15  GLY15       0.2309
     25  O        -22.4440  -17.4660  -15.9720 O.2    15  GLY15      -0.2863
     26  N        -22.2870  -14.1040  -14.7330 N.3    17  PHE17      -0.1227
     27  CA       -21.3650  -13.0320  -15.0830 C.3    17  PHE17       0.1736
     28  C        -19.9080  -13.4670  -14.9660 C.2    17  PHE17       0.2596
     29  O        -18.9970  -12.7050  -15.2930 O.2    17  PHE17      -0.2718
     30  CB       -21.6170  -11.8120  -14.1930 C.3    17  PHE17       0.0547
     31  CG       -21.5380  -12.1020  -12.7190 C.ar   17  PHE17      -0.0202
     32  CD1      -22.5570  -12.7870  -12.0750 C.ar   17  PHE17      -0.0042
     33  CD2      -20.4550  -11.6640  -11.9710 C.ar   17  PHE17      -0.0042
     34  CE1      -22.4980  -13.0290  -10.7130 C.ar   17  PHE17      -0.0003
     35  CE2      -20.3910  -11.9020  -10.6080 C.ar   17  PHE17      -0.0003
     36  CZ       -21.4130  -12.5840   -9.9780 C.ar   17  PHE17      -0.0000
     37  N        -19.6910  -14.6940  -14.5020 N.am   18  SER18      -0.1952
     38  CA       -18.3370  -15.2020  -14.3100 C.3    18  SER18       0.1924
     39  C        -18.2200  -16.6840  -14.6450 C.2    18  SER18       0.2314
     40  O        -19.2180  -17.4000  -14.7050 O.2    18  SER18      -0.2863
     41  CB       -17.8920  -14.9690  -12.8680 C.3    18  SER18       0.2116
     42  OG       -18.7690  -15.6120  -11.9650 O.3    18  SER18      -0.2180
     43  N        -15.4780  -20.2280  -13.9350 N.3    20  VAL20      -0.1245
     44  CA       -14.2990  -20.7830  -13.2750 C.3    20  VAL20       0.1561
     45  C        -13.6810  -21.8480  -14.1670 C.2    20  VAL20       0.2260
     46  O        -14.3640  -22.7660  -14.6180 O.2    20  VAL20      -0.2867
     47  CB       -14.6600  -21.3990  -11.9120 C.3    20  VAL20       0.0252
     48  CG1      -13.4150  -22.0050  -11.2620 C.3    20  VAL20       0.0019
     49  CG2      -15.2450  -20.3250  -11.0080 C.3    20  VAL20       0.0019
     50  N         -7.8760  -23.1360   -9.8100 N.3    33  ALA33      -0.1245
     51  CA        -9.1800  -22.8210  -10.3830 C.3    33  ALA33       0.1562
     52  C         -9.2450  -21.3090  -10.5230 C.2    33  ALA33       0.2260
     53  O         -9.2730  -20.5790   -9.5270 O.2    33  ALA33      -0.2867
     54  CB       -10.2960  -23.3210   -9.4700 C.3    33  ALA33       0.0290
     55  N        -11.1130  -17.9390  -11.4190 N.3    35  LYS35      -0.1245
     56  CA       -12.4160  -17.3200  -11.6270 C.3    35  LYS35       0.1561
     57  C        -12.2360  -16.0970  -12.5120 C.2    35  LYS35       0.2260
     58  O        -11.4310  -15.2170  -12.2150 O.2    35  LYS35      -0.2867
     59  CB       -13.0330  -16.9100  -10.2860 C.3    35  LYS35       0.0271
     60  CG       -14.4520  -16.3760  -10.4040 C.3    35  LYS35       0.0035
     61  CD       -15.0830  -16.1630   -9.0370 C.3    35  LYS35       0.0206
     62  CE       -16.5140  -15.6720   -9.1780 C.3    35  LYS35       0.1093
     63  NZ       -17.1830  -15.5240   -7.8560 N.3    35  LYS35      -0.1314
     64  N        -15.9380   -9.6880   -2.7780 N.3    54  GLU54      -0.1245
     65  CA       -15.4220  -11.0490   -2.7940 C.3    54  GLU54       0.1567
     66  C        -13.9030  -11.0680   -2.6710 C.2    54  GLU54       0.2260
     67  O        -13.3390  -11.9180   -1.9810 O.2    54  GLU54      -0.2867
     68  CB       -15.8450  -11.7580   -4.0840 C.3    54  GLU54       0.0388
     69  CG       -15.4300  -13.2150   -4.1530 C.3    54  GLU54       0.1160
     70  CD       -15.7790  -13.8600   -5.4790 C.2    54  GLU54       0.3649
     71  OE1      -16.2470  -13.1400   -6.3870 O.co2  54  GLU54      -0.2457
     72  OE2      -15.5850  -15.0860   -5.6160 O.co2  54  GLU54      -0.2457
     73  N        -11.3200  -22.2920    0.4320 N.3    67  VAL67      -0.1245
     74  CA       -10.5970  -21.9590   -0.7900 C.3    67  VAL67       0.1561
     75  C         -9.7050  -20.7560   -0.5030 C.2    67  VAL67       0.2260
     76  O        -10.1100  -19.8350    0.2060 O.2    67  VAL67      -0.2867
     77  CB       -11.5710  -21.5940   -1.9330 C.3    67  VAL67       0.0252
     78  CG1      -12.4250  -20.4040   -1.5250 C.3    67  VAL67       0.0019
     79  CG2      -10.7950  -21.2720   -3.1980 C.3    67  VAL67       0.0019
     80  N         -7.7390  -19.2380   -7.5620 N.3    83  LEU83      -0.1231
     81  CA        -8.2510  -19.9390   -6.3830 C.3    83  LEU83       0.1693
     82  C         -7.7040  -21.3600   -6.2470 C.2    83  LEU83       0.2593
     83  O         -7.2480  -21.9620   -7.2210 O.2    83  LEU83      -0.2718
     84  CB        -9.7770  -20.0170   -6.4470 C.3    83  LEU83       0.0284
     85  CG       -10.5180  -18.7110   -6.7280 C.3    83  LEU83       0.0019
     86  CD1      -12.0200  -18.9720   -6.7090 C.3    83  LEU83       0.0001
     87  CD2      -10.1370  -17.6690   -5.6910 C.3    83  LEU83       0.0001
     88  N         -7.7720  -21.9010   -5.0320 N.am   84  SER84      -0.1938
     89  CA        -7.4870  -23.3130   -4.8020 C.3    84  SER84       0.2055
     90  C         -8.3550  -24.1790   -5.7100 C.2    84  SER84       0.2643
     91  O         -9.5530  -23.9280   -5.8570 O.2    84  SER84      -0.2714
     92  CB        -7.7900  -23.6920   -3.3460 C.3    84  SER84       0.2130
     93  OG        -7.2930  -22.7240   -2.4480 O.3    84  SER84      -0.2179
     94  N         -7.7510  -25.2040   -6.3040 N.am   85  TYR85      -0.1959
     95  CA        -8.4950  -26.1820   -7.0950 C.3    85  TYR85       0.1771
     96  C         -8.8860  -27.3810   -6.2240 C.2    85  TYR85       0.2619
     97  O         -8.0280  -28.0210   -5.6070 O.2    85  TYR85      -0.2715
     98  CB        -7.6320  -26.6440   -8.2750 C.3    85  TYR85       0.0574
     99  CG        -8.1870  -27.8050   -9.0610 C.ar   85  TYR85      -0.0198
    100  CD1       -9.4880  -27.7860   -9.5460 C.ar   85  TYR85      -0.0009
    101  CD2       -7.3920  -28.9030   -9.3650 C.ar   85  TYR85      -0.0009
    102  CE1       -9.9790  -28.8250  -10.3170 C.ar   85  TYR85       0.0417
    103  CE2       -7.8760  -29.9470  -10.1310 C.ar   85  TYR85       0.0417
    104  CZ        -9.1660  -29.9010  -10.6050 C.ar   85  TYR85       0.1957
    105  OH        -9.6460  -30.9270  -11.3850 O.3    85  TYR85      -0.2866
    106  N        -10.1820  -27.6730   -6.1680 N.am   86  ALA86      -0.1977
    107  CA       -10.6650  -28.8280   -5.4230 C.3    86  ALA86       0.1597
    108  C        -11.1280  -29.9110   -6.3910 C.2    86  ALA86       0.2287
    109  O        -12.1950  -29.8100   -6.9950 O.2    86  ALA86      -0.2864
    110  CB       -11.8070  -28.4170   -4.4990 C.3    86  ALA86       0.0319
    111  N        -14.8760  -32.2130   -6.4950 N.3    89  GLY89      -0.1225
    112  CA       -16.2170  -31.7080   -6.7280 C.3    89  GLY89       0.1811
    113  C        -16.9760  -31.2590   -5.4930 C.2    89  GLY89       0.2280
    114  O        -16.3880  -31.0210   -4.4390 O.2    89  GLY89      -0.2866
    115  N        -21.5510  -25.4640   -2.3190 N.3   134  ASN134     -0.1240
    116  CA       -20.4380  -24.5490   -2.0540 C.3   134  ASN134      0.1653
    117  C        -19.3810  -25.1650   -1.1500 C.2   134  ASN134      0.2266
    118  O        -18.4220  -24.5000   -0.7630 O.2   134  ASN134     -0.2867
    119  CB       -20.9530  -23.2610   -1.3990 C.3   134  ASN134      0.1155
    120  CG       -21.6200  -22.3350   -2.3910 C.2   134  ASN134      0.2627
    121  OD1      -21.3690  -22.4210   -3.5950 O.2   134  ASN134     -0.2716
    122  ND2      -22.4690  -21.4450   -1.8970 N.am  134  ASN134     -0.0877
    123  N        -16.7140  -27.7980   -1.3290 N.3   136  LEU136     -0.1245
    124  CA       -15.9950  -28.6550   -2.2610 C.3   136  LEU136      0.1561
    125  C        -15.1300  -29.6500   -1.5070 C.2   136  LEU136      0.2260
    126  O        -14.9140  -29.5160   -0.2980 O.2   136  LEU136     -0.2867
    127  CB       -15.1160  -27.8120   -3.1860 C.3   136  LEU136      0.0270
    128  CG       -15.8130  -26.6040   -3.8090 C.3   136  LEU136      0.0019
    129  CD1      -14.8220  -25.8640   -4.6900 C.3   136  LEU136      0.0001
    130  CD2      -17.0180  -27.0490   -4.6020 C.3   136  LEU136      0.0001
    131  N        -16.1670  -22.5010   -0.6210 N.3   146  THR146     -0.1203
    132  CA       -16.0140  -21.4630   -1.6390 C.3   146  THR146      0.1994
    133  C        -17.2250  -20.5420   -1.7910 C.2   146  THR146      0.2617
    134  O        -18.1300  -20.5500   -0.9610 O.2   146  THR146     -0.2717
    135  CB       -15.6790  -22.0770   -3.0090 C.3   146  THR146      0.1784
    136  OG1      -15.2070  -21.0510   -3.8890 O.3   146  THR146     -0.2211
    137  CG2      -16.9100  -22.7330   -3.6110 C.3   146  THR146      0.0376
    138  N        -17.2280  -19.7570   -2.8690 N.am  147  ASP147     -0.1973
    139  CA       -18.3160  -18.8180   -3.1600 C.3   147  ASP147      0.1709
    140  C        -18.5840  -17.7390   -2.1090 C.2   147  ASP147      0.2293
    141  O        -19.6160  -17.7350   -1.4450 O.2   147  ASP147     -0.2864
    142  CB       -19.6090  -19.5620   -3.4950 C.3   147  ASP147      0.1436
    143  CG       -20.4950  -18.7770   -4.4360 C.2   147  ASP147      0.3671
    144  OD1      -20.1100  -17.6490   -4.8030 O.co2 147  ASP147     -0.2456
    145  OD2      -21.5690  -19.2870   -4.8110 O.co2 147  ASP147     -0.2456
@<TRIPOS>BOND
     1    20    19   ar
     2    21    19   ar
     3    19    18    1
     4    18    17    1
     5    17    14    1
     6    25    24    2
     7    14    13    1
     8    14    15    1
     9    29    28    2
    10    27    28    1
    11    27    26    1
    12    27    30    1
    13     1     2    1
    14    28    37   am
    15    24    23    1
    16    13    11   am
    17    40    39    2
    18    15    22   am
    19    15    16    2
    20    12    11    2
    21    39    38    1
    22    46    45    2
    23    22    23    1
    24    37    38    1
    25    11    10    1
    26    38    41    1
    27    30    31    1
    28    45    44    1
    29    43    44    1
    30     9    10    1
    31     9     3   am
    32     2     3    1
    33     2     5    1
    34     3     4    2
    35    44    47    1
    36     6     8    1
    37     6     5    1
    38     6     7    1
    39    41    42    1
    40    31    32   ar
    41    31    33   ar
    42    57    58    2
    43    57    56    1
    44    32    34   ar
    45    33    35   ar
    46    47    48    1
    47    47    49    1
    48    56    55    1
    49    56    59    1
    50   105   104    1
    51    34    36   ar
    52    35    36   ar
    53   104   102   ar
    54   104   103   ar
    55    52    51    1
    56    52    53    2
    57    60    59    1
    58    60    61    1
    59    51    50    1
    60    51    54    1
    61   102   100   ar
    62   103   101   ar
    63   100    99   ar
    64   101    99   ar
    65    62    61    1
    66    62    63    1
    67    99    98    1
    68    98    95    1
    69    80    81    1
    70    83    82    2
    71    95    94    1
    72    95    96    1
    73   109   108    2
    74   112   111    1
    75   112   113    1
    76    85    86    1
    77    85    84    1
    78    85    87    1
    79    84    81    1
    80   108   107    1
    81    71    70   ar
    82    81    82    1
    83    94    90   am
    84    82    88   am
    85    96   106   am
    86    96    97    2
    87   106   107    1
    88    91    90    2
    89    90    89    1
    90    72    70   ar
    91   113   114    2
    92    70    69    1
    93   107   110    1
    94    88    89    1
    95   145   143   ar
    96   144   143   ar
    97    89    92    1
    98   129   128    1
    99   130   128    1
   100   143   142    1
   101    69    68    1
   102    68    65    1
   103   136   135    1
   104   128   127    1
   105   137   135    1
   106   121   120    2
   107   142   139    1
   108    92    93    1
   109    79    77    1
   110   127   124    1
   111   139   138    1
   112   139   140    1
   113   135   132    1
   114   138   133   am
   115    65    64    1
   116    65    66    1
   117    66    67    2
   118   120   122   am
   119   120   119    1
   120   115   116    1
   121   124   125    1
   122   124   123    1
   123   140   141    2
   124   116   119    1
   125   116   117    1
   126    77    78    1
   127    77    74    1
   128   133   132    1
   129   133   134    2
   130   132   131    1
   131   125   126    2
   132   117   118    2
   133    74    75    1
   134    74    73    1
   135    75    76    2
