@<TRIPOS>MOLECULE
tmp/3rckA01.pdb
 79 75 0 0 0
SMALL
GASTEIGER

@<TRIPOS>ATOM
      1  N          9.7590   10.5640   14.6880 N.3    53  HIS53      -0.1226
      2  CA         8.7910   10.6790   13.5850 C.3    53  HIS53       0.1752
      3  C          8.8420   12.0050   12.8490 C.2    53  HIS53       0.2595
      4  O          8.2980   12.1110   11.7560 O.2    53  HIS53      -0.2718
      5  CB         7.3580   10.4690   14.1030 C.3    53  HIS53       0.0759
      6  CG         6.9340   11.4770   15.1240 C.ar   53  HIS53       0.0818
      7  ND1        7.2260   11.3300   16.4620 N.ar   53  HIS53      -0.2268
      8  CD2        6.2680   12.6550   15.0120 C.ar   53  HIS53       0.1154
      9  CE1        6.7570   12.3710   17.1300 C.ar   53  HIS53       0.1986
     10  NE2        6.1760   13.1890   16.2730 N.ar   53  HIS53      -0.2212
     11  N          9.4530   13.0270   13.4400 N.am   54  ARG54      -0.1980
     12  CA         9.4750   14.3620   12.8480 C.3    54  ARG54       0.1597
     13  C         10.8160   15.0030   13.1530 C.2    54  ARG54       0.2287
     14  O         11.1480   15.2180   14.3210 O.2    54  ARG54      -0.2864
     15  CB         8.3230   15.2270   13.3890 C.3    54  ARG54       0.0334
     16  CG         8.2600   16.6400   12.7970 C.3    54  ARG54       0.0492
     17  CD         7.0070   17.4030   13.2500 C.3    54  ARG54       0.2205
     18  NE         6.9500   18.7680   12.7180 N.pl3  54  ARG54      -0.0865
     19  CZ         6.6630   19.0700   11.4550 C.cat  54  ARG54       0.5346
     20  NH1        6.6320   20.3370   11.0570 N.pl3  54  ARG54       0.1354
     21  NH2        6.4080   18.1070   10.5810 N.pl3  54  ARG54       0.1354
     22  N         12.1420   15.2130   16.9150 N.3    62  GLN62      -0.1245
     23  CA        10.9640   14.9200   17.7330 C.3    62  GLN62       0.1566
     24  C         10.6340   13.4370   17.7460 C.2    62  GLN62       0.2260
     25  O         10.7200   12.7570   16.7280 O.2    62  GLN62      -0.2867
     26  CB         9.7770   15.7100   17.1890 C.3    62  GLN62       0.0367
     27  CG         8.5550   15.7110   18.0750 C.3    62  GLN62       0.0905
     28  CD         7.4760   16.6430   17.5670 C.2    62  GLN62       0.2608
     29  OE1        7.7050   17.8220   17.2860 O.2    62  GLN62      -0.2717
     30  NE2        6.2820   16.1000   17.4710 N.am   62  GLN62      -0.0878
     31  N          3.2010    8.7090   14.6180 N.3    70  ASN70      -0.1225
     32  CA         3.0410    9.7570   13.6050 C.3    70  ASN70       0.1785
     33  C          2.8500   11.1820   14.1140 C.2    70  ASN70       0.2597
     34  O          2.6500   12.1020   13.3140 O.2    70  ASN70      -0.2718
     35  CB         1.9150    9.3720   12.6370 C.3    70  ASN70       0.1169
     36  CG         0.5550    9.3500   13.2870 C.2    70  ASN70       0.2627
     37  OD1        0.3680    9.7820   14.4300 O.2    70  ASN70      -0.2716
     38  ND2       -0.4290    8.8640   12.5400 N.am   70  ASN70      -0.0877
     39  N          2.9510   11.3920   15.4240 N.am   71  GLY71      -0.1957
     40  CA         2.7940   12.7200   15.9870 C.3    71  GLY71       0.1869
     41  C          1.4350   12.9860   16.6040 C.2    71  GLY71       0.2309
     42  O          1.2260   14.0350   17.2080 O.2    71  GLY71      -0.2863
     43  N          6.9170   18.1460   23.6530 N.3   100  ALA100     -0.1231
     44  CA         6.0420   18.5130   22.5550 C.3   100  ALA100      0.1694
     45  C          4.6420   18.6340   23.1210 C.2   100  ALA100      0.2592
     46  O          4.3250   18.0520   24.1610 O.2   100  ALA100     -0.2718
     47  CB         6.0940   17.4290   21.4550 C.3   100  ALA100      0.0304
     48  N          3.7990   19.4140   22.4570 N.am  101  ASN101     -0.1960
     49  CA         2.4120   19.5330   22.8890 C.3   101  ASN101      0.1819
     50  C          1.5090   20.0060   21.7580 C.2   101  ASN101      0.2621
     51  O          1.9760   20.2750   20.6430 O.2   101  ASN101     -0.2715
     52  CB         2.3130   20.4150   24.1440 C.3   101  ASN101      0.1195
     53  CG         2.6230   21.8730   23.8840 C.2   101  ASN101      0.2630
     54  OD1        2.0850   22.4780   22.9620 O.2   101  ASN101     -0.2716
     55  ND2        3.4640   22.4600   24.7240 N.am  101  ASN101     -0.0877
     56  N          0.2070   20.0310   22.0530 N.am  102  ALA102     -0.1977
     57  CA        -0.8330   20.4820   21.1210 C.3   102  ALA102      0.1597
     58  C         -1.5630   21.6660   21.7360 C.2   102  ALA102      0.2287
     59  O         -2.7930   21.7930   21.5990 O.2   102  ALA102     -0.2864
     60  CB        -1.8080   19.3500   20.8420 C.3   102  ALA102      0.0319
     61  N          5.3290   12.7120   23.9060 N.3   110  GLN110     -0.1245
     62  CA         6.1470   13.2530   22.8320 C.3   110  GLN110      0.1566
     63  C          7.0800   14.3420   23.3390 C.2   110  GLN110      0.2260
     64  O          6.7220   15.1280   24.2200 O.2   110  GLN110     -0.2867
     65  CB         5.2820   13.7890   21.6920 C.3   110  GLN110      0.0367
     66  CG         4.6390   12.7100   20.8510 C.3   110  GLN110      0.0905
     67  CD         3.8920   13.3070   19.6980 C.2   110  GLN110      0.2608
     68  OE1        4.4510   14.0830   18.9250 O.2   110  GLN110     -0.2717
     69  NE2        2.6030   12.9720   19.5820 N.am  110  GLN110     -0.0878
     70  N          6.4870   25.4940   25.7150 N.3   125  HIS125     -0.1241
     71  CA         6.9110   24.1030   25.8740 C.3   125  HIS125      0.1621
     72  C          7.7300   23.9880   27.1380 C.2   125  HIS125      0.2264
     73  O          8.5680   24.8500   27.4140 O.2   125  HIS125     -0.2867
     74  CB         7.6980   23.6650   24.6400 C.3   125  HIS125      0.0745
     75  CG         6.8540   23.6440   23.4080 C.ar  125  HIS125      0.0817
     76  ND1        6.2300   22.5000   22.9660 N.ar  125  HIS125     -0.2268
     77  CD2        6.4610   24.6390   22.5770 C.ar  125  HIS125      0.1154
     78  CE1        5.5020   22.7890   21.8980 C.ar  125  HIS125      0.1986
     79  NE2        5.6160   24.0800   21.6460 N.ar  125  HIS125     -0.2212
@<TRIPOS>BOND
     1    21    19    1
     2    20    19    1
     3    19    18    2
     4     4     3    2
     5    38    36   am
     6    35    36    1
     7    35    32    1
     8    18    17    1
     9    16    17    1
    10    16    15    1
    11    12    13    1
    12    12    15    1
    13    12    11    1
    14     3    11   am
    15     3     2    1
    16    13    14    2
    17    36    37    2
    18    34    33    2
    19     2     5    1
    20     2     1    1
    21    32    33    1
    22    32    31    1
    23     5     6    1
    24    33    39   am
    25     8     6   ar
    26     8    10   ar
    27     6     7   ar
    28    39    40    1
    29    40    41    1
    30    10     9   ar
    31     7     9   ar
    32    41    42    2
    33    25    24    2
    34    22    23    1
    35    26    23    1
    36    26    27    1
    37    29    28    2
    38    30    28   am
    39    28    27    1
    40    23    24    1
    41    68    67    2
    42    69    67   am
    43    67    66    1
    44    51    50    2
    45    60    57    1
    46    66    65    1
    47    57    58    1
    48    57    56    1
    49    47    44    1
    50    59    58    2
    51    79    78   ar
    52    79    77   ar
    53    65    62    1
    54    50    56   am
    55    50    49    1
    56    78    76   ar
    57    48    49    1
    58    48    45   am
    59    44    45    1
    60    44    43    1
    61    77    75   ar
    62    62    63    1
    63    62    61    1
    64    49    52    1
    65    54    53    2
    66    76    75   ar
    67    45    46    2
    68    63    64    2
    69    75    74    1
    70    53    52    1
    71    53    55   am
    72    74    71    1
    73    70    71    1
    74    71    72    1
    75    72    73    2
