@<TRIPOS>MOLECULE
tmp/3rckA00.pdb
 80 75 0 0 0
SMALL
GASTEIGER

@<TRIPOS>ATOM
      1  N          2.9510   11.3920   15.4240 N.3    71  GLY71      -0.1210
      2  CA         2.7940   12.7200   15.9870 C.3    71  GLY71       0.1956
      3  C          1.4350   12.9860   16.6040 C.2    71  GLY71       0.2613
      4  O          1.2260   14.0350   17.2080 O.2    71  GLY71      -0.2717
      5  N          0.4970   12.0480   16.4580 N.am   72  THR72      -0.1938
      6  CA        -0.8360   12.2320   17.0340 C.3    72  THR72       0.2028
      7  C         -0.9670   11.6230   18.4220 C.2    72  THR72       0.2643
      8  O         -1.9130   11.9420   19.1520 O.2    72  THR72      -0.2714
      9  CB        -1.9400   11.6240   16.1380 C.3    72  THR72       0.1808
     10  OG1       -1.7100   10.2200   15.9960 O.3    72  THR72      -0.2208
     11  CG2       -1.9720   12.2910   14.7680 C.3    72  THR72       0.0379
     12  N         -0.0420   10.7390   18.7910 N.am   73  GLY73      -0.1939
     13  CA        -0.2470    9.8640   19.9350 C.3    73  GLY73       0.2014
     14  C          0.7280   10.0090   21.0860 C.2    73  GLY73       0.2639
     15  O          1.3060   11.0650   21.3060 O.2    73  GLY73      -0.2714
     16  N          0.8670    8.9230   21.8340 N.am   74  GLY74      -0.1954
     17  CA         1.6320    8.9400   23.0710 C.3    74  GLY74       0.1869
     18  C          0.7300    9.1550   24.2590 C.2    74  GLY74       0.2309
     19  O         -0.4120    9.6170   24.1160 O.2    74  GLY74      -0.2863
     20  N         -3.7040   10.4080   30.0120 N.3    80  SER80      -0.1202
     21  CA        -3.4590   10.7240   28.6080 C.3    80  SER80       0.2020
     22  C         -2.6710   12.0170   28.4370 C.2    80  SER80       0.2618
     23  O         -1.8430   12.1040   27.5260 O.2    80  SER80      -0.2717
     24  CB        -4.7540   10.7440   27.7770 C.3    80  SER80       0.2103
     25  OG        -5.5420   11.8940   28.0020 O.3    80  SER80      -0.2182
     26  N         -2.9000   13.0000   29.3020 N.am   81  ARG81      -0.1979
     27  CA        -2.2130   14.2860   29.2360 C.3    81  ARG81       0.1597
     28  C         -2.0030   14.8260   30.6370 C.2    81  ARG81       0.2287
     29  O         -2.7250   14.4550   31.5630 O.2    81  ARG81      -0.2864
     30  CB        -3.0420   15.2820   28.4350 C.3    81  ARG81       0.0334
     31  CG        -3.1690   14.8870   26.9900 C.3    81  ARG81       0.0492
     32  CD        -4.0680   15.8020   26.2320 C.3    81  ARG81       0.2205
     33  NE        -4.0890   15.4310   24.8250 N.pl3  81  ARG81      -0.0865
     34  CZ        -4.6470   16.1610   23.8720 C.cat  81  ARG81       0.5346
     35  NH1       -4.6030   15.7390   22.6210 N.pl3  81  ARG81       0.1354
     36  NH2       -5.2370   17.3080   24.1610 N.pl3  81  ARG81       0.1354
     37  N          6.9170   18.1460   23.6530 N.3   100  ALA100     -0.1231
     38  CA         6.0420   18.5130   22.5550 C.3   100  ALA100      0.1694
     39  C          4.6420   18.6340   23.1210 C.2   100  ALA100      0.2592
     40  O          4.3250   18.0520   24.1610 O.2   100  ALA100     -0.2718
     41  CB         6.0940   17.4290   21.4550 C.3   100  ALA100      0.0304
     42  N          3.7990   19.4140   22.4570 N.am  101  ASN101     -0.1960
     43  CA         2.4120   19.5330   22.8890 C.3   101  ASN101      0.1819
     44  C          1.5090   20.0060   21.7580 C.2   101  ASN101      0.2621
     45  O          1.9760   20.2750   20.6430 O.2   101  ASN101     -0.2715
     46  CB         2.3130   20.4150   24.1440 C.3   101  ASN101      0.1195
     47  CG         2.6230   21.8730   23.8840 C.2   101  ASN101      0.2630
     48  OD1        2.0850   22.4780   22.9620 O.2   101  ASN101     -0.2716
     49  ND2        3.4640   22.4600   24.7240 N.am  101  ASN101     -0.0877
     50  N          0.2070   20.0310   22.0530 N.am  102  ALA102     -0.1977
     51  CA        -0.8330   20.4820   21.1210 C.3   102  ALA102      0.1597
     52  C         -1.5630   21.6660   21.7360 C.2   102  ALA102      0.2287
     53  O         -2.7930   21.7930   21.5990 O.2   102  ALA102     -0.2864
     54  CB        -1.8080   19.3500   20.8420 C.3   102  ALA102      0.0319
     55  N         -1.1520   19.9370   27.4940 N.3   106  THR106     -0.1218
     56  CA        -1.4100   18.7320   26.6940 C.3   106  THR106      0.1862
     57  C         -0.1770   17.8370   26.5730 C.2   106  THR106      0.2287
     58  O         -0.0340   17.0970   25.6050 O.2   106  THR106     -0.2866
     59  CB        -1.9270   19.0620   25.2740 C.3   106  THR106      0.1770
     60  OG1       -0.9680   19.8760   24.6010 O.3   106  THR106     -0.2211
     61  CG2       -3.2790   19.7980   25.3330 C.3   106  THR106      0.0375
     62  N          2.1030   14.6760   26.9290 N.3   108  GLY108     -0.1210
     63  CA         1.8650   13.2410   27.0170 C.3   108  GLY108      0.1956
     64  C          3.1970   12.5460   27.1460 C.2   108  GLY108      0.2613
     65  O          3.7750   12.5140   28.2320 O.2   108  GLY108     -0.2717
     66  N          3.6820   12.0140   26.0260 N.am  109  SER109     -0.1938
     67  CA         5.0040   11.4090   25.9710 C.3   109  SER109      0.2055
     68  C          5.8890   11.9970   24.8760 C.2   109  SER109      0.2642
     69  O          7.1010   11.7770   24.9070 O.2   109  SER109     -0.2714
     70  CB         4.8960    9.9070   25.7660 C.3   109  SER109      0.2130
     71  OG         4.1340    9.6220   24.6030 O.3   109  SER109     -0.2179
     72  N          5.3290   12.7120   23.9060 N.am  110  GLN110     -0.1976
     73  CA         6.1470   13.2530   22.8320 C.3   110  GLN110      0.1601
     74  C          7.0800   14.3420   23.3390 C.2   110  GLN110      0.2287
     75  O          6.7220   15.1280   24.2200 O.2   110  GLN110     -0.2864
     76  CB         5.2820   13.7890   21.6920 C.3   110  GLN110      0.0394
     77  CG         4.6390   12.7100   20.8510 C.3   110  GLN110      0.0908
     78  CD         3.8920   13.3070   19.6980 C.2   110  GLN110      0.2608
     79  OE1        4.4510   14.0830   18.9250 O.2   110  GLN110     -0.2717
     80  NE2        2.6030   12.9720   19.5820 N.am  110  GLN110     -0.0878
@<TRIPOS>BOND
     1    11     9    1
     2     1     2    1
     3     2     3    1
     4    10     9    1
     5     9     6    1
     6     5     3   am
     7     5     6    1
     8     3     4    2
     9     6     7    1
    10     7    12   am
    11     7     8    2
    12    12    13    1
    13    79    78    2
    14    80    78   am
    15    78    77    1
    16    13    14    1
    17    45    44    2
    18    54    51    1
    19    77    76    1
    20    14    15    2
    21    14    16   am
    22    51    52    1
    23    51    50    1
    24    41    38    1
    25    53    52    2
    26    76    73    1
    27    44    50   am
    28    44    43    1
    29    16    17    1
    30    42    43    1
    31    42    39   am
    32    38    39    1
    33    38    37    1
    34    35    34    1
    35    73    74    1
    36    73    72    1
    37    43    46    1
    38    48    47    2
    39    17    18    1
    40    39    40    2
    41    74    75    2
    42    34    36    1
    43    34    33    2
    44    47    46    1
    45    47    49   am
    46    72    68   am
    47    19    18    2
    48    60    59    1
    49    71    70    1
    50    33    32    1
    51    68    69    2
    52    68    67    1
    53    59    61    1
    54    59    56    1
    55    58    57    2
    56    70    67    1
    57    67    66    1
    58    66    64   am
    59    32    31    1
    60    57    56    1
    61    56    55    1
    62    62    63    1
    63    31    30    1
    64    63    64    1
    65    64    65    2
    66    23    22    2
    67    24    25    1
    68    24    21    1
    69    30    27    1
    70    22    21    1
    71    22    26   am
    72    21    20    1
    73    27    26    1
    74    27    28    1
    75    28    29    2
