@<TRIPOS>MOLECULE
tmp/3rclA00.pdb
 79 73 0 0 0
SMALL
GASTEIGER

@<TRIPOS>ATOM
      1  N         11.9980   15.4570   16.9000 N.3    62  GLN62      -0.1245
      2  CA        10.8410   15.0970   17.7230 C.3    62  GLN62       0.1566
      3  C         10.5640   13.5950   17.7040 C.2    62  GLN62       0.2260
      4  O         10.6410   12.9470   16.6640 O.2    62  GLN62      -0.2867
      5  CB         9.5980   15.8610   17.2670 C.3    62  GLN62       0.0367
      6  CG         8.3650   15.6520   18.1350 C.3    62  GLN62       0.0905
      7  CD         7.2370   16.6030   17.7830 C.2    62  GLN62       0.2608
      8  OE1        7.4740   17.7200   17.3310 O.2    62  GLN62      -0.2717
      9  NE2        6.0020   16.1690   18.0040 N.am   62  GLN62      -0.0878
     10  N          2.8870   11.5560   15.4350 N.3    71  GLY71      -0.1210
     11  CA         2.6960   12.8700   16.0390 C.3    71  GLY71       0.1956
     12  C          1.3220   13.1170   16.6400 C.2    71  GLY71       0.2613
     13  O          1.0950   14.1650   17.2370 O.2    71  GLY71      -0.2717
     14  N          0.4080   12.1600   16.4950 N.am   72  THR72      -0.1938
     15  CA        -0.9510   12.3140   17.0260 C.3    72  THR72       0.2028
     16  C         -1.1730   11.5950   18.3560 C.2    72  THR72       0.2642
     17  O         -2.2060   11.7900   18.9940 O.2    72  THR72      -0.2714
     18  CB        -2.0100   11.7950   16.0340 C.3    72  THR72       0.1808
     19  OG1       -1.8130   10.3930   15.8040 O.3    72  THR72      -0.2208
     20  CG2       -1.9480   12.5680   14.7080 C.3    72  THR72       0.0379
     21  N         -0.2170   10.7720   18.7750 N.am   73  GLY73      -0.1954
     22  CA        -0.4230    9.8840   19.9120 C.3    73  GLY73       0.1869
     23  C          0.5330   10.0680   21.0710 C.2    73  GLY73       0.2309
     24  O          1.0440   11.1610   21.3150 O.2    73  GLY73      -0.2863
     25  N         -2.9360   12.8300   29.1390 N.3    81  ARG81      -0.1245
     26  CA        -2.2700   14.1320   29.1360 C.3    81  ARG81       0.1563
     27  C         -2.0720   14.6500   30.5560 C.2    81  ARG81       0.2260
     28  O         -2.8010   14.2680   31.4710 O.2    81  ARG81      -0.2867
     29  CB        -3.0920   15.1600   28.3510 C.3    81  ARG81       0.0307
     30  CG        -3.4140   14.7780   26.9120 C.3    81  ARG81       0.0489
     31  CD        -2.1920   14.8450   26.0180 C.3    81  ARG81       0.2205
     32  NE        -2.5070   14.4390   24.6480 N.pl3  81  ARG81      -0.0865
     33  CZ        -2.2170   13.2590   24.1000 C.cat  81  ARG81       0.5346
     34  NH1       -1.5670   12.3200   24.7760 N.pl3  81  ARG81       0.1354
     35  NH2       -2.5680   13.0240   22.8400 N.pl3  81  ARG81       0.1354
     36  N          6.8120   18.2040   23.6090 N.3   100  ALA100     -0.1231
     37  CA         5.9180   18.5690   22.5150 C.3   100  ALA100      0.1694
     38  C          4.5200   18.6550   23.0980 C.2   100  ALA100      0.2592
     39  O          4.2450   18.0800   24.1550 O.2   100  ALA100     -0.2718
     40  CB         5.9730   17.5290   21.3990 C.3   100  ALA100      0.0304
     41  N          3.6450   19.3980   22.4330 N.am  101  ASN101     -0.1960
     42  CA         2.2640   19.4970   22.8710 C.3   101  ASN101      0.1819
     43  C          1.3280   19.9180   21.7440 C.2   101  ASN101      0.2621
     44  O          1.7690   20.2010   20.6200 O.2   101  ASN101     -0.2715
     45  CB         2.1380   20.4190   24.1020 C.3   101  ASN101      0.1195
     46  CG         2.4490   21.8840   23.8020 C.2   101  ASN101      0.2630
     47  OD1        1.9340   22.4670   22.8450 O.2   101  ASN101     -0.2716
     48  ND2        3.2650   22.4950   24.6550 N.am  101  ASN101     -0.0877
     49  N          0.0360   19.9180   22.0540 N.am  102  ALA102     -0.1977
     50  CA        -1.0050   20.3510   21.1260 C.3   102  ALA102      0.1597
     51  C         -1.7540   21.5390   21.7300 C.2   102  ALA102      0.2287
     52  O         -2.9690   21.6780   21.5590 O.2   102  ALA102     -0.2864
     53  CB        -1.9560   19.2020   20.8350 C.3   102  ALA102      0.0319
     54  N         -1.2420   19.8690   27.4510 N.3   106  THR106     -0.1218
     55  CA        -1.4670   18.6590   26.6550 C.3   106  THR106      0.1862
     56  C         -0.1920   17.8260   26.5130 C.2   106  THR106      0.2287
     57  O          0.0490   17.2060   25.4760 O.2   106  THR106     -0.2866
     58  CB        -2.0440   18.9870   25.2600 C.3   106  THR106      0.1770
     59  OG1       -1.1560   19.8580   24.5500 O.3   106  THR106     -0.2211
     60  CG2       -3.4150   19.6470   25.3980 C.3   106  THR106      0.0375
     61  N          2.0900   14.6750   26.9140 N.3   108  GLY108     -0.1210
     62  CA         1.8340   13.2390   26.9370 C.3   108  GLY108      0.1956
     63  C          3.1540   12.5210   27.0680 C.2   108  GLY108      0.2613
     64  O          3.7080   12.4260   28.1600 O.2   108  GLY108     -0.2717
     65  N          3.6570   12.0250   25.9420 N.am  109  SER109     -0.1938
     66  CA         4.9870   11.4200   25.8800 C.3   109  SER109      0.2055
     67  C          5.8880   12.0250   24.7990 C.2   109  SER109      0.2642
     68  O          7.1060   11.8340   24.8340 O.2   109  SER109     -0.2714
     69  CB         4.8720    9.9140   25.6630 C.3   109  SER109      0.2130
     70  OG         4.1010    9.6210   24.5150 O.3   109  SER109     -0.2179
     71  N          5.3120   12.7500   23.8400 N.am  110  GLN110     -0.1976
     72  CA         6.1140   13.3260   22.7710 C.3   110  GLN110      0.1601
     73  C          7.0350   14.4130   23.3060 C.2   110  GLN110      0.2287
     74  O          6.6490   15.2330   24.1570 O.2   110  GLN110     -0.2864
     75  CB         5.2470   13.8660   21.6410 C.3   110  GLN110      0.0394
     76  CG         4.5150   12.7860   20.8770 C.3   110  GLN110      0.0908
     77  CD         3.8110   13.3400   19.6700 C.2   110  GLN110      0.2608
     78  OE1        4.4330   13.9570   18.8110 O.2   110  GLN110     -0.2717
     79  NE2        2.5000   13.1430   19.6060 N.am  110  GLN110     -0.0878
@<TRIPOS>BOND
     1    20    18    1
     2    10    11    1
     3    19    18    1
     4    18    15    1
     5    11    12    1
     6    14    12   am
     7    14    15    1
     8    12    13    2
     9     4     3    2
    10     1     2    1
    11    15    16    1
    12     5     2    1
    13     5     6    1
    14     8     7    2
    15     3     2    1
    16     7     9   am
    17     7     6    1
    18    16    21   am
    19    16    17    2
    20    21    22    1
    21    78    77    2
    22    79    77   am
    23    77    76    1
    24    22    23    1
    25    44    43    2
    26    53    50    1
    27    76    75    1
    28    23    24    2
    29    50    51    1
    30    50    49    1
    31    40    37    1
    32    52    51    2
    33    75    72    1
    34    43    49   am
    35    43    42    1
    36    41    42    1
    37    41    38   am
    38    37    38    1
    39    37    36    1
    40    72    73    1
    41    72    71    1
    42    35    33    1
    43    47    46    2
    44    42    45    1
    45    38    39    2
    46    73    74    2
    47    46    45    1
    48    46    48   am
    49    71    67   am
    50    33    32    2
    51    33    34    1
    52    70    69    1
    53    59    58    1
    54    32    31    1
    55    67    68    2
    56    67    66    1
    57    58    60    1
    58    58    55    1
    59    57    56    2
    60    69    66    1
    61    66    65    1
    62    65    63   am
    63    31    30    1
    64    56    55    1
    65    55    54    1
    66    30    29    1
    67    61    62    1
    68    62    63    1
    69    63    64    2
    70    29    26    1
    71    26    25    1
    72    26    27    1
    73    27    28    2
