@<TRIPOS>MOLECULE
tmp/3rcmA00.pdb
 138 134 0 0 0
SMALL
GASTEIGER

@<TRIPOS>ATOM
      1  N         22.8610   44.5220   57.6460 N.3     8  ASN8       -0.1240
      2  CA        22.7590   45.9730   57.4270 C.3     8  ASN8        0.1653
      3  C         23.8180   46.4290   56.4430 C.2     8  ASN8        0.2266
      4  O         24.6980   47.2530   56.7600 O.2     8  ASN8       -0.2867
      5  CB        22.8820   46.7530   58.7370 C.3     8  ASN8        0.1155
      6  CG        21.9100   46.2500   59.7900 C.2     8  ASN8        0.2627
      7  OD1       22.2920   45.5320   60.7290 O.2     8  ASN8       -0.2716
      8  ND2       20.6490   46.5850   59.6240 N.am    8  ASN8       -0.0877
      9  N         12.6380   51.6810   61.6640 N.3    66  HIS66      -0.1241
     10  CA        13.1140   51.1220   62.9290 C.3    66  HIS66       0.1621
     11  C         12.5880   52.0060   64.0870 C.2    66  HIS66       0.2264
     12  O         12.3350   53.2120   63.9160 O.2    66  HIS66      -0.2867
     13  CB        14.6680   51.1340   62.8370 C.3    66  HIS66       0.0745
     14  CG        15.3910   50.4620   63.9650 C.ar   66  HIS66       0.0817
     15  ND1       15.5180   51.0310   65.2120 N.ar   66  HIS66      -0.2268
     16  CD2       16.1560   49.3420   63.9840 C.ar   66  HIS66       0.1154
     17  CE1       16.2730   50.2560   65.9740 C.ar   66  HIS66       0.1986
     18  NE2       16.6720   49.2210   65.2510 N.ar   66  HIS66      -0.2212
     19  N         14.1390   53.2950   66.5090 N.3    68  HIS68      -0.1241
     20  CA        15.0480   54.4650   66.7530 C.3    68  HIS68       0.1621
     21  C         14.6250   55.6300   65.8820 C.2    68  HIS68       0.2264
     22  O         14.7850   56.7990   66.2530 O.2    68  HIS68      -0.2867
     23  CB        16.5120   54.1830   66.4070 C.3    68  HIS68       0.0745
     24  CG        17.1650   53.2040   67.3050 C.ar   68  HIS68       0.0817
     25  ND1       16.5560   52.7280   68.4450 N.ar   68  HIS68      -0.2268
     26  CD2       18.3950   52.6340   67.2640 C.ar   68  HIS68       0.1154
     27  CE1       17.3710   51.8850   69.0590 C.ar   68  HIS68       0.1986
     28  NE2       18.4990   51.8250   68.3730 N.ar   68  HIS68      -0.2212
     29  N         12.9780   46.6000   59.3050 N.3    95  GLU95      -0.1245
     30  CA        12.8860   46.2630   60.7150 C.3    95  GLU95       0.1567
     31  C         12.0370   47.2880   61.4320 C.2    95  GLU95       0.2260
     32  O         12.2760   48.5090   61.2980 O.2    95  GLU95      -0.2867
     33  CB        14.3070   46.3320   61.2980 C.3    95  GLU95       0.0388
     34  CG        14.4070   45.9970   62.7790 C.3    95  GLU95       0.1160
     35  CD        15.8580   45.9770   63.2380 C.2    95  GLU95       0.3649
     36  OE1       16.1120   46.2110   64.4290 O.co2  95  GLU95      -0.2457
     37  OE2       16.7590   45.7500   62.4110 O.co2  95  GLU95      -0.2457
     38  N         17.0390   52.3330   74.4550 N.3   102  ARG102     -0.1245
     39  CA        17.5910   53.5400   73.8700 C.3   102  ARG102      0.1563
     40  C         16.6410   54.7480   73.9500 C.2   102  ARG102      0.2260
     41  O         17.0750   55.8710   74.2270 O.2   102  ARG102     -0.2867
     42  CB        17.9870   53.2730   72.4120 C.3   102  ARG102      0.0307
     43  CG        19.3910   52.6840   72.2750 C.3   102  ARG102      0.0489
     44  CD        19.4520   51.3020   72.8630 C.3   102  ARG102      0.2205
     45  NE        20.6850   50.6190   72.5010 N.pl3 102  ARG102     -0.0865
     46  CZ        20.7870   49.7180   71.5310 C.cat 102  ARG102      0.5346
     47  NH1       19.7190   49.3650   70.8010 N.pl3 102  ARG102      0.1354
     48  NH2       21.9510   49.1290   71.3270 N.pl3 102  ARG102      0.1354
     49  N         15.3930   56.3570   71.5000 N.3   104  PHE104     -0.1241
     50  CA        15.8600   57.3670   70.5300 C.3   104  PHE104      0.1605
     51  C         14.6920   58.0820   69.8110 C.2   104  PHE104      0.2264
     52  O         14.9040   59.0780   69.1230 O.2   104  PHE104     -0.2867
     53  CB        16.8220   56.7580   69.5000 C.3   104  PHE104      0.0534
     54  CG        18.2380   56.4960   70.0190 C.ar  104  PHE104     -0.0203
     55  CD1       18.8420   57.3570   70.9460 C.ar  104  PHE104     -0.0042
     56  CD2       18.9760   55.4000   69.5410 C.ar  104  PHE104     -0.0042
     57  CE1       20.1460   57.1000   71.4450 C.ar  104  PHE104     -0.0003
     58  CE2       20.3140   55.1540   69.9920 C.ar  104  PHE104     -0.0003
     59  CZ        20.8940   56.0180   70.9340 C.ar  104  PHE104     -0.0000
     60  N         11.9860   44.1680   65.9120 N.3   131  HIS131     -0.1241
     61  CA        13.0920   44.4200   66.8710 C.3   131  HIS131      0.1621
     62  C         12.4030   44.7200   68.1900 C.2   131  HIS131      0.2264
     63  O         11.3830   45.3920   68.2000 O.2   131  HIS131     -0.2867
     64  CB        13.8800   45.6600   66.4020 C.3   131  HIS131      0.0745
     65  CG        14.8600   46.1970   67.4030 C.ar  131  HIS131      0.0817
     66  ND1       16.2260   46.0110   67.2840 N.ar  131  HIS131     -0.2268
     67  CD2       14.6860   46.9920   68.4870 C.ar  131  HIS131      0.1154
     68  CE1       16.8420   46.6370   68.2680 C.ar  131  HIS131      0.1986
     69  NE2       15.9300   47.2240   69.0240 N.ar  131  HIS131     -0.2212
     70  N         13.5730   45.6550   72.4010 N.3   133  ARG133     -0.1245
     71  CA        14.5140   45.7420   73.5280 C.3   133  ARG133      0.1563
     72  C         13.8740   46.4960   74.6830 C.2   133  ARG133      0.2260
     73  O         13.3810   47.6160   74.5130 O.2   133  ARG133     -0.2867
     74  CB        15.8540   46.3760   73.0930 C.3   133  ARG133      0.0307
     75  CG        16.9640   46.2690   74.1580 C.3   133  ARG133      0.0489
     76  CD        18.2120   47.0660   73.7760 C.3   133  ARG133      0.2205
     77  NE        18.9390   46.4630   72.6600 N.pl3 133  ARG133     -0.0865
     78  CZ        20.2440   46.2050   72.6590 C.cat 133  ARG133      0.5346
     79  NH1       20.7940   45.6720   71.5810 N.pl3 133  ARG133      0.1354
     80  NH2       21.0020   46.4900   73.7150 N.pl3 133  ARG133      0.1354
     81  N         13.5600   39.3380   65.6950 N.3   156  HIS156     -0.1226
     82  CA        14.9510   39.2720   65.2620 C.3   156  HIS156      0.1752
     83  C         15.9110   39.5710   66.4210 C.2   156  HIS156      0.2596
     84  O         15.5510   40.2380   67.4230 O.2   156  HIS156     -0.2718
     85  CB        15.1900   40.1980   64.0260 C.3   156  HIS156      0.0759
     86  CG        16.0850   41.3670   64.3030 C.ar  156  HIS156      0.0818
     87  ND1       17.3950   41.4170   63.8750 N.ar  156  HIS156     -0.2268
     88  CD2       15.8610   42.5300   64.9560 C.ar  156  HIS156      0.1154
     89  CE1       17.9630   42.5220   64.3210 C.ar  156  HIS156      0.1986
     90  NE2       17.0490   43.2290   64.9610 N.ar  156  HIS156     -0.2212
     91  N         17.1030   38.9720   66.3480 N.am  157  CYS157     -0.1970
     92  CA        18.1240   39.1700   67.3810 C.3   157  CYS157      0.1712
     93  C         17.5070   39.0760   68.7810 C.2   157  CYS157      0.2296
     94  O         17.5690   40.0100   69.5850 O.2   157  CYS157     -0.2864
     95  CB        18.8190   40.5250   67.1820 C.3   157  CYS157      0.0983
     96  SG        20.2560   40.7850   68.2880 S.3   157  CYS157     -0.0798
     97  N         25.1290   37.4310   69.2620 N.3   180  TRP180     -0.1241
     98  CA        24.9060   37.6380   70.7050 C.3   180  TRP180      0.1605
     99  C         25.0540   36.2920   71.4590 C.2   180  TRP180      0.2264
    100  O         25.5630   36.2310   72.5800 O.2   180  TRP180     -0.2867
    101  CB        23.5110   38.2160   70.9140 C.3   180  TRP180      0.0550
    102  CG        23.2730   38.8340   72.2370 C.ar  180  TRP180      0.0003
    103  CD1       23.1910   38.1910   73.4480 C.ar  180  TRP180      0.0946
    104  CD2       22.9650   40.2060   72.4880 C.ar  180  TRP180      0.0152
    105  NE1       22.9020   39.0960   74.4410 N.ar  180  TRP180     -0.2442
    106  CE2       22.7850   40.3440   73.8870 C.ar  180  TRP180      0.0810
    107  CE3       22.8780   41.3490   71.6740 C.ar  180  TRP180      0.0012
    108  CZ2       22.4780   41.5720   74.4900 C.ar  180  TRP180      0.0191
    109  CZ3       22.5720   42.5790   72.2720 C.ar  180  TRP180      0.0001
    110  CH2       22.3660   42.6730   73.6740 C.ar  180  TRP180      0.0015
    111  N         23.3420   40.3700   61.5810 N.3   206  ASP206     -0.1239
    112  CA        23.1790   41.7840   61.9620 C.3   206  ASP206      0.1674
    113  C         24.4250   42.5730   61.6290 C.2   206  ASP206      0.2266
    114  O         24.6470   43.6470   62.2040 O.2   206  ASP206     -0.2867
    115  CB        22.9440   41.9360   63.4560 C.3   206  ASP206      0.1410
    116  CG        21.6600   42.6910   63.7750 C.2   206  ASP206      0.3668
    117  OD1       20.8280   42.0370   64.4810 O.co2 206  ASP206     -0.2456
    118  OD2       21.4250   43.8310   63.2120 O.co2 206  ASP206     -0.2456
    119  N         27.1510   44.7990   63.1030 N.3   209  TYR209     -0.1227
    120  CA        27.0530   44.6500   64.5650 C.3   209  TYR209      0.1736
    121  C         27.3110   43.2120   65.0100 C.2   209  TYR209      0.2595
    122  O         27.2670   42.2820   64.1930 O.2   209  TYR209     -0.2718
    123  CB        25.6590   45.0700   65.0570 C.3   209  TYR209      0.0548
    124  CG        25.2500   46.4570   64.5620 C.ar  209  TYR209     -0.0200
    125  CD1       25.8930   47.6180   65.0410 C.ar  209  TYR209     -0.0009
    126  CD2       24.2490   46.6020   63.5970 C.ar  209  TYR209     -0.0009
    127  CE1       25.5350   48.8930   64.5390 C.ar  209  TYR209      0.0417
    128  CE2       23.8340   47.8400   63.1570 C.ar  209  TYR209      0.0417
    129  CZ        24.4750   48.9840   63.6220 C.ar  209  TYR209      0.1957
    130  OH        24.0610   50.2090   63.1380 O.3   209  TYR209     -0.2866
    131  N         27.6050   43.0400   66.3050 N.am  210  LEU210     -0.1980
    132  CA        27.5870   41.7050   66.9240 C.3   210  LEU210      0.1596
    133  C         28.5380   40.7340   66.2400 C.2   210  LEU210      0.2287
    134  O         28.1940   39.5740   65.9890 O.2   210  LEU210     -0.2864
    135  CB        26.1590   41.1170   66.9160 C.3   210  LEU210      0.0297
    136  CG        25.1250   41.9800   67.6760 C.3   210  LEU210      0.0022
    137  CD1       23.7130   41.4120   67.5750 C.3   210  LEU210      0.0001
    138  CD2       25.5120   42.0900   69.1580 C.3   210  LEU210      0.0001
@<TRIPOS>BOND
     1     3     4    2
     2     3     2    1
     3     2     1    1
     4     2     5    1
     5     5     6    1
     6    29    30    1
     7     8     6   am
     8     6     7    2
     9    30    33    1
    10    30    31    1
    11    33    34    1
    12    32    31    2
    13   111   112    1
    14   113   112    1
    15   113   114    2
    16     9    10    1
    17   112   115    1
    18    37    35   ar
    19    34    35    1
    20    13    10    1
    21    13    14    1
    22    10    11    1
    23   119   120    1
    24   130   129    1
    25   128   126   ar
    26   128   129   ar
    27   118   116   ar
    28    35    36   ar
    29   115   116    1
    30   126   124   ar
    31   129   127   ar
    32   116   117   ar
    33    87    86   ar
    34    87    89   ar
    35    12    11    2
    36    14    16   ar
    37    14    15   ar
    38    16    18   ar
    39    85    86    1
    40    85    82    1
    41   122   121    2
    42    86    88   ar
    43    89    90   ar
    44   127   125   ar
    45   124   125   ar
    46   124   123    1
    47   120   121    1
    48   120   123    1
    49    88    90   ar
    50   121   131   am
    51    15    17   ar
    52    18    17   ar
    53    82    81    1
    54    82    83    1
    55    21    22    2
    56    21    20    1
    57    60    61    1
    58   134   133    2
    59   133   132    1
    60   131   132    1
    61    91    83   am
    62    91    92    1
    63    64    61    1
    64    64    65    1
    65    23    20    1
    66    23    24    1
    67    83    84    2
    68    19    20    1
    69    61    62    1
    70   135   132    1
    71   135   136    1
    72    95    92    1
    73    95    96    1
    74    26    24   ar
    75    26    28   ar
    76    66    65   ar
    77    66    68   ar
    78    24    25   ar
    79    92    93    1
    80    65    67   ar
    81   137   136    1
    82   136   138    1
    83    62    63    2
    84    68    69   ar
    85    28    27   ar
    86    25    27   ar
    87    67    69   ar
    88    93    94    2
    89    52    51    2
    90    97    98    1
    91    53    54    1
    92    53    50    1
    93    56    58   ar
    94    56    54   ar
    95    51    50    1
    96    58    59   ar
    97    54    55   ar
    98    50    49    1
    99    98   101    1
   100    98    99    1
   101    47    46    1
   102   101   102    1
   103    59    57   ar
   104    55    57   ar
   105    48    46    1
   106    99   100    2
   107    46    45    2
   108    79    78    1
   109   107   109   ar
   110   107   104   ar
   111   102   104   ar
   112   102   103   ar
   113   109   110   ar
   114    43    42    1
   115    43    44    1
   116    70    71    1
   117    42    39    1
   118   104   106   ar
   119    45    44    1
   120    78    77    2
   121    78    80    1
   122    77    76    1
   123    74    71    1
   124    74    75    1
   125   103   105   ar
   126    71    72    1
   127   110   108   ar
   128    76    75    1
   129    39    40    1
   130    39    38    1
   131   106   105   ar
   132   106   108   ar
   133    40    41    2
   134    73    72    2
