@<TRIPOS>MOLECULE
tmp/3rcwC00.pdb
 99 95 0 0 0
SMALL
GASTEIGER

@<TRIPOS>ATOM
      1  N          6.0900  -23.9270  131.2140 N.3    22  ILE22      -0.1231
      2  CA         4.6270  -24.0500  131.0700 C.3    22  ILE22       0.1692
      3  C          4.0820  -22.9730  130.1570 C.2    22  ILE22       0.2592
      4  O          3.0590  -23.1920  129.5170 O.2    22  ILE22      -0.2718
      5  CB         3.9260  -23.9640  132.4650 C.3    22  ILE22       0.0266
      6  CG1        4.1420  -25.2650  133.2270 C.3    22  ILE22       0.0019
      7  CG2        2.3740  -23.6030  132.3920 C.3    22  ILE22       0.0020
      8  CD1        4.0110  -25.1130  134.7290 C.3    22  ILE22       0.0001
      9  N          4.7220  -21.8030  130.1050 N.am   23  PHE23      -0.1976
     10  CA         4.1390  -20.7040  129.3180 C.3    23  PHE23       0.1639
     11  C          5.0000  -20.3440  128.1240 C.2    23  PHE23       0.2290
     12  O          4.7290  -19.3410  127.4570 O.2    23  PHE23      -0.2864
     13  CB         3.9000  -19.4680  130.1950 C.3    23  PHE23       0.0560
     14  CG         3.1040  -19.7500  131.4370 C.ar   23  PHE23      -0.0200
     15  CD1        1.7220  -19.8210  131.3980 C.ar   23  PHE23      -0.0042
     16  CD2        3.7520  -20.0210  132.6260 C.ar   23  PHE23      -0.0042
     17  CE1        0.9870  -20.0800  132.5420 C.ar   23  PHE23      -0.0003
     18  CE2        3.0340  -20.3070  133.7580 C.ar   23  PHE23      -0.0003
     19  CZ         1.6480  -20.3140  133.7260 C.ar   23  PHE23      -0.0000
     20  N         -0.3620  -23.2560  124.1210 N.3    27  VAL27      -0.1245
     21  CA        -0.9640  -24.3820  124.7850 C.3    27  VAL27       0.1561
     22  C         -1.3600  -25.3280  123.6550 C.2    27  VAL27       0.2260
     23  O         -1.9740  -24.9030  122.6750 O.2    27  VAL27      -0.2867
     24  CB        -2.2180  -23.9330  125.6540 C.3    27  VAL27       0.0252
     25  CG1       -3.1210  -25.1210  126.0420 C.3    27  VAL27       0.0019
     26  CG2       -1.7860  -23.1360  126.9030 C.3    27  VAL27       0.0019
     27  N         -2.5940  -31.8260  124.2720 N.3    31  GLU31      -0.1231
     28  CA        -2.6580  -31.9530  125.7370 C.3    31  GLU31       0.1699
     29  C         -3.9930  -31.4540  126.3090 C.2    31  GLU31       0.2592
     30  O         -4.4340  -31.9450  127.3290 O.2    31  GLU31      -0.2718
     31  CB        -1.4710  -31.2140  126.4080 C.3    31  GLU31       0.0402
     32  CG        -0.0870  -31.8810  126.1560 C.3    31  GLU31       0.1161
     33  CD         1.1360  -31.0150  126.5320 C.2    31  GLU31       0.3649
     34  OE1        2.2090  -31.2390  125.9450 O.co2  31  GLU31      -0.2457
     35  OE2        1.0420  -30.1210  127.3970 O.co2  31  GLU31      -0.2457
     36  N         -4.6310  -30.4910  125.6510 N.am   32  VAL32      -0.1980
     37  CA        -5.7890  -29.8030  126.2250 C.3    32  VAL32       0.1595
     38  C         -6.8210  -29.4990  125.1360 C.2    32  VAL32       0.2287
     39  O         -6.9720  -28.3490  124.7270 O.2    32  VAL32      -0.2864
     40  CB        -5.3740  -28.4670  126.9350 C.3    32  VAL32       0.0276
     41  CG1       -6.5230  -27.8980  127.6620 C.3    32  VAL32       0.0022
     42  CG2       -4.2000  -28.6550  127.9200 C.3    32  VAL32       0.0022
     43  N         -9.2070  -26.3240  124.7020 N.3    35  TYR35      -0.1241
     44  CA        -8.6110  -25.0520  125.1210 C.3    35  TYR35       0.1605
     45  C         -9.1290  -23.8000  124.4010 C.2    35  TYR35       0.2264
     46  O         -9.4500  -22.8230  125.0570 O.2    35  TYR35      -0.2867
     47  CB        -7.0930  -25.0940  125.0270 C.3    35  TYR35       0.0534
     48  CG        -6.4620  -23.8800  125.6510 C.ar   35  TYR35      -0.0201
     49  CD1       -6.3940  -23.7540  127.0320 C.ar   35  TYR35      -0.0009
     50  CD2       -5.9460  -22.8500  124.8780 C.ar   35  TYR35      -0.0009
     51  CE1       -5.8320  -22.6290  127.6360 C.ar   35  TYR35       0.0417
     52  CE2       -5.3890  -21.7030  125.4830 C.ar   35  TYR35       0.0417
     53  CZ        -5.3360  -21.6140  126.8670 C.ar   35  TYR35       0.1957
     54  OH        -4.7960  -20.5210  127.4990 O.3    35  TYR35      -0.2866
     55  N         -1.1360  -13.9810  129.4180 N.3    70  ILE70      -0.1245
     56  CA        -0.6560  -15.3060  129.6740 C.3    70  ILE70       0.1561
     57  C         -1.2440  -15.7340  130.9900 C.2    70  ILE70       0.2260
     58  O         -1.7630  -16.8190  131.0930 O.2    70  ILE70      -0.2867
     59  CB         0.8800  -15.3980  129.7760 C.3    70  ILE70       0.0252
     60  CG1        1.4650  -15.1900  128.3710 C.3    70  ILE70       0.0019
     61  CG2        1.2480  -16.7720  130.3620 C.3    70  ILE70       0.0019
     62  CD1        2.9110  -15.0580  128.2900 C.3    70  ILE70       0.0001
     63  N         -4.5040  -18.5170  131.6430 N.3    74  CYS74      -0.1235
     64  CA        -4.2740  -19.6920  132.4660 C.3    74  CYS74       0.1677
     65  C         -5.1880  -19.7760  133.6920 C.2    74  CYS74       0.2270
     66  O         -5.5310  -20.8840  134.1370 O.2    74  CYS74      -0.2867
     67  CB        -2.8260  -19.7650  132.8640 C.3    74  CYS74       0.0956
     68  SG        -2.5450  -21.2090  133.7810 S.3    74  CYS74      -0.0801
     69  N         -8.9160  -20.5430  132.3860 N.3    77  TYR77      -0.1227
     70  CA        -9.1280  -21.8830  131.8650 C.3    77  TYR77       0.1736
     71  C         -9.0820  -22.9720  132.9320 C.2    77  TYR77       0.2595
     72  O         -9.9910  -23.8100  133.0020 O.2    77  TYR77      -0.2718
     73  CB        -8.1250  -22.2320  130.7470 C.3    77  TYR77       0.0548
     74  CG        -8.2870  -23.6740  130.3460 C.ar   77  TYR77      -0.0200
     75  CD1       -7.4490  -24.6580  130.8530 C.ar   77  TYR77      -0.0009
     76  CD2       -9.3560  -24.0740  129.5690 C.ar   77  TYR77      -0.0009
     77  CE1       -7.6510  -26.0040  130.5320 C.ar   77  TYR77       0.0417
     78  CE2       -9.5540  -25.3970  129.2480 C.ar   77  TYR77       0.0417
     79  CZ        -8.7030  -26.3560  129.7280 C.ar   77  TYR77       0.1957
     80  OH        -8.9120  -27.6660  129.3690 O.3    77  TYR77      -0.2866
     81  N         -8.0350  -22.9760  133.7450 N.am   78  ASN78      -0.1974
     82  CA        -7.8190  -24.0570  134.7320 C.3    78  ASN78       0.1688
     83  C         -8.5660  -23.8630  136.0350 C.2    78  ASN78       0.2292
     84  O         -8.7470  -22.7370  136.4890 O.2    78  ASN78      -0.2864
     85  CB        -6.3290  -24.1670  135.0680 C.3    78  ASN78       0.1181
     86  CG        -5.5020  -24.5380  133.8340 C.2    78  ASN78       0.2629
     87  OD1       -5.5390  -25.6820  133.3990 O.2    78  ASN78      -0.2716
     88  ND2       -4.8190  -23.5600  133.2350 N.am   78  ASN78      -0.0877
     89  N         -1.2950  -25.6740  137.2570 N.3    84  PHE84      -0.1241
     90  CA        -1.1520  -24.5810  136.3140 C.3    84  PHE84       0.1605
     91  C         -1.6280  -23.2710  136.9080 C.2    84  PHE84       0.2264
     92  O         -0.8920  -22.2810  136.8850 O.2    84  PHE84      -0.2867
     93  CB        -1.8480  -24.8800  134.9790 C.3    84  PHE84       0.0534
     94  CG        -1.1880  -25.9940  134.1790 C.ar   84  PHE84      -0.0203
     95  CD1        0.1980  -26.1340  134.1440 C.ar   84  PHE84      -0.0042
     96  CD2       -1.9670  -26.9080  133.4590 C.ar   84  PHE84      -0.0042
     97  CE1        0.8010  -27.1580  133.4050 C.ar   84  PHE84      -0.0003
     98  CE2       -1.3700  -27.9380  132.7260 C.ar   84  PHE84      -0.0003
     99  CZ         0.0170  -28.0590  132.7000 C.ar   84  PHE84      -0.0000
@<TRIPOS>BOND
     1    23    22    2
     2    22    21    1
     3    20    21    1
     4    27    28    1
     5    45    46    2
     6    45    44    1
     7    43    44    1
     8    39    38    2
     9    21    24    1
    10    50    52   ar
    11    50    48   ar
    12    47    44    1
    13    47    48    1
    14    38    37    1
    15    52    53   ar
    16    48    49   ar
    17    36    37    1
    18    36    29   am
    19    24    25    1
    20    24    26    1
    21    28    29    1
    22    28    31    1
    23    34    33   ar
    24    32    31    1
    25    32    33    1
    26    37    40    1
    27    29    30    2
    28    33    35   ar
    29    53    54    1
    30    53    51   ar
    31    40    41    1
    32    40    42    1
    33    49    51   ar
    34    12    11    2
    35    11    10    1
    36    62    60    1
    37    60    59    1
    38    78    76   ar
    39    78    79   ar
    40    10     9    1
    41    10    13    1
    42    80    79    1
    43    55    56    1
    44     4     3    2
    45    76    74   ar
    46    56    59    1
    47    56    57    1
    48    79    77   ar
    49    59    61    1
    50     9     3   am
    51     3     2    1
    52    13    14    1
    53    74    73    1
    54    74    75   ar
    55    77    75   ar
    56    73    70    1
    57    57    58    2
    58     2     1    1
    59     2     5    1
    60    15    14   ar
    61    15    17   ar
    62    14    16   ar
    63    63    64    1
    64    70    69    1
    65    70    71    1
    66     7     5    1
    67     5     6    1
    68    64    67    1
    69    64    65    1
    70    17    19   ar
    71    16    18   ar
    72    99    98   ar
    73    99    97   ar
    74    98    96   ar
    75    67    68    1
    76    71    72    2
    77    71    81   am
    78     6     8    1
    79    88    86   am
    80    87    86    2
    81    97    95   ar
    82    96    94   ar
    83    65    66    2
    84    19    18   ar
    85    81    82    1
    86    86    85    1
    87    95    94   ar
    88    94    93    1
    89    82    85    1
    90    82    83    1
    91    93    90    1
    92    83    84    2
    93    90    91    1
    94    90    89    1
    95    92    91    2
