@<TRIPOS>MOLECULE
tmp/3rd9A00.pdb
 107 102 0 0 0
SMALL
GASTEIGER

@<TRIPOS>ATOM
      1  N          9.8590   10.7830   14.4860 N.3    53  HIS53      -0.1226
      2  CA         8.9590   10.8600   13.3280 C.3    53  HIS53       0.1752
      3  C          8.9570   12.2140   12.6260 C.2    53  HIS53       0.2595
      4  O          8.4600   12.3220   11.5120 O.2    53  HIS53      -0.2718
      5  CB         7.5240   10.5180   13.7440 C.3    53  HIS53       0.0759
      6  CG         6.8860   11.5690   14.5910 C.ar   53  HIS53       0.0818
      7  ND1        7.0610   11.6230   15.9560 N.ar   53  HIS53      -0.2268
      8  CD2        6.1100   12.6290   14.2660 C.ar   53  HIS53       0.1154
      9  CE1        6.4100   12.6660   16.4370 C.ar   53  HIS53       0.1986
     10  NE2        5.8310   13.2970   15.4320 N.ar   53  HIS53      -0.2212
     11  N          9.4700   13.2430   13.2950 N.am   54  ARG54      -0.1980
     12  CA         9.4590   14.5980   12.7550 C.3    54  ARG54       0.1597
     13  C         10.7880   15.2530   13.0950 C.2    54  ARG54       0.2287
     14  O         11.0970   15.4770   14.2670 O.2    54  ARG54      -0.2864
     15  CB         8.2830   15.3900   13.3360 C.3    54  ARG54       0.0334
     16  CG         8.2940   16.8850   13.0310 C.3    54  ARG54       0.0492
     17  CD         7.0360   17.5600   13.5680 C.3    54  ARG54       0.2205
     18  NE         7.0050   18.9760   13.1810 N.pl3  54  ARG54      -0.0865
     19  CZ         6.9650   20.0210   14.0060 C.cat  54  ARG54       0.5346
     20  NH1        6.9470   19.8780   15.3250 N.pl3  54  ARG54       0.1354
     21  NH2        6.9390   21.2430   13.4860 N.pl3  54  ARG54       0.1354
     22  N         16.4440   23.1300   13.5000 N.3    59  PHE59      -0.1241
     23  CA        15.3490   23.3760   14.4310 C.3    59  PHE59       0.1605
     24  C         15.3710   22.3300   15.5530 C.2    59  PHE59       0.2264
     25  O         15.8480   22.6120   16.6600 O.2    59  PHE59      -0.2867
     26  CB        13.9980   23.4520   13.6820 C.3    59  PHE59       0.0534
     27  CG        12.7840   23.6380   14.5700 C.ar   59  PHE59      -0.0203
     28  CD1       12.8780   24.1870   15.8440 C.ar   59  PHE59      -0.0042
     29  CD2       11.5230   23.2910   14.0950 C.ar   59  PHE59      -0.0042
     30  CE1       11.7510   24.3430   16.6410 C.ar   59  PHE59      -0.0003
     31  CE2       10.3910   23.4570   14.8880 C.ar   59  PHE59      -0.0003
     32  CZ        10.5090   23.9840   16.1600 C.ar   59  PHE59      -0.0000
     33  N         12.0910   15.4690   16.8420 N.3    62  GLN62      -0.1245
     34  CA        10.9300   15.1290   17.6670 C.3    62  GLN62       0.1566
     35  C         10.6480   13.6300   17.6640 C.2    62  GLN62       0.2260
     36  O         10.7160   12.9700   16.6260 O.2    62  GLN62      -0.2867
     37  CB         9.6930   15.8900   17.1850 C.3    62  GLN62       0.0367
     38  CG         8.4580   15.6650   18.0280 C.3    62  GLN62       0.0905
     39  CD         7.3060   16.5700   17.6470 C.2    62  GLN62       0.2608
     40  OE1        7.5150   17.6520   17.1130 O.2    62  GLN62      -0.2717
     41  NE2        6.0800   16.1380   17.9340 N.am   62  GLN62      -0.0878
     42  N          3.2850    8.9170   14.6530 N.3    70  ASN70      -0.1225
     43  CA         3.1050    9.9730   13.6430 C.3    70  ASN70       0.1785
     44  C          2.8580   11.3860   14.1610 C.2    70  ASN70       0.2597
     45  O          2.6490   12.2970   13.3650 O.2    70  ASN70      -0.2718
     46  CB         1.9920    9.5780   12.6610 C.3    70  ASN70       0.1169
     47  CG         0.6260    9.4620   13.3210 C.2    70  ASN70       0.2627
     48  OD1        0.4130    9.9410   14.4390 O.2    70  ASN70      -0.2716
     49  ND2       -0.3130    8.8390   12.6210 N.am   70  ASN70      -0.0877
     50  N          2.9010   11.5860   15.4720 N.am   71  GLY71      -0.1957
     51  CA         2.6760   12.9050   16.0460 C.3    71  GLY71       0.1869
     52  C          1.3060   13.1150   16.6530 C.2    71  GLY71       0.2309
     53  O          1.0750   14.1300   17.3060 O.2    71  GLY71      -0.2863
     54  N          6.9030   18.2630   23.5320 N.3   100  ALA100     -0.1231
     55  CA         6.0060   18.6070   22.4400 C.3   100  ALA100      0.1694
     56  C          4.5990   18.6750   23.0070 C.2   100  ALA100      0.2592
     57  O          4.3140   18.0690   24.0400 O.2   100  ALA100     -0.2718
     58  CB         6.0880   17.5670   21.3360 C.3   100  ALA100      0.0304
     59  N          3.7260   19.4350   22.3660 N.am  101  ASN101     -0.1960
     60  CA         2.3460   19.5200   22.8090 C.3   101  ASN101      0.1819
     61  C          1.4200   19.9740   21.6890 C.2   101  ASN101      0.2621
     62  O          1.8680   20.2420   20.5670 O.2   101  ASN101     -0.2715
     63  CB         2.2460   20.4160   24.0560 C.3   101  ASN101      0.1195
     64  CG         2.5740   21.8740   23.7770 C.2   101  ASN101      0.2630
     65  OD1        2.0840   22.4580   22.8080 O.2   101  ASN101     -0.2716
     66  ND2        3.3990   22.4710   24.6350 N.am  101  ASN101     -0.0877
     67  N          0.1270   20.0290   21.9930 N.am  102  ALA102     -0.1977
     68  CA        -0.8860   20.5050   21.0530 C.3   102  ALA102      0.1597
     69  C         -1.6420   21.6810   21.6620 C.2   102  ALA102      0.2287
     70  O         -2.8640   21.8160   21.4970 O.2   102  ALA102     -0.2864
     71  CB        -1.8360   19.3800   20.6920 C.3   102  ALA102      0.0319
     72  N          5.3690   12.9170   23.8470 N.3   110  GLN110     -0.1245
     73  CA         6.1850   13.4260   22.7580 C.3   110  GLN110      0.1566
     74  C          7.1180   14.5170   23.2480 C.2   110  GLN110      0.2260
     75  O          6.7580   15.3440   24.1010 O.2   110  GLN110     -0.2867
     76  CB         5.3240   13.9370   21.6120 C.3   110  GLN110      0.0367
     77  CG         4.5920   12.8310   20.8790 C.3   110  GLN110      0.0905
     78  CD         3.8740   13.3530   19.6730 C.2   110  GLN110      0.2608
     79  OE1        4.4850   13.9490   18.7890 O.2   110  GLN110     -0.2717
     80  NE2        2.5590   13.1620   19.6350 N.am  110  GLN110     -0.0878
     81  N         11.0540   16.8160   22.1310 N.3   112  PHE112     -0.1241
     82  CA        12.0190   17.1740   21.1120 C.3   112  PHE112      0.1605
     83  C         13.3390   17.5910   21.7170 C.2   112  PHE112      0.2264
     84  O         13.4110   18.0420   22.8670 O.2   112  PHE112     -0.2867
     85  CB        11.4800   18.2410   20.1520 C.3   112  PHE112      0.0534
     86  CG        11.0670   19.5340   20.8050 C.ar  112  PHE112     -0.0203
     87  CD1        9.8330   19.6550   21.4340 C.ar  112  PHE112     -0.0042
     88  CD2       11.8850   20.6520   20.7410 C.ar  112  PHE112     -0.0042
     89  CE1        9.4400   20.8570   22.0020 C.ar  112  PHE112     -0.0003
     90  CE2       11.4920   21.8570   21.3120 C.ar  112  PHE112     -0.0003
     91  CZ        10.2640   21.9510   21.9440 C.ar  112  PHE112     -0.0000
     92  N          6.3510   25.5880   25.6380 N.3   125  HIS125     -0.1241
     93  CA         6.7670   24.2000   25.8220 C.3   125  HIS125      0.1621
     94  C          7.5950   24.0850   27.0770 C.2   125  HIS125      0.2264
     95  O          8.4390   24.9450   27.3460 O.2   125  HIS125     -0.2867
     96  CB         7.5610   23.7170   24.6120 C.3   125  HIS125      0.0745
     97  CG         6.7460   23.6910   23.3650 C.ar  125  HIS125      0.0817
     98  ND1        6.1650   22.5390   22.8790 N.ar  125  HIS125     -0.2268
     99  CD2        6.3470   24.6930   22.5460 C.ar  125  HIS125      0.1154
    100  CE1        5.4660   22.8340   21.7940 C.ar  125  HIS125      0.1986
    101  NE2        5.5510   24.1340   21.5780 N.ar  125  HIS125     -0.2212
    102  N          9.9010   19.7470    5.7560 N.3   148  SER148     -0.1217
    103  CA         8.5640   19.2520    6.0900 C.3   148  SER148      0.1889
    104  C          8.4980   18.4620    7.3930 C.2   148  SER148      0.2288
    105  O          7.4080   18.1930    7.8950 O.2   148  SER148     -0.2866
    106  CB         8.0520   18.3390    4.9760 C.3   148  SER148      0.2089
    107  OG         8.7370   17.0940    4.9870 O.3   148  SER148     -0.2183
@<TRIPOS>BOND
     1   106   107    1
     2   106   103    1
     3   102   103    1
     4   103   104    1
     5   104   105    2
     6     4     3    2
     7    49    47   am
     8     3    11   am
     9     3     2    1
    10    46    47    1
    11    46    43    1
    12    12    13    1
    13    12    11    1
    14    12    15    1
    15    16    15    1
    16    16    17    1
    17    13    14    2
    18    18    17    1
    19    18    19    2
    20    47    48    2
    21     2     5    1
    22     2     1    1
    23    45    44    2
    24    21    19    1
    25    22    23    1
    26    43    44    1
    27    43    42    1
    28    26    23    1
    29    26    27    1
    30     5     6    1
    31    19    20    1
    32    29    27   ar
    33    29    31   ar
    34    44    50   am
    35     8     6   ar
    36     8    10   ar
    37    23    24    1
    38    27    28   ar
    39     6     7   ar
    40    31    32   ar
    41    10     9   ar
    42    50    51    1
    43    24    25    2
    44    28    30   ar
    45     7     9   ar
    46    51    52    1
    47    32    30   ar
    48    36    35    2
    49    52    53    2
    50    33    34    1
    51    40    39    2
    52    37    34    1
    53    37    38    1
    54    39    41   am
    55    39    38    1
    56    35    34    1
    57    79    78    2
    58    80    78   am
    59    78    77    1
    60    85    86    1
    61    85    82    1
    62    62    61    2
    63    71    68    1
    64    88    86   ar
    65    88    90   ar
    66    86    87   ar
    67    77    76    1
    68    68    69    1
    69    68    67    1
    70    82    83    1
    71    82    81    1
    72    90    91   ar
    73    58    55    1
    74    87    89   ar
    75    70    69    2
    76   101   100   ar
    77   101    99   ar
    78    76    73    1
    79    61    67   am
    80    61    60    1
    81    83    84    2
    82   100    98   ar
    83    91    89   ar
    84    59    60    1
    85    59    56   am
    86    55    56    1
    87    55    54    1
    88    99    97   ar
    89    73    74    1
    90    73    72    1
    91    65    64    2
    92    60    63    1
    93    98    97   ar
    94    56    57    2
    95    74    75    2
    96    97    96    1
    97    64    63    1
    98    64    66   am
    99    96    93    1
   100    92    93    1
   101    93    94    1
   102    94    95    2
