@<TRIPOS>MOLECULE
tmp/3rdaA02.pdb
 69 63 0 0 0
SMALL
GASTEIGER

@<TRIPOS>ATOM
      1  N         11.9900   15.3370   16.8120 N.3    62  GLN62      -0.1245
      2  CA        10.8170   15.0020   17.6250 C.3    62  GLN62       0.1566
      3  C         10.5380   13.5100   17.6280 C.2    62  GLN62       0.2260
      4  O         10.6290   12.8210   16.6060 O.2    62  GLN62      -0.2867
      5  CB         9.5860   15.7390   17.1110 C.3    62  GLN62       0.0367
      6  CG         8.3220   15.5100   17.9250 C.3    62  GLN62       0.0905
      7  CD         7.1510   16.3400   17.4340 C.2    62  GLN62       0.2608
      8  OE1        7.3320   17.3410   16.7510 O.2    62  GLN62      -0.2717
      9  NE2        5.9410   15.9310   17.7960 N.am   62  GLN62      -0.0878
     10  N          2.8500   11.5620   15.4250 N.3    71  GLY71      -0.1210
     11  CA         2.6830   12.8830   16.0020 C.3    71  GLY71       0.1956
     12  C          1.3220   13.1780   16.5980 C.2    71  GLY71       0.2613
     13  O          1.1280   14.2460   17.1810 O.2    71  GLY71      -0.2717
     14  N          0.3800   12.2430   16.4640 N.am   72  THR72      -0.1938
     15  CA        -0.9530   12.4230   17.0280 C.3    72  THR72       0.2028
     16  C         -1.1670   11.7230   18.3600 C.2    72  THR72       0.2642
     17  O         -2.1750   11.9970   19.0300 O.2    72  THR72      -0.2714
     18  CB        -2.0490   11.9080   16.0790 C.3    72  THR72       0.1808
     19  OG1       -1.8680   10.4990   15.8710 O.3    72  THR72      -0.2208
     20  CG2       -2.0440   12.6610   14.7480 C.3    72  THR72       0.0379
     21  N         -0.2780   10.7970   18.7250 N.am   73  GLY73      -0.1954
     22  CA        -0.5120    9.9070   19.8630 C.3    73  GLY73       0.1869
     23  C          0.3720   10.1590   21.0630 C.2    73  GLY73       0.2309
     24  O          0.7030   11.3020   21.3890 O.2    73  GLY73      -0.2863
     25  N         -3.0590   12.9210   28.9010 N.3    81  ARG81      -0.1245
     26  CA        -2.4410   14.2310   28.8380 C.3    81  ARG81       0.1563
     27  C         -2.2700   14.7860   30.2510 C.2    81  ARG81       0.2260
     28  O         -3.0030   14.4050   31.1610 O.2    81  ARG81      -0.2867
     29  CB        -3.3000   15.1900   27.9960 C.3    81  ARG81       0.0307
     30  CG        -3.4800   14.7710   26.5350 C.3    81  ARG81       0.0489
     31  CD        -2.2040   14.9310   25.7230 C.3    81  ARG81       0.2205
     32  NE        -2.2780   14.5960   24.2900 N.pl3  81  ARG81      -0.0865
     33  CZ        -1.8820   13.4440   23.7530 C.cat  81  ARG81       0.5346
     34  NH1       -1.4460   12.4570   24.5190 N.pl3  81  ARG81       0.1354
     35  NH2       -1.9070   13.2830   22.4300 N.pl3  81  ARG81       0.1354
     36  N          6.8310   18.2840   23.3560 N.3   100  ALA100     -0.1231
     37  CA         5.9310   18.6220   22.2580 C.3   100  ALA100      0.1694
     38  C          4.5060   18.6430   22.8060 C.2   100  ALA100      0.2592
     39  O          4.2190   17.9780   23.7930 O.2   100  ALA100     -0.2718
     40  CB         6.0740   17.6010   21.1350 C.3   100  ALA100      0.0304
     41  N          3.6140   19.4020   22.1700 N.am  101  ASN101     -0.1960
     42  CA         2.2400   19.4500   22.6580 C.3   101  ASN101      0.1819
     43  C          1.2780   19.8470   21.5550 C.2   101  ASN101      0.2621
     44  O          1.6620   20.0140   20.3940 O.2   101  ASN101     -0.2715
     45  CB         2.1570   20.3520   23.9050 C.3   101  ASN101      0.1195
     46  CG         2.4430   21.7950   23.6080 C.2   101  ASN101      0.2630
     47  OD1        1.9490   22.3380   22.6380 O.2   101  ASN101     -0.2716
     48  ND2        3.2350   22.4430   24.4550 N.am  101  ASN101     -0.0877
     49  N          0.0150   19.9340   21.9470 N.am  102  ALA102     -0.1977
     50  CA        -1.0850   20.3210   21.0810 C.3   102  ALA102      0.1597
     51  C         -1.7710   21.5580   21.6460 C.2   102  ALA102      0.2287
     52  O         -2.9960   21.7140   21.5380 O.2   102  ALA102     -0.2864
     53  CB        -2.0670   19.1710   20.9600 C.3   102  ALA102      0.0319
     54  N         -1.3230   19.9670   27.2360 N.3   106  THR106     -0.1218
     55  CA        -1.5200   18.7600   26.4340 C.3   106  THR106      0.1862
     56  C         -0.2210   17.9510   26.2990 C.2   106  THR106      0.2287
     57  O          0.0730   17.3640   25.2640 O.2   106  THR106     -0.2866
     58  CB        -2.1090   19.0820   25.0440 C.3   106  THR106      0.1770
     59  OG1       -1.2480   19.9840   24.3580 O.3   106  THR106     -0.2211
     60  CG2       -3.5120   19.6470   25.1310 C.3   106  THR106      0.0375
     61  N          5.2620   12.9480   23.8460 N.3   110  GLN110     -0.1245
     62  CA         6.0740   13.4350   22.7460 C.3   110  GLN110      0.1566
     63  C          6.9990   14.5440   23.2150 C.2   110  GLN110      0.2260
     64  O          6.6280   15.3940   24.0360 O.2   110  GLN110     -0.2867
     65  CB         5.1970   13.8980   21.5980 C.3   110  GLN110      0.0367
     66  CG         4.4580   12.7420   20.9260 C.3   110  GLN110      0.0905
     67  CD         3.7410   13.2330   19.6880 C.2   110  GLN110      0.2608
     68  OE1        4.3840   13.7440   18.7610 O.2   110  GLN110     -0.2717
     69  NE2        2.4050   13.1480   19.6780 N.am  110  GLN110     -0.0878
@<TRIPOS>BOND
     1    20    18    1
     2    10    11    1
     3    19    18    1
     4    11    12    1
     5    18    15    1
     6    14    12   am
     7    14    15    1
     8    12    13    2
     9     4     3    2
    10     8     7    2
    11     1     2    1
    12    15    16    1
    13     5     2    1
    14     5     6    1
    15     7     9   am
    16     7     6    1
    17     2     3    1
    18    16    21   am
    19    16    17    2
    20    21    22    1
    21    68    67    2
    22    69    67   am
    23    67    66    1
    24    22    23    1
    25    44    43    2
    26    66    65    1
    27    53    50    1
    28    23    24    2
    29    50    51    1
    30    50    49    1
    31    40    37    1
    32    52    51    2
    33    43    49   am
    34    43    42    1
    35    65    62    1
    36    41    42    1
    37    41    38   am
    38    37    38    1
    39    37    36    1
    40    35    33    1
    41    47    46    2
    42    42    45    1
    43    62    63    1
    44    62    61    1
    45    38    39    2
    46    63    64    2
    47    46    45    1
    48    46    48   am
    49    33    32    2
    50    33    34    1
    51    32    31    1
    52    59    58    1
    53    58    60    1
    54    58    55    1
    55    57    56    2
    56    31    30    1
    57    56    55    1
    58    55    54    1
    59    30    29    1
    60    29    26    1
    61    26    25    1
    62    26    27    1
    63    27    28    2
