@<TRIPOS>MOLECULE
tmp/3rdbA01.pdb
 79 73 0 0 0
SMALL
GASTEIGER

@<TRIPOS>ATOM
      1  N         12.0460   15.4080   16.8360 N.3    62  GLN62      -0.1245
      2  CA        10.8760   15.0890   17.6750 C.3    62  GLN62       0.1566
      3  C         10.6000   13.6000   17.6390 C.2    62  GLN62       0.2260
      4  O         10.6630   12.9600   16.5940 O.2    62  GLN62      -0.2867
      5  CB         9.6330   15.8420   17.2180 C.3    62  GLN62       0.0367
      6  CG         8.4150   15.6510   18.0680 C.3    62  GLN62       0.0905
      7  CD         7.2630   16.5920   17.6650 C.2    62  GLN62       0.2608
      8  OE1        7.4880   17.6840   17.1790 O.2    62  GLN62      -0.2717
      9  NE2        6.0160   16.1750   17.9510 N.am   62  GLN62      -0.0878
     10  N          2.9070   11.5730   15.4350 N.3    71  GLY71      -0.1210
     11  CA         2.7380   12.8780   16.0300 C.3    71  GLY71       0.1956
     12  C          1.3610   13.1250   16.6040 C.2    71  GLY71       0.2613
     13  O          1.1110   14.1940   17.1590 O.2    71  GLY71      -0.2717
     14  N          0.4370   12.1630   16.4360 N.am   72  THR72      -0.1938
     15  CA        -0.9120   12.3380   16.9820 C.3    72  THR72       0.2028
     16  C         -1.1110   11.6700   18.3310 C.2    72  THR72       0.2642
     17  O         -2.1060   11.9530   19.0020 O.2    72  THR72      -0.2714
     18  CB        -1.9920   11.7930   16.0290 C.3    72  THR72       0.1808
     19  OG1       -1.7800   10.3800   15.8650 O.3    72  THR72      -0.2208
     20  CG2       -2.0020   12.5780   14.6650 C.3    72  THR72       0.0379
     21  N         -0.1680   10.8240   18.7490 N.am   73  GLY73      -0.1954
     22  CA        -0.3840    9.9470   19.9030 C.3    73  GLY73       0.1869
     23  C          0.5800   10.1130   21.0630 C.2    73  GLY73       0.2309
     24  O          1.0700   11.2150   21.3280 O.2    73  GLY73      -0.2863
     25  N         -2.8650   12.8360   29.1280 N.3    81  ARG81      -0.1245
     26  CA        -2.1800   14.1340   29.0790 C.3    81  ARG81       0.1563
     27  C         -2.0430   14.6980   30.4750 C.2    81  ARG81       0.2260
     28  O         -2.7590   14.3080   31.3920 O.2    81  ARG81      -0.2867
     29  CB        -2.9450   15.1350   28.2330 C.3    81  ARG81       0.0307
     30  CG        -3.1250   14.7110   26.7790 C.3    81  ARG81       0.0489
     31  CD        -1.8660   14.7690   25.9750 C.3    81  ARG81       0.2205
     32  NE        -2.0710   14.3800   24.5790 N.pl3  81  ARG81      -0.0865
     33  CZ        -1.8780   13.1620   24.0860 C.cat  81  ARG81       0.5346
     34  NH1       -1.4590   12.1780   24.8590 N.pl3  81  ARG81       0.1354
     35  NH2       -2.0850   12.9320   22.7930 N.pl3  81  ARG81       0.1354
     36  N          6.8650   18.1930   23.5490 N.3   100  ALA100     -0.1231
     37  CA         5.9770   18.5570   22.4560 C.3   100  ALA100      0.1694
     38  C          4.5780   18.6720   23.0140 C.2   100  ALA100      0.2592
     39  O          4.3080   18.1270   24.0670 O.2   100  ALA100     -0.2718
     40  CB         6.0270   17.4970   21.3890 C.3   100  ALA100      0.0304
     41  N          3.6900   19.3970   22.3370 N.am  101  ASN101     -0.1960
     42  CA         2.3430   19.4800   22.8070 C.3   101  ASN101      0.1819
     43  C          1.4320   19.9420   21.6850 C.2   101  ASN101      0.2621
     44  O          1.9020   20.1900   20.5380 O.2   101  ASN101     -0.2715
     45  CB         2.2570   20.3590   24.0540 C.3   101  ASN101      0.1195
     46  CG         2.5760   21.8370   23.7710 C.2   101  ASN101      0.2630
     47  OD1        2.0690   22.4230   22.7830 O.2   101  ASN101     -0.2716
     48  ND2        3.3470   22.4620   24.6630 N.am  101  ASN101     -0.0877
     49  N          0.1410   19.9580   21.9930 N.am  102  ALA102     -0.1977
     50  CA        -0.9090   20.4110   21.0610 C.3   102  ALA102      0.1597
     51  C         -1.6380   21.6170   21.6760 C.2   102  ALA102      0.2287
     52  O         -2.8600   21.8000   21.4790 O.2   102  ALA102     -0.2864
     53  CB        -1.8920   19.2890   20.7660 C.3   102  ALA102      0.0319
     54  N         -1.1840   19.9420   27.3710 N.3   106  THR106     -0.1218
     55  CA        -1.3820   18.7260   26.5820 C.3   106  THR106      0.1862
     56  C         -0.1090   17.8750   26.4670 C.2   106  THR106      0.2287
     57  O          0.1520   17.2540   25.4310 O.2   106  THR106     -0.2866
     58  CB        -1.9290   19.0300   25.1680 C.3   106  THR106      0.1770
     59  OG1       -1.0460   19.9220   24.4730 O.3   106  THR106     -0.2211
     60  CG2       -3.3400   19.6410   25.2610 C.3   106  THR106      0.0375
     61  N          2.1450   14.7320   26.8630 N.3   108  GLY108     -0.1210
     62  CA         1.8740   13.2950   26.9060 C.3   108  GLY108      0.1956
     63  C          3.1850   12.5520   27.0250 C.2   108  GLY108      0.2613
     64  O          3.7480   12.4750   28.1090 O.2   108  GLY108     -0.2717
     65  N          3.6740   12.0460   25.8910 N.am  109  SER109     -0.1938
     66  CA         4.9890   11.4250   25.8290 C.3   109  SER109      0.2055
     67  C          5.8970   12.0640   24.7700 C.2   109  SER109      0.2642
     68  O          7.1070   11.8530   24.8000 O.2   109  SER109     -0.2714
     69  CB         4.8670    9.9230   25.5840 C.3   109  SER109      0.2130
     70  OG         4.1270    9.6860   24.4130 O.3   109  SER109     -0.2179
     71  N          5.3330   12.8060   23.8190 N.am  110  GLN110     -0.1976
     72  CA         6.1730   13.3190   22.7610 C.3   110  GLN110      0.1601
     73  C          7.1090   14.4070   23.2840 C.2   110  GLN110      0.2287
     74  O          6.7340   15.2510   24.1170 O.2   110  GLN110     -0.2864
     75  CB         5.3680   13.8260   21.5750 C.3   110  GLN110      0.0394
     76  CG         4.6070   12.7420   20.8550 C.3   110  GLN110      0.0908
     77  CD         3.8990   13.3020   19.6470 C.2   110  GLN110      0.2608
     78  OE1        4.5260   13.9090   18.7820 O.2   110  GLN110     -0.2717
     79  NE2        2.5720   13.1200   19.6020 N.am  110  GLN110     -0.0878
@<TRIPOS>BOND
     1    20    18    1
     2    10    11    1
     3    19    18    1
     4    18    15    1
     5    11    12    1
     6    14    12   am
     7    14    15    1
     8     4     3    2
     9    12    13    2
    10     1     2    1
    11    15    16    1
    12     8     7    2
    13     5     2    1
    14     5     6    1
    15     3     2    1
    16     7     9   am
    17     7     6    1
    18    16    21   am
    19    16    17    2
    20    21    22    1
    21    78    77    2
    22    79    77   am
    23    77    76    1
    24    22    23    1
    25    44    43    2
    26    53    50    1
    27    76    75    1
    28    50    51    1
    29    50    49    1
    30    23    24    2
    31    40    37    1
    32    52    51    2
    33    75    72    1
    34    43    49   am
    35    43    42    1
    36    41    42    1
    37    41    38   am
    38    37    38    1
    39    37    36    1
    40    72    73    1
    41    72    71    1
    42    47    46    2
    43    35    33    1
    44    42    45    1
    45    38    39    2
    46    73    74    2
    47    46    45    1
    48    46    48   am
    49    71    67   am
    50    33    32    2
    51    33    34    1
    52    70    69    1
    53    59    58    1
    54    32    31    1
    55    67    68    2
    56    67    66    1
    57    58    60    1
    58    58    55    1
    59    57    56    2
    60    69    66    1
    61    66    65    1
    62    65    63   am
    63    31    30    1
    64    56    55    1
    65    55    54    1
    66    30    29    1
    67    61    62    1
    68    62    63    1
    69    63    64    2
    70    29    26    1
    71    26    25    1
    72    26    27    1
    73    27    28    2
