@<TRIPOS>MOLECULE
tmp/3rddA00.pdb
 157 150 0 0 0
SMALL
GASTEIGER

@<TRIPOS>ATOM
      1  N          5.2500   14.5530  -12.4150 N.3    54  ARG54      -0.1245
      2  CA         5.8290   14.0360  -11.1760 C.3    54  ARG54       0.1563
      3  C          5.7990   12.5200  -11.1450 C.2    54  ARG54       0.2260
      4  O          4.7540   11.8900  -10.9490 O.2    54  ARG54      -0.2867
      5  CB         5.0860   14.6030   -9.9480 C.3    54  ARG54       0.0307
      6  CG         5.9290   14.6130   -8.6670 C.3    54  ARG54       0.0489
      7  CD         5.4100   15.6140   -7.6150 C.3    54  ARG54       0.2205
      8  NE         4.1610   15.1830   -6.9790 N.pl3  54  ARG54      -0.0865
      9  CZ         4.0600   14.5350   -5.8150 C.cat  54  ARG54       0.5346
     10  NH1        2.8640   14.2060   -5.3530 N.pl3  54  ARG54       0.1354
     11  NH2        5.1360   14.2140   -5.0990 N.pl3  54  ARG54       0.1354
     12  N          6.6390    4.7580   -5.8460 N.3    59  PHE59      -0.1227
     13  CA         5.4720    5.4310   -5.2850 C.3    59  PHE59       0.1736
     14  C          4.3480    5.5670   -6.3250 C.2    59  PHE59       0.2595
     15  O          3.3320    4.8740   -6.2370 O.2    59  PHE59      -0.2718
     16  CB         5.8930    6.8000   -4.7060 C.3    59  PHE59       0.0547
     17  CG         4.7610    7.6020   -4.0870 C.ar   59  PHE59      -0.0202
     18  CD1        3.6070    6.9980   -3.6130 C.ar   59  PHE59      -0.0042
     19  CD2        4.8810    8.9710   -3.9520 C.ar   59  PHE59      -0.0042
     20  CE1        2.5820    7.7490   -3.0630 C.ar   59  PHE59      -0.0003
     21  CE2        3.8670    9.7210   -3.3890 C.ar   59  PHE59      -0.0003
     22  CZ         2.7090    9.1090   -2.9480 C.ar   59  PHE59      -0.0000
     23  N          4.5190    6.4680   -7.2920 N.am   60  MET60      -0.1979
     24  CA         3.4400    6.7770   -8.2330 C.3    60  MET60       0.1605
     25  C          3.8470    7.7020   -9.3780 C.2    60  MET60       0.2287
     26  O          4.8360    8.4490   -9.2930 O.2    60  MET60      -0.2864
     27  CB         2.2170    7.3770   -7.5090 C.3    60  MET60       0.0413
     28  CG         2.4770    8.7160   -6.8290 C.3    60  MET60       0.0598
     29  SD         2.4010   10.1690   -7.9090 S.3    60  MET60      -0.1393
     30  CE         3.9340   10.9950   -7.4920 C.3    60  MET60       0.0692
     31  N          2.1780   10.7700  -11.4720 N.3    62  GLN62      -0.1245
     32  CA         1.1340   11.7880  -11.4260 C.3    62  GLN62       0.1566
     33  C          1.1400   12.5920  -12.7300 C.2    62  GLN62       0.2260
     34  O          2.2010   12.8920  -13.2640 O.2    62  GLN62      -0.2867
     35  CB         1.3680   12.7430  -10.2400 C.3    62  GLN62       0.0367
     36  CG         0.1440   13.5930   -9.8630 C.3    62  GLN62       0.0905
     37  CD         0.4180   14.5310   -8.7200 C.2    62  GLN62       0.2608
     38  OE1        1.2060   14.2120   -7.8440 O.2    62  GLN62      -0.2717
     39  NE2       -0.2340   15.7020   -8.7180 N.am   62  GLN62      -0.0878
     40  N          1.7410   20.7070  -11.8380 N.3    71  GLY71      -0.1210
     41  CA         1.1400   20.2510  -10.5950 C.3    71  GLY71       0.1956
     42  C          0.3210   21.3040   -9.8690 C.2    71  GLY71       0.2613
     43  O         -0.2860   21.0160   -8.8300 O.2    71  GLY71      -0.2717
     44  N          0.2860   22.5180  -10.4130 N.am   72  THR72      -0.1938
     45  CA        -0.4440   23.6020   -9.7850 C.3    72  THR72       0.2028
     46  C         -1.7540   23.9200  -10.5210 C.2    72  THR72       0.2643
     47  O         -2.3910   24.9290  -10.2260 O.2    72  THR72      -0.2714
     48  CB         0.4240   24.8720   -9.7410 C.3    72  THR72       0.1808
     49  OG1        0.6770   25.2990  -11.0740 O.3    72  THR72      -0.2208
     50  CG2        1.7720   24.6230   -9.0300 C.3    72  THR72       0.0379
     51  N         -2.1720   23.0760  -11.4670 N.am   73  GLY73      -0.1939
     52  CA        -3.3400   23.3950  -12.2790 C.3    73  GLY73       0.2014
     53  C         -4.2070   22.2170  -12.6290 C.2    73  GLY73       0.2639
     54  O         -4.1300   21.1650  -11.9930 O.2    73  GLY73      -0.2714
     55  N         -5.0330   22.4050  -13.6530 N.am   74  GLY74      -0.1954
     56  CA        -5.9900   21.3990  -14.0910 C.3    74  GLY74       0.1869
     57  C         -7.4150   21.8730  -13.8680 C.2    74  GLY74       0.2309
     58  O         -7.6530   22.8240  -13.1440 O.2    74  GLY74      -0.2863
     59  N        -13.6860   24.2350  -12.1330 N.3    80  GLU80      -0.1231
     60  CA       -12.2630   24.2000  -11.7710 C.3    80  GLU80       0.1699
     61  C        -11.9300   23.0490  -10.8250 C.2    80  GLU80       0.2592
     62  O        -10.8640   22.4280  -10.9230 O.2    80  GLU80      -0.2718
     63  CB       -11.8520   25.5200  -11.1160 C.3    80  GLU80       0.0402
     64  CG       -10.3680   25.6010  -10.7640 C.3    80  GLU80       0.1161
     65  CD        -9.9810   26.9230  -10.1430 C.2    80  GLU80       0.3649
     66  OE1       -8.7870   27.2780  -10.2260 O.co2  80  GLU80      -0.2457
     67  OE2      -10.8590   27.6120   -9.5750 O.co2  80  GLU80      -0.2457
     68  N        -12.8390   22.7940   -9.8880 N.am   81  LYS81      -0.1980
     69  CA       -12.6900   21.6870   -8.9520 C.3    81  LYS81       0.1596
     70  C        -14.0370   21.1050   -8.5480 C.2    81  LYS81       0.2287
     71  O        -15.0790   21.7200   -8.7740 O.2    81  LYS81      -0.2864
     72  CB       -11.8780   22.1060   -7.7160 C.3    81  LYS81       0.0298
     73  CG       -12.0310   23.5660   -7.2920 C.3    81  LYS81       0.0038
     74  CD       -11.7510   23.7580   -5.7960 C.3    81  LYS81       0.0206
     75  CE       -10.8550   24.9570   -5.5050 C.3    81  LYS81       0.1093
     76  NZ        -9.4100   24.5810   -5.5970 N.3    81  LYS81      -0.1314
     77  N         -5.4280   13.1680   -7.5750 N.3   100  ALA100     -0.1231
     78  CA        -4.5770   14.0680   -6.8300 C.3   100  ALA100      0.1694
     79  C         -5.4700   15.2090   -6.3620 C.2   100  ALA100      0.2592
     80  O         -6.5770   15.3620   -6.8560 O.2   100  ALA100     -0.2718
     81  CB        -3.4380   14.5790   -7.7110 C.3   100  ALA100      0.0304
     82  N         -4.9920   15.9990   -5.4100 N.am  101  ASN101     -0.1960
     83  CA        -5.7270   17.1600   -4.9250 C.3   101  ASN101      0.1819
     84  C         -4.8520   18.0410   -4.0510 C.2   101  ASN101      0.2621
     85  O         -3.7320   17.6770   -3.7230 O.2   101  ASN101     -0.2715
     86  CB        -6.9940   16.7530   -4.1460 C.3   101  ASN101      0.1195
     87  CG        -6.6860   16.0070   -2.8330 C.2   101  ASN101      0.2630
     88  OD1       -5.8790   16.4500   -2.0250 O.2   101  ASN101     -0.2716
     89  ND2       -7.3540   14.8860   -2.6280 N.am  101  ASN101     -0.0877
     90  N         -5.3970   19.1930   -3.6700 N.am  102  ALA102     -0.1977
     91  CA        -4.6860   20.1990   -2.8920 C.3   102  ALA102      0.1597
     92  C         -5.4730   20.4690   -1.6080 C.2   102  ALA102      0.2287
     93  O         -5.5790   21.6070   -1.1630 O.2   102  ALA102     -0.2864
     94  CB        -4.5560   21.4810   -3.7080 C.3   102  ALA102      0.0319
     95  N        -11.0140   19.3340   -3.6360 N.3   106  THR106     -0.1203
     96  CA       -10.2280   20.1330   -4.5900 C.3   106  THR106      0.1994
     97  C         -9.7680   19.3030   -5.8120 C.2   106  THR106      0.2618
     98  O         -8.7050   19.5500   -6.3840 O.2   106  THR106     -0.2717
     99  CB        -8.9830   20.7740   -3.9080 C.3   106  THR106      0.1784
    100  OG1       -8.0940   19.7510   -3.4320 O.3   106  THR106     -0.2211
    101  CG2       -9.3910   21.7140   -2.7420 C.3   106  THR106      0.0376
    102  N        -10.5700   18.3220   -6.2120 N.am  107  ASN107     -0.1960
    103  CA       -10.2860   17.5380   -7.4100 C.3   107  ASN107      0.1819
    104  C        -10.4920   18.3950   -8.6550 C.2   107  ASN107      0.2622
    105  O        -11.4980   19.1100   -8.7570 O.2   107  ASN107     -0.2715
    106  CB       -11.2250   16.3480   -7.5190 C.3   107  ASN107      0.1195
    107  CG       -11.0620   15.3650   -6.3870 C.2   107  ASN107      0.2630
    108  OD1       -9.9630   14.8950   -6.1060 O.2   107  ASN107     -0.2716
    109  ND2      -12.1730   15.0440   -5.7280 N.am  107  ASN107     -0.0877
    110  N         -9.5630   18.3040   -9.6100 N.am  108  GLY108     -0.1940
    111  CA        -9.7480   18.9210  -10.9290 C.3   108  GLY108      0.2014
    112  C         -9.6010   17.8560  -12.0010 C.2   108  GLY108      0.2640
    113  O        -10.5510   17.1110  -12.2900 O.2   108  GLY108     -0.2714
    114  N         -8.3890   17.7820  -12.5590 N.am  109  SER109     -0.1935
    115  CA        -8.0120   16.8000  -13.5980 C.3   109  SER109      0.2055
    116  C         -6.7920   15.9520  -13.2390 C.2   109  SER109      0.2642
    117  O         -6.6370   14.8490  -13.7490 O.2   109  SER109     -0.2714
    118  CB        -7.7310   17.5290  -14.9290 C.3   109  SER109      0.2130
    119  OG        -6.7750   18.5680  -14.7780 O.3   109  SER109     -0.2179
    120  N         -5.9140   16.4580  -12.3760 N.am  110  GLN110     -0.1976
    121  CA        -4.7420   15.6950  -11.9830 C.3   110  GLN110      0.1601
    122  C         -5.1370   14.3880  -11.2910 C.2   110  GLN110      0.2287
    123  O         -6.0650   14.3480  -10.4890 O.2   110  GLN110     -0.2864
    124  CB        -3.8400   16.4970  -11.0580 C.3   110  GLN110      0.0394
    125  CG        -3.2450   17.7480  -11.6560 C.3   110  GLN110      0.0908
    126  CD        -2.1880   18.3310  -10.7620 C.2   110  GLN110      0.2608
    127  OE1       -1.3360   17.6160  -10.2560 O.2   110  GLN110     -0.2717
    128  NE2       -2.2420   19.6380  -10.5520 N.am  110  GLN110     -0.0878
    129  N         -3.1870   10.2780  -10.2100 N.3   112  PHE112     -0.1241
    130  CA        -1.9490    9.5240  -10.1880 C.3   112  PHE112      0.1605
    131  C         -2.2010    8.0410  -10.3860 C.2   112  PHE112      0.2264
    132  O         -3.2960    7.5510  -10.1080 O.2   112  PHE112     -0.2867
    133  CB        -1.1010    9.8030   -8.9240 C.3   112  PHE112      0.0534
    134  CG        -1.7720    9.4440   -7.6140 C.ar  112  PHE112     -0.0203
    135  CD1       -2.6270   10.3330   -6.9970 C.ar  112  PHE112     -0.0042
    136  CD2       -1.5100    8.2370   -6.9850 C.ar  112  PHE112     -0.0042
    137  CE1       -3.2420   10.0150   -5.7970 C.ar  112  PHE112     -0.0003
    138  CE2       -2.1140    7.9320   -5.7850 C.ar  112  PHE112     -0.0003
    139  CZ        -2.9800    8.8260   -5.1960 C.ar  112  PHE112     -0.0000
    140  N         -3.2340    6.8910    1.8900 N.3   121  LEU121     -0.1245
    141  CA        -3.9890    7.8720    1.1040 C.3   121  LEU121      0.1561
    142  C         -5.4970    7.5890    1.1240 C.2   121  LEU121      0.2260
    143  O         -6.2950    8.3830    0.6190 O.2   121  LEU121     -0.2867
    144  CB        -3.4290    7.9290   -0.3270 C.3   121  LEU121      0.0270
    145  CG        -1.9440    8.3420   -0.4080 C.3   121  LEU121      0.0019
    146  CD1       -1.3320    7.9570   -1.7450 C.3   121  LEU121      0.0001
    147  CD2       -1.7650    9.8280   -0.1460 C.3   121  LEU121      0.0001
    148  N         -7.5790   10.6740   -0.8790 N.3   125  HIS125     -0.1241
    149  CA        -7.6780   10.7580   -2.3430 C.3   125  HIS125      0.1621
    150  C         -8.7500    9.7690   -2.8330 C.2   125  HIS125      0.2264
    151  O         -8.7730    8.6210   -2.3850 O.2   125  HIS125     -0.2867
    152  CB        -6.3110   10.4520   -2.9820 C.3   125  HIS125      0.0745
    153  CG        -5.2260   11.4080   -2.5840 C.ar  125  HIS125      0.0817
    154  ND1       -4.9530   12.5610   -3.2890 N.ar  125  HIS125     -0.2268
    155  CD2       -4.3610   11.3910   -1.5450 C.ar  125  HIS125      0.1154
    156  CE1       -3.9600   13.2090   -2.7040 C.ar  125  HIS125      0.1986
    157  NE2       -3.5830   12.5200   -1.6430 N.ar  125  HIS125     -0.2212
@<TRIPOS>BOND
     1   118   119    1
     2   118   115    1
     3    56    57    1
     4    56    55    1
     5    57    58    2
     6   117   116    2
     7    55    53   am
     8   115   116    1
     9   115   114    1
    10    34    33    2
    11   116   120   am
    12    33    32    1
    13    53    52    1
    14    53    54    2
    15   114   112   am
    16     1     2    1
    17   120   121    1
    18   113   112    2
    19    52    51    1
    20    59    60    1
    21   112   111    1
    22   121   122    1
    23   121   124    1
    24    40    41    1
    25    60    63    1
    26    60    61    1
    27   125   124    1
    28   125   126    1
    29    31    32    1
    30    51    46   am
    31    32    35    1
    32   122   123    2
    33     2     3    1
    34     2     5    1
    35     3     4    2
    36    63    64    1
    37    49    48    1
    38   111   110    1
    39    62    61    2
    40    61    68   am
    41    64    65    1
    42   126   128   am
    43   126   127    2
    44    41    42    1
    45    46    47    2
    46    46    45    1
    47    44    42   am
    48    44    45    1
    49   131   130    1
    50   131   132    2
    51    35    36    1
    52    66    65   ar
    53   129   130    1
    54   130   133    1
    55    65    67   ar
    56     5     6    1
    57    68    69    1
    58    42    43    2
    59    36    37    1
    60    45    48    1
    61    48    50    1
    62   110   104   am
    63    25    26    2
    64    25    24    1
    65    69    70    1
    66    69    72    1
    67   133   134    1
    68    71    70    2
    69   105   104    2
    70    37    39   am
    71    37    38    2
    72     6     7    1
    73   104   103    1
    74    24    27    1
    75    24    23    1
    76    29    30    1
    77    29    28    1
    78    72    73    1
    79    81    78    1
    80     7     8    1
    81   134   135   ar
    82   134   136   ar
    83    77    78    1
    84   106   103    1
    85   106   107    1
    86    27    28    1
    87   103   102    1
    88    73    74    1
    89    23    14   am
    90   135   137   ar
    91   136   138   ar
    92     8     9    2
    93    80    79    2
    94    78    79    1
    95   107   108    2
    96   107   109   am
    97    98    97    2
    98    79    82   am
    99    14    15    2
   100    14    13    1
   101   102    97   am
   102    12    13    1
   103     9    10    1
   104     9    11    1
   105    97    96    1
   106   137   139   ar
   107    74    75    1
   108   138   139   ar
   109    76    75    1
   110    82    83    1
   111    13    16    1
   112    83    86    1
   113    83    84    1
   114    16    17    1
   115    96    99    1
   116    96    95    1
   117    86    87    1
   118    17    19   ar
   119    17    18   ar
   120    84    85    2
   121    84    90   am
   122    19    21   ar
   123    99   100    1
   124    99   101    1
   125    94    91    1
   126    90    91    1
   127    18    20   ar
   128    21    22   ar
   129   154   156   ar
   130   154   153   ar
   131    20    22   ar
   132   152   153    1
   133   152   149    1
   134    91    92    1
   135    87    89   am
   136    87    88    2
   137   150   151    2
   138   150   149    1
   139   156   157   ar
   140   153   155   ar
   141   149   148    1
   142   146   145    1
   143   157   155   ar
   144    92    93    2
   145   145   144    1
   146   145   147    1
   147   144   141    1
   148   143   142    2
   149   141   142    1
   150   141   140    1
