@<TRIPOS>MOLECULE
tmp/3rdeD00.pdb
 216 203 0 0 0
SMALL
GASTEIGER

@<TRIPOS>ATOM
      1  N         -8.0510  -26.5640  -76.5470 N.3    64  PHE64      -0.1241
      2  CA        -9.0780  -27.4240  -77.1390 C.3    64  PHE64       0.1605
      3  C         -8.7040  -28.9040  -76.7450 C.2    64  PHE64       0.2264
      4  O         -9.5760  -29.6720  -76.3760 O.2    64  PHE64      -0.2867
      5  CB        -9.0860  -27.2290  -78.6700 C.3    64  PHE64       0.0534
      6  CG       -10.1940  -27.9740  -79.3740 C.ar   64  PHE64      -0.0203
      7  CD1      -11.4320  -27.4020  -79.5380 C.ar   64  PHE64      -0.0042
      8  CD2       -9.9480  -29.2150  -79.9220 C.ar   64  PHE64      -0.0042
      9  CE1      -12.4490  -28.1100  -80.1790 C.ar   64  PHE64      -0.0003
     10  CE2      -10.9340  -29.9180  -80.5320 C.ar   64  PHE64      -0.0003
     11  CZ       -12.1820  -29.3490  -80.6820 C.ar   64  PHE64      -0.0000
     12  N        -10.9100  -31.5980  -74.4310 N.3    68  LEU68      -0.1245
     13  CA       -11.3520  -32.8850  -74.9610 C.3    68  LEU68       0.1561
     14  C        -10.9760  -33.9670  -73.9600 C.2    68  LEU68       0.2260
     15  O        -11.7840  -34.8030  -73.5670 O.2    68  LEU68      -0.2867
     16  CB       -10.6560  -33.1660  -76.2930 C.3    68  LEU68       0.0270
     17  CG       -11.3220  -34.0550  -77.3610 C.3    68  LEU68       0.0019
     18  CD1      -10.2980  -34.9660  -78.0600 C.3    68  LEU68       0.0001
     19  CD2      -12.5100  -34.8820  -76.8660 C.3    68  LEU68       0.0001
     20  N        -13.6810  -36.3730  -72.0790 N.3    72  LEU72      -0.1245
     21  CA       -13.5910  -37.8450  -72.1450 C.3    72  LEU72       0.1561
     22  C        -13.3510  -38.5030  -70.7870 C.2    72  LEU72       0.2260
     23  O        -13.9100  -39.5330  -70.5400 O.2    72  LEU72      -0.2867
     24  CB       -12.4620  -38.2980  -73.0920 C.3    72  LEU72       0.0270
     25  CG       -12.7500  -37.9790  -74.5290 C.3    72  LEU72       0.0019
     26  CD1      -11.5220  -38.3720  -75.3970 C.3    72  LEU72       0.0001
     27  CD2      -14.0210  -38.6090  -75.0250 C.3    72  LEU72       0.0001
     28  N        -33.4440  -30.3980  -81.3460 N.3   242  PHE242     -0.1241
     29  CA       -32.0150  -30.6950  -81.3170 C.3   242  PHE242      0.1605
     30  C        -31.4550  -31.0260  -82.7060 C.2   242  PHE242      0.2264
     31  O        -30.4490  -30.4760  -83.0650 O.2   242  PHE242     -0.2867
     32  CB       -31.6480  -31.8470  -80.3490 C.3   242  PHE242      0.0534
     33  CG       -30.2110  -32.1420  -80.2910 C.ar  242  PHE242     -0.0203
     34  CD1      -29.5800  -32.9880  -81.2220 C.ar  242  PHE242     -0.0042
     35  CD2      -29.4530  -31.5850  -79.3030 C.ar  242  PHE242     -0.0042
     36  CE1      -28.2500  -33.2720  -81.1230 C.ar  242  PHE242     -0.0003
     37  CE2      -28.1080  -31.8970  -79.1850 C.ar  242  PHE242     -0.0003
     38  CZ       -27.5080  -32.7000  -80.1200 C.ar  242  PHE242     -0.0000
     39  N        -29.0230  -28.2850  -84.5130 N.3   246  GLU246     -0.1245
     40  CA       -27.6230  -28.6280  -84.6960 C.3   246  GLU246      0.1567
     41  C        -27.1870  -28.7730  -86.1430 C.2   246  GLU246      0.2260
     42  O        -26.1540  -28.2220  -86.5040 O.2   246  GLU246     -0.2867
     43  CB       -27.1940  -29.8660  -83.8930 C.3   246  GLU246      0.0388
     44  CG       -27.2210  -29.6090  -82.3790 C.3   246  GLU246      0.1160
     45  CD       -26.1850  -28.5870  -81.8970 C.2   246  GLU246      0.3649
     46  OE1      -25.6310  -27.8160  -82.7280 O.co2 246  GLU246     -0.2457
     47  OE2      -25.9160  -28.5560  -80.6810 O.co2 246  GLU246     -0.2457
     48  N        -27.1730  -24.4070  -86.9130 N.3   250  HIS250     -0.1226
     49  CA       -25.7980  -24.2260  -86.3580 C.3   250  HIS250      0.1752
     50  C        -24.7270  -24.6540  -87.3400 C.2   250  HIS250      0.2595
     51  O        -23.9760  -23.8240  -87.7870 O.2   250  HIS250     -0.2718
     52  CB       -25.6900  -24.9040  -85.0180 C.3   250  HIS250      0.0759
     53  CG       -24.4120  -24.6410  -84.2800 C.ar  250  HIS250      0.0818
     54  ND1      -24.0250  -25.4240  -83.2280 N.ar  250  HIS250     -0.2268
     55  CD2      -23.3980  -23.7670  -84.4880 C.ar  250  HIS250      0.1154
     56  CE1      -22.8270  -25.0520  -82.8170 C.ar  250  HIS250      0.1986
     57  NE2      -22.4240  -24.0230  -83.5510 N.ar  250  HIS250     -0.2212
     58  N        -24.6790  -25.9440  -87.6970 N.am  251  LEU251     -0.1980
     59  CA       -23.6790  -26.4520  -88.5850 C.3   251  LEU251      0.1596
     60  C        -23.8130  -25.8290  -90.0320 C.2   251  LEU251      0.2287
     61  O        -22.8760  -25.2430  -90.5250 O.2   251  LEU251     -0.2864
     62  CB       -23.7620  -27.9730  -88.6470 C.3   251  LEU251      0.0297
     63  CG       -22.6740  -28.6530  -89.5150 C.3   251  LEU251      0.0022
     64  CD1      -21.2420  -28.3380  -89.0830 C.3   251  LEU251      0.0001
     65  CD2      -22.8420  -30.2520  -89.7230 C.3   251  LEU251      0.0001
     66  N        -21.5260  -22.6190  -89.3270 N.3   255  HIS255     -0.1241
     67  CA       -20.2560  -23.1450  -89.6850 C.3   255  HIS255      0.1621
     68  C        -19.9710  -23.3000  -91.2070 C.2   255  HIS255      0.2264
     69  O        -18.9760  -22.8000  -91.6660 O.2   255  HIS255     -0.2867
     70  CB       -20.0110  -24.5220  -88.9930 C.3   255  HIS255      0.0745
     71  CG       -19.6970  -24.3760  -87.5270 C.ar  255  HIS255      0.0817
     72  ND1      -18.4270  -24.5200  -87.0390 N.ar  255  HIS255     -0.2268
     73  CD2      -20.4980  -24.1290  -86.4570 C.ar  255  HIS255      0.1154
     74  CE1      -18.4370  -24.3000  -85.7310 C.ar  255  HIS255      0.1986
     75  NE2      -19.6930  -24.0670  -85.3430 N.ar  255  HIS255     -0.2212
     76  N        -11.7570  -25.6250  -87.3920 N.3   289  ILE289     -0.1245
     77  CA       -12.8150  -26.1970  -86.5490 C.3   289  ILE289      0.1561
     78  C        -13.7710  -27.0880  -87.3780 C.2   289  ILE289      0.2260
     79  O        -14.2340  -28.1360  -86.9240 O.2   289  ILE289     -0.2867
     80  CB       -13.5650  -25.1160  -85.7380 C.3   289  ILE289      0.0252
     81  CG1      -14.3800  -25.7850  -84.6050 C.3   289  ILE289      0.0019
     82  CG2      -14.4450  -24.2380  -86.5560 C.3   289  ILE289      0.0019
     83  CD1      -13.4830  -26.6320  -83.4670 C.3   289  ILE289      0.0001
     84  N        -12.1810  -30.4440  -88.2210 N.3   292  ARG292     -0.1231
     85  CA       -12.2300  -31.2660  -87.0260 C.3   292  ARG292      0.1694
     86  C        -13.6550  -31.8490  -86.9130 C.2   292  ARG292      0.2591
     87  O        -13.8510  -33.0310  -86.6550 O.2   292  ARG292     -0.2718
     88  CB       -11.8690  -30.4520  -85.7820 C.3   292  ARG292      0.0321
     89  CG       -10.3820  -30.1950  -85.6650 C.3   292  ARG292      0.0489
     90  CD       -10.0300  -29.3970  -84.4800 C.3   292  ARG292      0.2205
     91  NE        -8.5940  -29.2090  -84.1710 N.pl3 292  ARG292     -0.0865
     92  CZ        -7.8700  -29.9920  -83.3410 C.cat 292  ARG292      0.5346
     93  NH1       -8.3930  -31.1240  -82.8230 N.pl3 292  ARG292      0.1354
     94  NH2       -6.5830  -29.6970  -83.1010 N.pl3 292  ARG292      0.1354
     95  N        -14.6440  -31.0230  -87.2380 N.am  293  ALA293     -0.1980
     96  CA       -16.0320  -31.4650  -87.1860 C.3   293  ALA293      0.1597
     97  C        -16.2500  -32.5680  -88.1960 C.2   293  ALA293      0.2287
     98  O        -16.9340  -33.5300  -87.8940 O.2   293  ALA293     -0.2864
     99  CB       -17.0460  -30.3010  -87.4490 C.3   293  ALA293      0.0319
    100  N        -14.6010  -35.9100  -86.8940 N.3   296  GLY296     -0.1210
    101  CA       -14.9510  -36.5440  -85.6420 C.3   296  GLY296      0.1956
    102  C        -16.3650  -36.3390  -85.1330 C.2   296  GLY296      0.2611
    103  O        -16.8400  -37.0910  -84.3420 O.2   296  GLY296     -0.2717
    104  N        -17.0180  -35.3100  -85.6390 N.am  297  LEU297     -0.1979
    105  CA       -18.3470  -34.9830  -85.1980 C.3   297  LEU297      0.1596
    106  C        -19.4460  -35.5980  -86.0540 C.2   297  LEU297      0.2287
    107  O        -20.2620  -36.2930  -85.5710 O.2   297  LEU297     -0.2864
    108  CB       -18.5220  -33.4910  -85.0840 C.3   297  LEU297      0.0297
    109  CG       -19.8440  -33.0390  -84.5130 C.3   297  LEU297      0.0022
    110  CD1      -19.8680  -33.2910  -83.0660 C.3   297  LEU297      0.0001
    111  CD2      -20.0970  -31.5920  -84.8100 C.3   297  LEU297      0.0001
    112  N        -19.3220  -38.6880  -83.6280 N.3   303  ILE303     -0.1231
    113  CA       -20.2750  -38.4410  -82.5420 C.3   303  ILE303      0.1692
    114  C        -21.7060  -38.6280  -82.9370 C.2   303  ILE303      0.2592
    115  O        -22.4760  -39.3110  -82.2290 O.2   303  ILE303     -0.2718
    116  CB       -20.0540  -37.0020  -81.9760 C.3   303  ILE303      0.0266
    117  CG1      -18.6820  -36.8650  -81.2890 C.3   303  ILE303      0.0019
    118  CG2      -21.0980  -36.6790  -80.9580 C.3   303  ILE303      0.0020
    119  CD1      -18.4460  -37.8110  -80.1630 C.3   303  ILE303      0.0001
    120  N        -22.1270  -38.0290  -84.0750 N.am  304  PHE304     -0.1976
    121  CA       -23.5450  -38.2230  -84.4870 C.3   304  PHE304      0.1639
    122  C        -23.9010  -39.6720  -84.6960 C.2   304  PHE304      0.2290
    123  O        -24.9140  -40.1520  -84.2360 O.2   304  PHE304     -0.2864
    124  CB       -23.8420  -37.3890  -85.7460 C.3   304  PHE304      0.0560
    125  CG       -24.3180  -35.9630  -85.4370 C.ar  304  PHE304     -0.0200
    126  CD1      -23.5190  -35.0750  -84.7860 C.ar  304  PHE304     -0.0042
    127  CD2      -25.6010  -35.5800  -85.7980 C.ar  304  PHE304     -0.0042
    128  CE1      -23.9760  -33.7930  -84.4420 C.ar  304  PHE304     -0.0003
    129  CE2      -26.0800  -34.3090  -85.5070 C.ar  304  PHE304     -0.0003
    130  CZ       -25.2560  -33.4110  -84.8820 C.ar  304  PHE304     -0.0000
    131  N        -24.3370  -41.4770  -81.1020 N.3   307  VAL307     -0.1231
    132  CA       -25.3990  -41.1840  -80.1530 C.3   307  VAL307      0.1692
    133  C        -26.5790  -40.3660  -80.6060 C.2   307  VAL307      0.2591
    134  O        -27.4500  -40.0870  -79.7460 O.2   307  VAL307     -0.2718
    135  CB       -24.8200  -40.4700  -78.8610 C.3   307  VAL307      0.0266
    136  CG1      -23.6840  -41.3440  -78.2700 C.3   307  VAL307      0.0020
    137  CG2      -24.4010  -39.0750  -79.1380 C.3   307  VAL307      0.0020
    138  N        -26.6260  -39.8830  -81.8580 N.am  308  VAL308     -0.1980
    139  CA       -27.7100  -38.9140  -82.2600 C.3   308  VAL308      0.1595
    140  C        -28.7110  -39.6330  -83.0950 C.2   308  VAL308      0.2287
    141  O        -28.2930  -40.4550  -83.9120 O.2   308  VAL308     -0.2864
    142  CB       -27.0730  -37.6670  -83.0270 C.3   308  VAL308      0.0276
    143  CG1      -28.1750  -36.6000  -83.5660 C.3   308  VAL308      0.0022
    144  CG2      -25.9540  -36.9870  -82.1210 C.3   308  VAL308      0.0022
    145  N        -26.1180  -23.6250  -76.2560 N.3   437  GLN437     -0.1245
    146  CA       -25.9540  -25.0490  -76.0320 C.3   437  GLN437      0.1566
    147  C        -25.6290  -25.2780  -74.5440 C.2   437  GLN437      0.2260
    148  O        -26.2260  -26.1300  -73.9320 O.2   437  GLN437     -0.2867
    149  CB       -24.8330  -25.5760  -76.9190 C.3   437  GLN437      0.0367
    150  CG       -25.1670  -25.5950  -78.4290 C.3   437  GLN437      0.0905
    151  CD       -23.9550  -25.8510  -79.2530 C.2   437  GLN437      0.2608
    152  OE1      -22.9610  -25.0650  -79.2080 O.2   437  GLN437     -0.2717
    153  NE2      -23.9980  -26.8850  -80.0290 N.am  437  GLN437     -0.0878
    154  N        -30.5610  -35.8890  -77.5930 N.3   449  CYS449     -0.1235
    155  CA       -29.8680  -36.1130  -78.8400 C.3   449  CYS449      0.1677
    156  C        -30.4450  -37.2540  -79.6210 C.2   449  CYS449      0.2270
    157  O        -30.2440  -37.3180  -80.8180 O.2   449  CYS449     -0.2867
    158  CB       -28.3770  -36.3690  -78.6350 C.3   449  CYS449      0.0956
    159  SG       -27.9870  -37.6410  -77.4770 S.3   449  CYS449     -0.0801
    160  N        -22.3670  -38.3100  -73.1680 N.3   478  LEU478     -0.1231
    161  CA       -21.6460  -37.8470  -74.2790 C.3   478  LEU478      0.1693
    162  C        -22.2200  -36.5130  -74.7860 C.2   478  LEU478      0.2591
    163  O        -21.4400  -35.6190  -75.1940 O.2   478  LEU478     -0.2718
    164  CB       -21.6050  -38.9220  -75.4490 C.3   478  LEU478      0.0284
    165  CG       -20.6330  -38.6250  -76.5850 C.3   478  LEU478      0.0019
    166  CD1      -19.2710  -38.0950  -76.2260 C.3   478  LEU478      0.0001
    167  CD2      -20.5000  -39.8830  -77.4110 C.3   478  LEU478      0.0001
    168  N        -23.5320  -36.3770  -74.7860 N.am  479  GLN479     -0.1979
    169  CA       -24.1340  -35.1080  -75.1740 C.3   479  GLN479      0.1601
    170  C        -23.6070  -33.9820  -74.2740 C.2   479  GLN479      0.2287
    171  O        -23.1760  -32.9040  -74.7610 O.2   479  GLN479     -0.2864
    172  CB       -25.6460  -35.1330  -75.0620 C.3   479  GLN479      0.0394
    173  CG       -26.3070  -33.7660  -75.2980 C.3   479  GLN479      0.0908
    174  CD       -27.8420  -33.8690  -75.3940 C.2   479  GLN479      0.2608
    175  OE1      -28.3740  -34.9030  -75.8310 O.2   479  GLN479     -0.2717
    176  NE2      -28.5640  -32.8530  -74.8730 N.am  479  GLN479     -0.0878
    177  N        -19.6930  -33.0610  -75.1060 N.3   482  ILE482     -0.1231
    178  CA       -19.4840  -32.3030  -76.2940 C.3   482  ILE482      0.1692
    179  C        -20.1240  -30.8990  -76.2190 C.2   482  ILE482      0.2592
    180  O        -19.5350  -29.9520  -76.6460 O.2   482  ILE482     -0.2718
    181  CB       -19.9810  -33.0020  -77.5560 C.3   482  ILE482      0.0266
    182  CG1      -19.3750  -34.3920  -77.6770 C.3   482  ILE482      0.0019
    183  CG2      -19.5310  -32.1240  -78.8180 C.3   482  ILE482      0.0020
    184  CD1      -17.7890  -34.4610  -77.5690 C.3   482  ILE482      0.0001
    185  N        -21.3240  -30.7870  -75.6950 N.am  483  THR483     -0.1953
    186  CA       -21.8960  -29.4600  -75.3680 C.3   483  THR483      0.1897
    187  C        -20.9710  -28.5800  -74.4680 C.2   483  THR483      0.2313
    188  O        -20.7780  -27.3980  -74.7270 O.2   483  THR483     -0.2863
    189  CB       -23.2720  -29.6490  -74.7060 C.3   483  THR483      0.1794
    190  OG1      -24.1280  -30.2980  -75.6210 O.3   483  THR483     -0.2208
    191  CG2      -23.8730  -28.3160  -74.2460 C.3   483  THR483      0.0378
    192  N        -17.7100  -29.0020  -74.2580 N.3   485  GLN485     -0.1231
    193  CA       -16.4750  -28.7030  -74.9820 C.3   485  GLN485      0.1698
    194  C        -16.6480  -27.4950  -75.9020 C.2   485  GLN485      0.2592
    195  O        -15.7310  -26.6550  -76.1080 O.2   485  GLN485     -0.2718
    196  CB       -16.1320  -29.9060  -75.8820 C.3   485  GLN485      0.0381
    197  CG       -14.9970  -29.6640  -76.8520 C.3   485  GLN485      0.0905
    198  CD       -13.6860  -29.7940  -76.1930 C.2   485  GLN485      0.2608
    199  OE1      -13.6540  -30.3290  -75.0940 O.2   485  GLN485     -0.2717
    200  NE2      -12.5830  -29.3920  -76.8680 N.am  485  GLN485     -0.0878
    201  N        -17.8360  -27.4000  -76.4600 N.am  486  LEU486     -0.1980
    202  CA       -18.1550  -26.2910  -77.3590 C.3   486  LEU486      0.1596
    203  C        -18.6600  -24.9920  -76.6680 C.2   486  LEU486      0.2287
    204  O        -18.4300  -23.8580  -77.1400 O.2   486  LEU486     -0.2864
    205  CB       -19.1870  -26.8020  -78.3200 C.3   486  LEU486      0.0297
    206  CG       -18.7410  -27.9330  -79.2360 C.3   486  LEU486      0.0022
    207  CD1      -19.8620  -28.2450  -80.2280 C.3   486  LEU486      0.0001
    208  CD2      -17.3730  -27.7330  -79.9140 C.3   486  LEU486      0.0001
    209  N        -15.5240  -22.2230  -82.9300 N.3   552  ILE552     -0.1245
    210  CA       -15.8480  -23.3190  -81.9910 C.3   552  ILE552      0.1561
    211  C        -17.2410  -23.8060  -82.3850 C.2   552  ILE552      0.2260
    212  O        -17.4780  -24.9920  -82.1640 O.2   552  ILE552     -0.2867
    213  CB       -15.7500  -22.8530  -80.5040 C.3   552  ILE552      0.0252
    214  CG1      -15.9990  -24.0140  -79.5300 C.3   552  ILE552      0.0019
    215  CG2      -16.6640  -21.6710  -80.2300 C.3   552  ILE552      0.0019
    216  CD1      -14.9250  -25.1070  -79.6680 C.3   552  ILE552      0.0001
@<TRIPOS>BOND
     1    69    68    2
     2    68    67    1
     3    61    60    2
     4    60    59    1
     5    65    63    1
     6    67    66    1
     7    67    70    1
     8    63    64    1
     9    63    62    1
    10    70    71    1
    11    62    59    1
    12    59    58    1
    13    84    85    1
    14    97    98    2
    15    97    96    1
    16    51    50    2
    17    58    50   am
    18    71    72   ar
    19    71    73   ar
    20    99    96    1
    21    76    77    1
    22    78    79    2
    23    78    77    1
    24    50    49    1
    25    95    96    1
    26    95    86   am
    27    72    74   ar
    28    85    86    1
    29    85    88    1
    30    48    49    1
    31    86    87    2
    32   100   101    1
    33    82    80    1
    34    77    80    1
    35    42    41    2
    36    73    75   ar
    37    49    52    1
    38    41    40    1
    39   106   107    2
    40   106   105    1
    41   127   129   ar
    42   127   125   ar
    43    88    89    1
    44   124   125    1
    45   124   121    1
    46    80    81    1
    47    74    75   ar
    48    89    90    1
    49   101   102    1
    50   104   105    1
    51   104   102   am
    52   129   130   ar
    53   125   126   ar
    54   105   108    1
    55   102   103    2
    56   108   109    1
    57    52    53    1
    58   130   128   ar
    59   111   109    1
    60   126   128   ar
    61   122   121    1
    62   122   123    2
    63    40    39    1
    64    40    43    1
    65    81    83    1
    66   109   110    1
    67    55    53   ar
    68    55    57   ar
    69   121   120    1
    70    90    91    1
    71    53    54   ar
    72    91    92    2
    73   120   114   am
    74   141   140    2
    75    43    44    1
    76   112   113    1
    77   143   142    1
    78    57    56   ar
    79    92    94    1
    80    92    93    1
    81    54    56   ar
    82   140   139    1
    83    31    30    2
    84   142   139    1
    85   142   144    1
    86   114   113    1
    87   114   115    2
    88   209   210    1
    89    46    45   ar
    90    30    29    1
    91   113   116    1
    92   211   212    2
    93   211   210    1
    94    44    45    1
    95   139   138    1
    96   210   213    1
    97   116   117    1
    98   116   118    1
    99    45    47   ar
   100   138   133   am
   101    28    29    1
   102    29    32    1
   103   117   119    1
   104    34    36   ar
   105    34    33   ar
   106    36    38   ar
   107   131   132    1
   108   157   156    2
   109    11    10   ar
   110    11     9   ar
   111   133   132    1
   112   133   134    2
   113    10     8   ar
   114   213   215    1
   115   213   214    1
   116    32    33    1
   117    33    35   ar
   118   207   206    1
   119     9     7   ar
   120   132   135    1
   121    38    37   ar
   122   153   151   am
   123     8     6   ar
   124   208   206    1
   125   216   214    1
   126   156   155    1
   127     7     6   ar
   128     6     5    1
   129    35    37   ar
   130   151   152    2
   131   151   150    1
   132   206   205    1
   133   137   135    1
   134   135   136    1
   135   155   158    1
   136   155   154    1
   137   183   181    1
   138     5     2    1
   139   158   159    1
   140   150   149    1
   141   205   202    1
   142    18    17    1
   143   182   184    1
   144   182   181    1
   145   181   178    1
   146   167   165    1
   147    17    19    1
   148    17    16    1
   149   202   203    1
   150   202   201    1
   151   204   203    2
   152     2     3    1
   153     2     1    1
   154   149   146    1
   155   200   198   am
   156   197   198    1
   157   197   196    1
   158     3     4    2
   159   180   179    2
   160   165   166    1
   161   165   164    1
   162   201   194   am
   163   178   179    1
   164   178   177    1
   165    16    13    1
   166   145   146    1
   167   179   185   am
   168   198   199    2
   169   195   194    2
   170   146   147    1
   171   194   193    1
   172   196   193    1
   173   175   174    2
   174   185   186    1
   175   190   189    1
   176   164   161    1
   177    26    25    1
   178   174   173    1
   179   174   176   am
   180   186   189    1
   181   186   187    1
   182   173   172    1
   183   163   162    2
   184   169   172    1
   185   169   168    1
   186   169   170    1
   187    27    25    1
   188   193   192    1
   189    13    12    1
   190    13    14    1
   191   168   162   am
   192   162   161    1
   193   171   170    2
   194   188   187    2
   195   189   191    1
   196   147   148    2
   197    25    24    1
   198   161   160    1
   199    14    15    2
   200    24    21    1
   201    21    20    1
   202    21    22    1
   203    22    23    2
