@<TRIPOS>MOLECULE
tmp/3rdhA00.pdb
 127 119 0 0 0
SMALL
GASTEIGER

@<TRIPOS>ATOM
      1  N        -76.5290   55.5380   11.7020 N.3    52  LYS52      -0.1245
      2  CA       -76.1560   56.6780   10.8640 C.3    52  LYS52       0.1561
      3  C        -74.6330   56.7660   10.8500 C.2    52  LYS52       0.2260
      4  O        -74.0100   56.9900    9.8090 O.2    52  LYS52      -0.2867
      5  CB       -76.7470   57.9670   11.4440 C.3    52  LYS52       0.0271
      6  CG       -76.3600   59.2660   10.7220 C.3    52  LYS52       0.0035
      7  CD       -74.8920   59.6320   10.9510 C.3    52  LYS52       0.0206
      8  CE       -74.4300   60.7690   10.0500 C.3    52  LYS52       0.1093
      9  NZ       -73.0070   60.5470    9.6440 N.3    52  LYS52      -0.1314
     10  N        -90.9480   58.2800    9.9010 N.3   120  PHE120     -0.1241
     11  CA       -89.5290   58.2330   10.2220 C.3   120  PHE120      0.1605
     12  C        -88.8210   56.9220    9.8350 C.2   120  PHE120      0.2264
     13  O        -87.6790   56.9400    9.3790 O.2   120  PHE120     -0.2867
     14  CB       -89.3390   58.5130   11.7090 C.3   120  PHE120      0.0534
     15  CG       -87.9170   58.4970   12.1350 C.ar  120  PHE120     -0.0203
     16  CD1      -87.3650   57.3630   12.7230 C.ar  120  PHE120     -0.0042
     17  CD2      -87.1080   59.5940   11.9050 C.ar  120  PHE120     -0.0042
     18  CE1      -86.0300   57.3260   13.0760 C.ar  120  PHE120     -0.0003
     19  CE2      -85.7620   59.5710   12.2530 C.ar  120  PHE120     -0.0003
     20  CZ       -85.2230   58.4320   12.8410 C.ar  120  PHE120     -0.0000
     21  N        -88.7760   56.5280    6.1220 N.3   123  LYS123     -0.1245
     22  CA       -87.7330   57.3560    5.5530 C.3   123  LYS123      0.1561
     23  C        -86.4040   56.6240    5.6360 C.2   123  LYS123      0.2260
     24  O        -85.6110   56.6450    4.6840 O.2   123  LYS123     -0.2867
     25  CB       -87.6450   58.7100    6.2440 C.3   123  LYS123      0.0271
     26  CG       -86.5510   59.6650    5.7030 C.3   123  LYS123      0.0035
     27  CD       -86.3700   60.8750    6.6930 C.3   123  LYS123      0.0206
     28  CE       -84.8990   61.1330    7.0360 C.3   123  LYS123      0.1093
     29  NZ       -84.6160   62.2760    7.9820 N.3   123  LYS123     -0.1314
     30  N        -83.6870   55.7080    2.8990 N.3   127  ASP127     -0.1239
     31  CA       -82.2430   55.9800    2.9730 C.3   127  ASP127      0.1674
     32  C        -81.3490   54.7310    2.8190 C.2   127  ASP127      0.2266
     33  O        -80.3490   54.7650    2.1020 O.2   127  ASP127     -0.2867
     34  CB       -81.8440   56.6400    4.3070 C.3   127  ASP127      0.1410
     35  CG       -82.3540   58.0730    4.4600 C.2   127  ASP127      0.3668
     36  OD1      -82.4670   58.8120    3.4520 O.co2 127  ASP127     -0.2456
     37  OD2      -82.6120   58.4640    5.6190 O.co2 127  ASP127     -0.2456
     38  N        -81.2630   53.2710   -0.5620 N.3   130  ARG130     -0.1231
     39  CA       -80.5020   54.2170   -1.3710 C.3   130  ARG130      0.1694
     40  C        -79.0360   53.9170   -1.2360 C.2   130  ARG130      0.2592
     41  O        -78.2910   54.0190   -2.2110 O.2   130  ARG130     -0.2718
     42  CB       -80.7830   55.6780   -0.9560 C.3   130  ARG130      0.0321
     43  CG       -79.7590   56.7060   -1.4750 C.3   130  ARG130      0.0489
     44  CD       -80.3210   58.1320   -1.5040 C.3   130  ARG130      0.2205
     45  NE       -80.7120   58.6350   -0.1860 N.pl3 130  ARG130     -0.0865
     46  CZ       -79.9310   59.3500    0.6190 C.cat 130  ARG130      0.5346
     47  NH1      -78.7000   59.6780    0.2610 N.pl3 130  ARG130      0.1354
     48  NH2      -80.3870   59.7100    1.8030 N.pl3 130  ARG130      0.1354
     49  N        -78.6140   53.5340   -0.0310 N.am  131  TYR131     -0.1976
     50  CA       -77.2010   53.2210    0.1990 C.3   131  TYR131      0.1639
     51  C        -76.8350   51.9680   -0.5620 C.2   131  TYR131      0.2290
     52  O        -75.7480   51.8650   -1.0950 O.2   131  TYR131     -0.2864
     53  CB       -76.9010   53.0420    1.6960 C.3   131  TYR131      0.0560
     54  CG       -77.2650   54.2560    2.5180 C.ar  131  TYR131     -0.0198
     55  CD1      -77.1560   55.5450    1.9760 C.ar  131  TYR131     -0.0009
     56  CD2      -77.7590   54.1230    3.8150 C.ar  131  TYR131     -0.0009
     57  CE1      -77.5370   56.6610    2.6980 C.ar  131  TYR131      0.0417
     58  CE2      -78.1410   55.2420    4.5510 C.ar  131  TYR131      0.0417
     59  CZ       -78.0300   56.5040    3.9860 C.ar  131  TYR131      0.1957
     60  OH       -78.4240   57.6030    4.6990 O.3   131  TYR131     -0.2866
     61  N        -89.9630   68.8420   11.7620 N.3   168  PRO168     -0.2102
     62  CA       -88.6170   68.3910   11.4040 C.3   168  PRO168      0.1504
     63  C        -88.5270   67.1130   10.5530 C.2   168  PRO168      0.2575
     64  O        -87.8020   67.0710    9.5590 O.2   168  PRO168     -0.2718
     65  CB       -87.9520   68.2210   12.7650 C.3   168  PRO168      0.0282
     66  CG       -88.5540   69.3250   13.5490 C.3   168  PRO168      0.0208
     67  CD       -90.0160   69.2340   13.1820 C.3   168  PRO168      0.0893
     68  N        -89.2560   66.0710   10.9390 N.am  169  ILE169     -0.1980
     69  CA       -89.1800   64.8260   10.1930 C.3   169  ILE169      0.1595
     70  C        -89.7420   64.9350    8.7830 C.2   169  ILE169      0.2287
     71  O        -89.1430   64.4150    7.8330 O.2   169  ILE169     -0.2864
     72  CB       -89.8730   63.6950   10.9450 C.3   169  ILE169      0.0276
     73  CG1      -89.1980   63.5070   12.3090 C.3   169  ILE169      0.0022
     74  CG2      -89.7740   62.4030   10.1380 C.3   169  ILE169      0.0022
     75  CD1      -89.9040   62.5130   13.2050 C.3   169  ILE169      0.0001
     76  N        -87.3730   66.6900    6.9020 N.3   172  GLY172     -0.1225
     77  CA       -86.2320   65.8060    6.7320 C.3   172  GLY172      0.1811
     78  C        -86.5010   64.7760    5.6540 C.2   172  GLY172      0.2280
     79  O        -85.5960   64.3680    4.9220 O.2   172  GLY172     -0.2866
     80  N        -86.0640   66.4980    2.4540 N.3   175  LEU175     -0.1231
     81  CA       -84.6440   66.7130    2.2100 C.3   175  LEU175      0.1693
     82  C        -83.9750   65.5090    1.5520 C.2   175  LEU175      0.2592
     83  O        -83.2640   65.6550    0.5700 O.2   175  LEU175     -0.2718
     84  CB       -83.9220   67.0250    3.5220 C.3   175  LEU175      0.0284
     85  CG       -82.3960   66.9110    3.4960 C.3   175  LEU175      0.0019
     86  CD1      -81.7850   67.9820    2.6010 C.3   175  LEU175      0.0001
     87  CD2      -81.8790   67.0480    4.9090 C.3   175  LEU175      0.0001
     88  N        -84.1940   64.3210    2.1010 N.am  176  ASN176     -0.1974
     89  CA       -83.5690   63.1290    1.5490 C.3   176  ASN176      0.1688
     90  C        -84.2930   62.5480    0.3310 C.2   176  ASN176      0.2292
     91  O        -83.6720   61.8790   -0.4910 O.2   176  ASN176     -0.2864
     92  CB       -83.4300   62.0550    2.6330 C.3   176  ASN176      0.1181
     93  CG       -82.4560   62.4520    3.7350 C.2   176  ASN176      0.2629
     94  OD1      -81.9170   63.5630    3.7480 O.2   176  ASN176     -0.2716
     95  ND2      -82.2300   61.5420    4.6680 N.am  176  ASN176     -0.0877
     96  N        -84.9970   73.4540   14.7740 N.3   216  ASP216     -0.1239
     97  CA       -84.7960   72.2410   13.9940 C.3   216  ASP216      0.1674
     98  C        -85.3880   72.3760   12.6060 C.2   216  ASP216      0.2266
     99  O        -84.7670   71.9940   11.6090 O.2   216  ASP216     -0.2867
    100  CB       -85.4410   71.0680   14.7150 C.3   216  ASP216      0.1410
    101  CG       -85.0520   71.0160   16.1700 C.2   216  ASP216      0.3668
    102  OD1      -83.8430   70.8820   16.4440 O.co2 216  ASP216     -0.2456
    103  OD2      -85.9490   71.1230   17.0340 O.co2 216  ASP216     -0.2456
    104  N        -83.3650   74.7520   10.6780 N.3   219  LEU219     -0.1231
    105  CA       -82.0800   74.1020   10.5000 C.3   219  LEU219      0.1693
    106  C        -82.1600   73.2180    9.2550 C.2   219  LEU219      0.2591
    107  O        -81.3270   73.3200    8.3520 O.2   219  LEU219     -0.2718
    108  CB       -81.7530   73.2740   11.7440 C.3   219  LEU219      0.0284
    109  CG       -80.2850   72.9270   11.9980 C.3   219  LEU219      0.0019
    110  CD1      -79.3820   74.1260   11.6780 C.3   219  LEU219      0.0001
    111  CD2      -80.1360   72.4880   13.4490 C.3   219  LEU219      0.0001
    112  N        -83.1760   72.3650    9.1970 N.am  220  ILE220     -0.1980
    113  CA       -83.3570   71.5040    8.0340 C.3   220  ILE220      0.1595
    114  C        -83.7310   72.3630    6.8290 C.2   220  ILE220      0.2287
    115  O        -83.3320   72.0790    5.7030 O.2   220  ILE220     -0.2864
    116  CB       -84.4670   70.4680    8.2690 C.3   220  ILE220      0.0276
    117  CG1      -84.0280   69.4750    9.3410 C.3   220  ILE220      0.0022
    118  CG2      -84.7840   69.7450    6.9740 C.3   220  ILE220      0.0022
    119  CD1      -85.1250   68.5470    9.7660 C.3   220  ILE220      0.0001
    120  N        -80.7680   73.4720    5.1420 N.3   223  LEU223     -0.1245
    121  CA       -80.1570   72.3870    4.3780 C.3   223  LEU223      0.1561
    122  C        -80.9320   72.2090    3.0750 C.2   223  LEU223      0.2260
    123  O        -80.3470   71.9040    2.0360 O.2   223  LEU223     -0.2867
    124  CB       -80.1790   71.0860    5.1850 C.3   223  LEU223      0.0270
    125  CG       -79.4540   71.1090    6.5320 C.3   223  LEU223      0.0019
    126  CD1      -79.7050   69.8130    7.2720 C.3   223  LEU223      0.0001
    127  CD2      -77.9660   71.3240    6.3100 C.3   223  LEU223      0.0001
@<TRIPOS>BOND
     1    41    40    2
     2    44    43    1
     3    44    45    1
     4    43    42    1
     5    39    40    1
     6    39    42    1
     7    39    38    1
     8    40    49   am
     9    52    51    2
    10    51    50    1
    11    91    90    2
    12    45    46    2
    13    49    50    1
    14    50    53    1
    15    47    46    1
    16    90    89    1
    17    83    82    2
    18    46    48    1
    19    89    88    1
    20    89    92    1
    21    82    88   am
    22    82    81    1
    23    53    54    1
    24    55    54   ar
    25    55    57   ar
    26   123   122    2
    27    33    32    2
    28    81    80    1
    29    81    84    1
    30    54    56   ar
    31    86    85    1
    32    92    93    1
    33    57    59   ar
    34    32    31    1
    35    30    31    1
    36    31    34    1
    37   122   121    1
    38    36    35   ar
    39    85    84    1
    40    85    87    1
    41    93    94    2
    42    93    95   am
    43    56    58   ar
    44    59    58   ar
    45    59    60    1
    46    34    35    1
    47   121   120    1
    48   121   124    1
    49    35    37   ar
    50    24    23    2
    51    79    78    2
    52   124   125    1
    53    22    23    1
    54    22    21    1
    55    22    25    1
    56    78    77    1
    57   115   114    2
    58    26    25    1
    59    26    27    1
    60   127   125    1
    61   125   126    1
    62    27    28    1
    63    77    76    1
    64   114   113    1
    65   118   116    1
    66    28    29    1
    67    71    70    2
    68   113   116    1
    69   113   112    1
    70   116   117    1
    71   107   106    2
    72    70    69    1
    73   112   106   am
    74   106   105    1
    75   117   119    1
    76    13    12    2
    77    64    63    2
    78     9     8    1
    79     4     3    2
    80    12    11    1
    81    10    11    1
    82     8     7    1
    83    74    72    1
    84    69    68    1
    85    69    72    1
    86    11    14    1
    87   105   104    1
    88   105   108    1
    89    63    68   am
    90    63    62    1
    91     6     7    1
    92     6     5    1
    93     3     2    1
    94     2     5    1
    95     2     1    1
    96    72    73    1
    97    62    61    1
    98    62    65    1
    99    99    98    2
   100   110   109    1
   101    14    15    1
   102   108   109    1
   103    61    67    1
   104    17    15   ar
   105    17    19   ar
   106   109   111    1
   107    15    16   ar
   108    19    20   ar
   109    73    75    1
   110    98    97    1
   111    16    18   ar
   112    65    66    1
   113    20    18   ar
   114    67    66    1
   115    97   100    1
   116    97    96    1
   117   100   101    1
   118   101   102   ar
   119   101   103   ar
