@<TRIPOS>MOLECULE
tmp/3rdkB01.pdb
 136 133 0 0 0
SMALL
GASTEIGER

@<TRIPOS>ATOM
      1  N         16.8800   38.6680    7.4540 N.3    41  GLY41      -0.1210
      2  CA        16.0230   39.8190    7.8850 C.3    41  GLY41       0.1956
      3  C         16.5940   41.1350    7.6040 C.2    41  GLY41       0.2611
      4  O         15.8720   42.0660    7.2740 O.2    41  GLY41      -0.2717
      5  N         17.9380   41.2340    7.6380 N.am   42  ASN42      -0.1974
      6  CA        18.5650   42.5320    7.4120 C.3    42  ASN42       0.1688
      7  C         19.9160   42.4530    6.6250 C.2    42  ASN42       0.2292
      8  O         20.3020   43.4470    6.0740 O.2    42  ASN42      -0.2864
      9  CB        18.9130   43.2190    8.7570 C.3    42  ASN42       0.1181
     10  CG        17.6480   43.6220    9.4570 C.2    42  ASN42       0.2629
     11  OD1       16.9360   44.5280    8.9450 O.2    42  ASN42      -0.2716
     12  ND2       17.3560   43.0100   10.6100 N.am   42  ASN42      -0.0877
     13  N         20.1620   43.7710    2.7910 N.3    45  LYS45      -0.1245
     14  CA        19.5950   45.0710    2.3810 C.3    45  LYS45       0.1561
     15  C         20.6580   46.0360    1.8780 C.2    45  LYS45       0.2260
     16  O         21.8840   45.7950    2.0450 O.2    45  LYS45      -0.2867
     17  CB        18.8800   45.6290    3.5880 C.3    45  LYS45       0.0271
     18  CG        17.6100   44.8670    3.9090 C.3    45  LYS45       0.0035
     19  CD        16.8690   45.3620    5.1840 C.3    45  LYS45       0.0206
     20  CE        15.6320   44.4880    5.3710 C.3    45  LYS45       0.1093
     21  NZ        15.0320   44.6780    6.7300 N.3    45  LYS45      -0.1314
     22  N         16.9620   39.1580   -0.2280 N.3    78  HIS78      -0.1241
     23  CA        16.0390   40.2680    0.1590 C.3    78  HIS78       0.1621
     24  C         17.0360   41.3690    0.6170 C.2    78  HIS78       0.2264
     25  O         17.7830   41.1400    1.5840 O.2    78  HIS78      -0.2867
     26  CB        15.1940   39.7950    1.3290 C.3    78  HIS78       0.0745
     27  CG        14.3260   40.8610    1.8790 C.ar   78  HIS78       0.0817
     28  ND1       13.1570   41.2980    1.2760 N.ar   78  HIS78      -0.2268
     29  CD2       14.4300   41.5280    3.0570 C.ar   78  HIS78       0.1154
     30  CE1       12.6010   42.2280    2.0670 C.ar   78  HIS78       0.1986
     31  NE2       13.3630   42.3970    3.1400 N.ar   78  HIS78      -0.2212
     32  N         14.9080   49.5340   -2.1530 N.3    82  TRP82      -0.1241
     33  CA        13.8560   49.8590   -1.1390 C.3    82  TRP82       0.1605
     34  C         14.1150   51.2820   -0.6920 C.2    82  TRP82       0.2264
     35  O         15.2020   51.8330   -0.8570 O.2    82  TRP82      -0.2867
     36  CB        13.9840   48.9090    0.0470 C.3    82  TRP82       0.0550
     37  CG        12.8840   48.9180    1.0470 C.ar   82  TRP82       0.0003
     38  CD1       11.5060   49.2700    0.8350 C.ar   82  TRP82       0.0946
     39  CD2       12.9670   48.4610    2.4220 C.ar   82  TRP82       0.0152
     40  NE1       10.8300   49.0870    2.0020 N.ar   82  TRP82      -0.2442
     41  CE2       11.6920   48.6240    2.9840 C.ar   82  TRP82       0.0810
     42  CE3       14.0090   47.9140    3.2350 C.ar   82  TRP82       0.0012
     43  CZ2       11.3950   48.2590    4.3450 C.ar   82  TRP82       0.0191
     44  CZ3       13.7060   47.5990    4.5790 C.ar   82  TRP82       0.0001
     45  CH2       12.3880   47.7820    5.1120 C.ar   82  TRP82       0.0015
     46  N         13.6880   52.1710    2.5290 N.3    84  GLN84      -0.1231
     47  CA        14.2170   52.1270    3.9220 C.3    84  GLN84       0.1698
     48  C         15.5210   51.2770    3.9030 C.2    84  GLN84       0.2592
     49  O         15.7810   50.5110    2.9780 O.2    84  GLN84      -0.2718
     50  CB        13.1960   51.4390    4.8220 C.3    84  GLN84       0.0381
     51  CG        11.8660   52.3510    4.8840 C.3    84  GLN84       0.0905
     52  CD        10.8820   51.8280    5.8690 C.2    84  GLN84       0.2608
     53  OE1       11.1780   50.9450    6.6840 O.2    84  GLN84      -0.2717
     54  NE2        9.6650   52.3620    5.8060 N.am   84  GLN84      -0.0878
     55  N         16.3110   51.4090    4.9580 N.am   85  GLN85      -0.1979
     56  CA        17.5630   50.6820    5.1040 C.3    85  GLN85       0.1601
     57  C         18.3470   50.7320    3.7950 C.2    85  GLN85       0.2287
     58  O         18.8840   49.7530    3.3300 O.2    85  GLN85      -0.2864
     59  CB        17.3230   49.2500    5.6170 C.3    85  GLN85       0.0394
     60  CG        16.8340   49.2850    7.0790 C.3    85  GLN85       0.0908
     61  CD        16.4560   47.9360    7.6010 C.2    85  GLN85       0.2608
     62  OE1       15.3170   47.4830    7.4830 O.2    85  GLN85      -0.2717
     63  NE2       17.4240   47.2550    8.1850 N.am   85  GLN85      -0.0878
     64  N         10.9830   46.5260   -3.4530 N.3   134  ASN134     -0.1225
     65  CA        10.1600   46.3250   -2.2340 C.3   134  ASN134      0.1785
     66  C          9.2960   47.5680   -2.0300 C.2   134  ASN134      0.2597
     67  O          9.8290   48.6740   -2.0880 O.2   134  ASN134     -0.2718
     68  CB        11.1100   46.1640   -1.0290 C.3   134  ASN134      0.1169
     69  CG        10.5070   45.4150    0.1250 C.2   134  ASN134      0.2627
     70  OD1        9.6720   44.5110   -0.0750 O.2   134  ASN134     -0.2716
     71  ND2       10.9390   45.7290    1.3460 N.am  134  ASN134     -0.0877
     72  N          7.9640   47.3820   -1.8320 N.am  135  GLU135     -0.1979
     73  CA         7.1860   48.5360   -1.2560 C.3   135  GLU135      0.1602
     74  C          7.2200   49.7990   -2.0670 C.2   135  GLU135      0.2287
     75  O          7.4520   50.9420   -1.5700 O.2   135  GLU135     -0.2864
     76  CB         7.5840   48.7290    0.2360 C.3   135  GLU135      0.0415
     77  CG         7.4600   47.5080    1.0060 C.3   135  GLU135      0.1163
     78  CD         7.7210   47.7050    2.5380 C.2   135  GLU135      0.3649
     79  OE1        8.0890   48.8370    2.9640 O.co2 135  GLU135     -0.2457
     80  OE2        7.5030   46.7110    3.2440 O.co2 135  GLU135     -0.2457
     81  N          3.3870   40.2700    1.3430 N.3   229  GLN229     -0.1245
     82  CA         4.1590   40.1980    2.6250 C.3   229  GLN229      0.1566
     83  C          3.4120   39.5080    3.7480 C.2   229  GLN229      0.2260
     84  O          4.0120   38.8010    4.6070 O.2   229  GLN229     -0.2867
     85  CB         4.6300   41.5810    3.0550 C.3   229  GLN229      0.0367
     86  CG         5.8490   42.0780    2.2590 C.3   229  GLN229      0.0905
     87  CD         6.2630   43.4540    2.6780 C.2   229  GLN229      0.2608
     88  OE1        5.9470   43.9220    3.8280 O.2   229  GLN229     -0.2717
     89  NE2        7.0600   44.0970    1.8630 N.am  229  GLN229     -0.0878
     90  N          1.8740   40.9480    6.4140 N.3   231  HIS231     -0.1241
     91  CA         1.9810   41.5710    7.7540 C.3   231  HIS231      0.1621
     92  C          0.5380   41.9140    8.1700 C.2   231  HIS231      0.2264
     93  O          0.0560   43.0150    7.9890 O.2   231  HIS231     -0.2867
     94  CB         2.8680   42.7640    7.7140 C.3   231  HIS231      0.0745
     95  CG         4.3460   42.3960    7.5960 C.ar  231  HIS231      0.0817
     96  ND1        4.9710   41.5900    8.5250 N.ar  231  HIS231     -0.2268
     97  CD2        5.2760   42.7740    6.7120 C.ar  231  HIS231      0.1154
     98  CE1        6.2430   41.4060    8.1300 C.ar  231  HIS231      0.1986
     99  NE2        6.4550   42.1500    7.0660 N.ar  231  HIS231     -0.2212
    100  N          6.4530   37.4710    4.2520 N.3   259  GLU259     -0.1245
    101  CA         6.8310   37.9870    5.5960 C.3   259  GLU259      0.1567
    102  C          5.6640   37.7810    6.5430 C.2   259  GLU259      0.2260
    103  O          5.3290   38.7100    7.3080 O.2   259  GLU259     -0.2867
    104  CB         7.1960   39.4440    5.4880 C.3   259  GLU259      0.0388
    105  CG         8.2630   39.7560    4.3600 C.3   259  GLU259      0.1160
    106  CD         8.7220   41.1690    4.3260 C.2   259  GLU259      0.3649
    107  OE1        8.4860   41.9920    5.3290 O.co2 259  GLU259     -0.2457
    108  OE2        9.4340   41.5950    3.3260 O.co2 259  GLU259     -0.2457
    109  N          7.7230   35.6900    9.2070 N.3   302  TRP302     -0.1241
    110  CA         8.7140   36.7530    9.4440 C.3   302  TRP302      0.1605
    111  C          9.2940   36.6420   10.8790 C.2   302  TRP302      0.2264
    112  O          9.0640   37.5360   11.7300 O.2   302  TRP302     -0.2867
    113  CB         8.1670   38.1810    9.1350 C.3   302  TRP302      0.0550
    114  CG         9.2820   39.1580    8.8490 C.ar  302  TRP302      0.0003
    115  CD1        9.6120   40.2930    9.5410 C.ar  302  TRP302      0.0946
    116  CD2       10.2420   39.0620    7.7380 C.ar  302  TRP302      0.0152
    117  NE1       10.7210   40.9170    8.9630 N.ar  302  TRP302     -0.2442
    118  CE2       11.1000   40.1970    7.8290 C.ar  302  TRP302      0.0810
    119  CE3       10.3800   38.1570    6.6420 C.ar  302  TRP302      0.0012
    120  CZ2       12.1940   40.4360    6.9070 C.ar  302  TRP302      0.0191
    121  CZ3       11.4490   38.4150    5.7060 C.ar  302  TRP302      0.0001
    122  CH2       12.3050   39.5650    5.8430 C.ar  302  TRP302      0.0015
    123  N         10.3000   41.3440   14.8070 N.3   310  TRP310     -0.1241
    124  CA        10.4010   42.7970   14.6750 C.3   310  TRP310      0.1605
    125  C          9.2420   43.5490   15.3790 C.2   310  TRP310      0.2264
    126  O          9.2820   44.7530   15.5810 O.2   310  TRP310     -0.2867
    127  CB        10.4910   43.1520   13.1580 C.3   310  TRP310      0.0550
    128  CG         9.1810   43.0430   12.4210 C.ar  310  TRP310      0.0003
    129  CD1        8.3350   41.9650   12.3920 C.ar  310  TRP310      0.0946
    130  CD2        8.6280   44.0510   11.6120 C.ar  310  TRP310      0.0152
    131  NE1        7.2640   42.2500   11.5110 N.ar  310  TRP310     -0.2442
    132  CE2        7.4070   43.5160   11.0430 C.ar  310  TRP310      0.0810
    133  CE3        9.0460   45.3470   11.2680 C.ar  310  TRP310      0.0012
    134  CZ2        6.5990   44.2480   10.1610 C.ar  310  TRP310      0.0191
    135  CZ3        8.2100   46.0960   10.3720 C.ar  310  TRP310      0.0001
    136  CH2        7.0310   45.5210    9.8430 C.ar  310  TRP310      0.0015
@<TRIPOS>BOND
     1    64    65    1
     2    65    66    1
     3    65    68    1
     4    32    33    1
     5    67    66    2
     6    74    75    2
     7    74    73    1
     8    66    72   am
     9    72    73    1
    10    73    76    1
    11    33    34    1
    12    33    36    1
    13    68    69    1
    14    35    34    2
    15    22    23    1
    16    70    69    2
    17    36    37    1
    18    69    71   am
    19    23    24    1
    20    23    26    1
    21    76    77    1
    22    24    25    2
    23    38    37   ar
    24    38    40   ar
    25    77    78    1
    26    37    39   ar
    27    28    27   ar
    28    28    30   ar
    29    26    27    1
    30    81    82    1
    31    89    87   am
    32    15    16    2
    33    15    14    1
    34    27    29   ar
    35    40    41   ar
    36    30    31   ar
    37    86    87    1
    38    86    85    1
    39    14    13    1
    40    14    17    1
    41    39    41   ar
    42    39    42   ar
    43    46    47    1
    44    78    79   ar
    45    78    80   ar
    46    82    85    1
    47    82    83    1
    48    87    88    2
    49    49    48    2
    50    41    43   ar
    51    29    31   ar
    52    42    44   ar
    53   108   106   ar
    54    58    57    2
    55    17    18    1
    56    83    84    2
    57    57    56    1
    58    48    47    1
    59    48    55   am
    60    18    19    1
    61    47    50    1
    62   100   101    1
    63   106   105    1
    64   106   107   ar
    65    43    45   ar
    66   105   104    1
    67    44    45   ar
    68    50    51    1
    69    51    52    1
    70    55    56    1
    71    56    59    1
    72    19    20    1
    73    20    21    1
    74   104   101    1
    75   101   102    1
    76    59    60    1
    77   121   122   ar
    78   121   119   ar
    79    54    52   am
    80   122   120   ar
    81    52    53    2
    82     8     7    2
    83    90    91    1
    84   102   103    2
    85     7     6    1
    86   119   116   ar
    87    97    99   ar
    88    97    95   ar
    89   120   118   ar
    90    99    98   ar
    91    60    61    1
    92     4     3    2
    93     6     5    1
    94     6     9    1
    95     1     2    1
    96    62    61    2
    97    95    94    1
    98    95    96   ar
    99    61    63   am
   100     3     5   am
   101     3     2    1
   102    94    91    1
   103   116   118   ar
   104   116   114   ar
   105    91    92    1
   106   118   117   ar
   107    93    92    2
   108    98    96   ar
   109     9    10    1
   110   114   113    1
   111   114   115   ar
   112    11    10    2
   113   117   115   ar
   114   113   110    1
   115   109   110    1
   116   110   111    1
   117    10    12   am
   118   136   134   ar
   119   136   135   ar
   120   134   132   ar
   121   135   133   ar
   122   111   112    2
   123   132   131   ar
   124   132   130   ar
   125   133   130   ar
   126   131   129   ar
   127   130   128   ar
   128   129   128   ar
   129   128   127    1
   130   127   124    1
   131   124   123    1
   132   124   125    1
   133   125   126    2
