@<TRIPOS>MOLECULE
tmp/3rdoA00.pdb
 145 134 0 0 0
SMALL
GASTEIGER

@<TRIPOS>ATOM
      1  N        -32.4830   -9.4710    4.8070 N.3    17  ASN17      -0.1240
      2  CA       -33.2020  -10.7100    4.5090 C.3    17  ASN17       0.1653
      3  C        -34.4830  -10.8570    5.3210 C.2    17  ASN17       0.2266
      4  O        -34.8590   -9.9760    6.0990 O.2    17  ASN17      -0.2867
      5  CB       -32.2900  -11.9630    4.5490 C.3    17  ASN17       0.1155
      6  CG       -31.9250  -12.3920    5.9660 C.2    17  ASN17       0.2627
      7  OD1      -32.4940  -11.9140    6.9510 O.2    17  ASN17      -0.2716
      8  ND2      -30.9970  -13.3370    6.0680 N.am   17  ASN17      -0.0877
      9  N        -35.2040  -12.7160    7.7170 N.3    19  LEU19      -0.1245
     10  CA       -34.9920  -12.9600    9.1480 C.3    19  LEU19       0.1561
     11  C        -34.6960  -11.6860    9.9100 C.2    19  LEU19       0.2260
     12  O        -34.6210  -11.7090   11.1420 O.2    19  LEU19      -0.2867
     13  CB       -33.8230  -13.9230    9.3560 C.3    19  LEU19       0.0270
     14  CG       -33.9580  -15.3120    8.7420 C.3    19  LEU19       0.0019
     15  CD1      -32.6690  -16.1110    8.9030 C.3    19  LEU19       0.0001
     16  CD2      -35.1350  -16.0740    9.3190 C.3    19  LEU19       0.0001
     17  N        -31.8340   -9.9670    9.1310 N.3    21  SER21      -0.1217
     18  CA       -30.3890   -9.7800    9.0530 C.3    21  SER21       0.1889
     19  C        -29.9960   -8.7040    8.0460 C.2    21  SER21       0.2288
     20  O        -30.7490   -8.4120    7.1190 O.2    21  SER21      -0.2866
     21  CB       -29.7100  -11.0970    8.6920 C.3    21  SER21       0.2089
     22  OG       -30.0230  -12.0610    9.6780 O.3    21  SER21      -0.2183
     23  N        -21.6360   -8.6340    7.7200 N.3    37  TYR37      -0.1241
     24  CA       -22.9320   -9.2690    7.8850 C.3    37  TYR37       0.1605
     25  C        -23.3040   -9.2180    9.3550 C.2    37  TYR37       0.2264
     26  O        -22.4610   -9.4550   10.2360 O.2    37  TYR37      -0.2867
     27  CB       -22.8520  -10.7280    7.4370 C.3    37  TYR37       0.0534
     28  CG       -24.1920  -11.3590    7.1360 C.ar   37  TYR37      -0.0201
     29  CD1      -24.9840  -11.9170    8.1540 C.ar   37  TYR37      -0.0009
     30  CD2      -24.6750  -11.4100    5.8210 C.ar   37  TYR37      -0.0009
     31  CE1      -26.2360  -12.4900    7.8750 C.ar   37  TYR37       0.0417
     32  CE2      -25.9220  -11.9830    5.5350 C.ar   37  TYR37       0.0417
     33  CZ       -26.6860  -12.5220    6.5590 C.ar   37  TYR37       0.1957
     34  OH       -27.8940  -13.0990    6.2590 O.3    37  TYR37      -0.2866
     35  N        -26.2830  -10.9050   11.7520 N.3    39  SER39      -0.1217
     36  CA       -27.4030  -11.8480   11.7870 C.3    39  SER39       0.1889
     37  C        -28.3840  -11.4890   12.8890 C.2    39  SER39       0.2288
     38  O        -27.9850  -11.2190   14.0190 O.2    39  SER39      -0.2866
     39  CB       -26.9180  -13.2910   11.9800 C.3    39  SER39       0.2089
     40  OG       -28.0430  -14.1630   12.0600 O.3    39  SER39      -0.2183
     41  N        -30.4540  -13.6890   14.0100 N.3    41  VAL41      -0.1231
     42  CA       -30.7420  -14.9500   14.6930 C.3    41  VAL41       0.1692
     43  C        -29.4540  -15.7260   14.9510 C.2    41  VAL41       0.2593
     44  O        -28.4090  -15.4370   14.3720 O.2    41  VAL41      -0.2718
     45  CB       -31.7270  -15.8570   13.8910 C.3    41  VAL41       0.0266
     46  CG1      -33.0570  -15.1560   13.6360 C.3    41  VAL41       0.0020
     47  CG2      -31.0960  -16.3180   12.5750 C.3    41  VAL41       0.0020
     48  N        -29.5430  -16.7170   15.8270 N.am   42  GLY42      -0.1942
     49  CA       -28.4200  -17.6110   16.0370 C.3    42  GLY42       0.2014
     50  C        -27.3870  -17.0690   17.0030 C.2    42  GLY42       0.2639
     51  O        -27.6250  -16.0800   17.7100 O.2    42  GLY42      -0.2714
     52  N        -26.2370  -17.7380   17.0320 N.am   43  ASN43      -0.1958
     53  CA       -25.1760  -17.4200   17.9900 C.3    43  ASN43       0.1819
     54  C        -24.2640  -16.3620   17.3790 C.2    43  ASN43       0.2621
     55  O        -23.1700  -16.6620   16.8720 O.2    43  ASN43      -0.2715
     56  CB       -24.4050  -18.6910   18.3540 C.3    43  ASN43       0.1195
     57  CG       -23.3990  -18.4700   19.4590 C.2    43  ASN43       0.2630
     58  OD1      -23.3950  -17.4300   20.1110 O.2    43  ASN43      -0.2716
     59  ND2      -22.5380  -19.4650   19.6810 N.am   43  ASN43      -0.0877
     60  N        -24.7550  -15.1260   17.3980 N.am   44  ALA44      -0.1977
     61  CA       -24.1900  -14.0280   16.6290 C.3    44  ALA44       0.1597
     62  C        -24.5210  -12.7210   17.3090 C.2    44  ALA44       0.2287
     63  O        -25.6410  -12.5160   17.7880 O.2    44  ALA44      -0.2864
     64  CB       -24.7440  -14.0350   15.2130 C.3    44  ALA44       0.0319
     65  N        -18.2790  -17.2670   11.6240 N.3    73  TRP73      -0.1241
     66  CA       -19.0010  -16.6380   12.7350 C.3    73  TRP73       0.1605
     67  C        -18.1230  -16.4110   13.9670 C.2    73  TRP73       0.2264
     68  O        -18.4680  -16.7830   15.1030 O.2    73  TRP73      -0.2867
     69  CB       -20.2630  -17.4360   13.0500 C.3    73  TRP73       0.0550
     70  CG       -21.2280  -17.4290   11.9180 C.ar   73  TRP73       0.0003
     71  CD1      -21.5030  -18.4610   11.0660 C.ar   73  TRP73       0.0946
     72  CD2      -22.0780  -16.3400   11.5220 C.ar   73  TRP73       0.0152
     73  NE1      -22.4690  -18.0850   10.1500 N.ar   73  TRP73      -0.2442
     74  CE2      -22.8230  -16.7790   10.3930 C.ar   73  TRP73       0.0810
     75  CE3      -22.2680  -15.0250   11.9980 C.ar   73  TRP73       0.0012
     76  CZ2      -23.7720  -15.9550    9.7510 C.ar   73  TRP73       0.0191
     77  CZ3      -23.2060  -14.2090   11.3620 C.ar   73  TRP73       0.0001
     78  CH2      -23.9380  -14.6790   10.2370 C.ar   73  TRP73       0.0015
     79  N        -18.9390  -18.8040   17.2490 N.3    80  ALA80      -0.1245
     80  CA       -19.8890  -19.9050   17.1500 C.3    80  ALA80       0.1562
     81  C        -19.2650  -21.1830   16.5710 C.2    80  ALA80       0.2260
     82  O        -19.9360  -22.2180   16.5050 O.2    80  ALA80      -0.2867
     83  CB       -21.0860  -19.4850   16.3290 C.3    80  ALA80       0.0290
     84  N        -18.5000  -21.8830   13.4730 N.3    82  SER82      -0.1217
     85  CA       -19.3440  -22.1970   12.3310 C.3    82  SER82       0.1889
     86  C        -19.0660  -21.1920   11.2290 C.2    82  SER82       0.2288
     87  O        -18.4810  -20.1320   11.4720 O.2    82  SER82      -0.2866
     88  CB       -20.8240  -22.1670   12.7210 C.3    82  SER82       0.2089
     89  OG       -21.1930  -20.8600   13.1080 O.3    82  SER82      -0.2183
     90  N        -20.9370  -19.8800    7.2970 N.3    84  SER84      -0.1217
     91  CA       -22.0480  -19.9930    6.3520 C.3    84  SER84       0.1889
     92  C        -21.6390  -19.4950    4.9850 C.2    84  SER84       0.2288
     93  O        -20.8990  -18.5110    4.8660 O.2    84  SER84      -0.2866
     94  CB       -23.2360  -19.1660    6.8310 C.3    84  SER84       0.2089
     95  OG       -23.6540  -19.6110    8.1060 O.3    84  SER84      -0.2183
     96  N        -23.4730  -18.4220    1.3210 N.3    86  TRP86      -0.1241
     97  CA       -24.6840  -18.1220    0.5480 C.3    86  TRP86       0.1605
     98  C        -24.3460  -18.1980   -0.9240 C.2    86  TRP86       0.2264
     99  O        -23.3910  -17.5640   -1.3690 O.2    86  TRP86      -0.2867
    100  CB       -25.1740  -16.6970    0.8300 C.3    86  TRP86       0.0550
    101  CG       -25.7720  -16.4520    2.1890 C.ar   86  TRP86       0.0003
    102  CD1      -27.1000  -16.3200    2.4650 C.ar   86  TRP86       0.0946
    103  CD2      -25.0720  -16.2180    3.4300 C.ar   86  TRP86       0.0152
    104  NE1      -27.2790  -16.0440    3.8030 N.ar   86  TRP86      -0.2442
    105  CE2      -26.0530  -15.9610    4.4150 C.ar   86  TRP86       0.0810
    106  CE3      -23.7120  -16.2050    3.8010 C.ar   86  TRP86       0.0012
    107  CZ2      -25.7220  -15.6920    5.7420 C.ar   86  TRP86       0.0191
    108  CZ3      -23.3840  -15.9280    5.1240 C.ar   86  TRP86       0.0001
    109  CH2      -24.3880  -15.6750    6.0730 C.ar   86  TRP86       0.0015
    110  N        -28.3150  -21.2610    1.4560 N.3   102  VAL102     -0.1245
    111  CA       -27.2140  -21.0230    2.3940 C.3   102  VAL102      0.1561
    112  C        -26.9050  -22.2760    3.1750 C.2   102  VAL102      0.2260
    113  O        -27.8210  -22.9240    3.6890 O.2   102  VAL102     -0.2867
    114  CB       -27.4990  -19.8020    3.3160 C.3   102  VAL102      0.0252
    115  CG1      -28.8640  -19.8860    4.0000 C.3   102  VAL102      0.0019
    116  CG2      -26.3740  -19.6040    4.3500 C.3   102  VAL102      0.0019
    117  N        -24.7480  -23.7300    6.3920 N.3   104  THR104     -0.1218
    118  CA       -24.0910  -23.3110    7.6370 C.3   104  THR104      0.1862
    119  C        -23.4490  -24.5430    8.2550 C.2   104  THR104      0.2287
    120  O        -24.1520  -25.4410    8.7260 O.2   104  THR104     -0.2866
    121  CB       -25.0930  -22.6740    8.6200 C.3   104  THR104      0.1770
    122  OG1      -25.6710  -21.5130    8.0160 O.3   104  THR104     -0.2211
    123  CG2      -24.4300  -22.2810    9.9220 C.3   104  THR104      0.0375
    124  N        -21.0760  -26.2550   11.0830 N.3   106  SER106     -0.1217
    125  CA       -20.4660  -26.1440   12.4110 C.3   106  SER106      0.1889
    126  C        -19.3010  -27.1130   12.5030 C.2   106  SER106      0.2288
    127  O        -19.3630  -28.2080   11.9540 O.2   106  SER106     -0.2866
    128  CB       -21.4830  -26.5000   13.4910 C.3   106  SER106      0.2089
    129  OG       -22.5480  -25.5740   13.4710 O.3   106  SER106     -0.2183
    130  N        -26.3620  -27.1910    8.1580 N.3   118  LEU118     -0.1245
    131  CA       -27.7230  -26.7400    7.8430 C.3   118  LEU118      0.1561
    132  C        -27.8030  -26.2930    6.3980 C.2   118  LEU118      0.2260
    133  O        -26.8360  -25.7510    5.8490 O.2   118  LEU118     -0.2867
    134  CB       -28.1220  -25.5350    8.6910 C.3   118  LEU118      0.0270
    135  CG       -28.2450  -25.7460   10.1830 C.3   118  LEU118      0.0019
    136  CD1      -28.3890  -24.3650   10.7790 C.3   118  LEU118      0.0001
    137  CD2      -29.4320  -26.6540   10.5280 C.3   118  LEU118      0.0001
    138  N        -32.2810  -17.7500    1.9460 N.3   122  ASP122     -0.1239
    139  CA       -32.4440  -16.3510    2.3260 C.3   122  ASP122      0.1674
    140  C        -32.6990  -15.5080    1.0910 C.2   122  ASP122      0.2266
    141  O        -31.9980  -15.6280    0.0800 O.2   122  ASP122     -0.2867
    142  CB       -31.1840  -15.7990    3.0050 C.3   122  ASP122      0.1410
    143  CG       -30.9620  -16.3080    4.4250 C.2   122  ASP122      0.3668
    144  OD1      -31.8100  -17.0330    4.9930 O.co2 122  ASP122     -0.2456
    145  OD2      -29.8850  -15.9710    4.9580 O.co2 122  ASP122     -0.2456
@<TRIPOS>BOND
     1    99    98    2
     2    98    97    1
     3   141   140    2
     4    97   100    1
     5    97    96    1
     6   100   101    1
     7   140   139    1
     8   110   111    1
     9   138   139    1
    10   101   102   ar
    11   101   103   ar
    12   139   142    1
    13   111   112    1
    14   111   114    1
    15   102   104   ar
    16   142   143    1
    17   112   113    2
    18   114   115    1
    19   114   116    1
    20   103   106   ar
    21   103   105   ar
    22   106   108   ar
    23   104   105   ar
    24   105   107   ar
    25   143   145   ar
    26   143   144   ar
    27     2     5    1
    28     2     1    1
    29     2     3    1
    30     5     6    1
    31    93    92    2
    32    92    91    1
    33   108   109   ar
    34     3     4    2
    35    32    30   ar
    36    32    33   ar
    37   107   109   ar
    38    30    28   ar
    39   133   132    2
    40     6     8   am
    41     6     7    2
    42    34    33    1
    43    91    94    1
    44    91    90    1
    45   117   118    1
    46   132   131    1
    47    33    31   ar
    48    94    95    1
    49    20    19    2
    50    28    27    1
    51    28    29   ar
    52    27    24    1
    53   118   119    1
    54   118   121    1
    55     9    10    1
    56    23    24    1
    57   131   130    1
    58   131   134    1
    59    31    29   ar
    60    24    25    1
    61   122   121    1
    62    19    18    1
    63   119   120    2
    64   121   123    1
    65   134   135    1
    66    21    18    1
    67    21    22    1
    68    14    15    1
    69    14    16    1
    70    14    13    1
    71    18    17    1
    72    10    13    1
    73    10    11    1
    74    25    26    2
    75    76    78   ar
    76    76    74   ar
    77    11    12    2
    78    73    74   ar
    79    73    71   ar
    80   135   137    1
    81   135   136    1
    82    78    77   ar
    83    74    72   ar
    84    71    70   ar
    85   124   125    1
    86    86    87    2
    87    86    85    1
    88    77    75   ar
    89    72    70   ar
    90    72    75   ar
    91    65    66    1
    92    35    36    1
    93    36    39    1
    94    36    37    1
    95    70    69    1
    96   127   126    2
    97    39    40    1
    98    85    88    1
    99    85    84    1
   100   125   126    1
   101   125   128    1
   102    47    45    1
   103    88    89    1
   104    66    69    1
   105    66    67    1
   106    37    38    2
   107   129   128    1
   108    46    45    1
   109    45    42    1
   110    67    68    2
   111    41    42    1
   112    44    43    2
   113    42    43    1
   114    43    48   am
   115    64    61    1
   116    48    49    1
   117    49    50    1
   118    83    80    1
   119    82    81    2
   120    81    80    1
   121    61    62    1
   122    61    60    1
   123    55    54    2
   124    50    52   am
   125    50    51    2
   126    52    53    1
   127    80    79    1
   128    62    63    2
   129    54    60   am
   130    54    53    1
   131    53    56    1
   132    56    57    1
   133    57    59   am
   134    57    58    2
