@<TRIPOS>MOLECULE
tmp/3rdpB00.pdb
 179 169 0 0 0
SMALL
GASTEIGER

@<TRIPOS>ATOM
      1  N         16.5740   38.5060   38.7410 N.3    13  HIS13      -0.1241
      2  CA        15.4230   38.7050   39.6130 C.3    13  HIS13       0.1621
      3  C         14.6580   39.9790   39.2550 C.2    13  HIS13       0.2264
      4  O         15.2260   40.9220   38.7010 O.2    13  HIS13      -0.2867
      5  CB        15.8650   38.7530   41.0780 C.3    13  HIS13       0.0745
      6  CG        16.7040   39.9460   41.4210 C.ar   13  HIS13       0.0817
      7  ND1       17.9990   40.1040   40.9740 N.ar   13  HIS13      -0.2268
      8  CD2       16.4340   41.0360   42.1780 C.ar   13  HIS13       0.1154
      9  CE1       18.4870   41.2410   41.4360 C.ar   13  HIS13       0.1986
     10  NE2       17.5570   41.8260   42.1700 N.ar   13  HIS13      -0.2212
     11  N          9.4880   36.0930   38.0860 N.3    17  LYS17      -0.1245
     12  CA         9.8930   34.6970   38.0520 C.3    17  LYS17       0.1561
     13  C          9.0550   33.8510   39.0000 C.2    17  LYS17       0.2260
     14  O          8.5510   32.7950   38.6240 O.2    17  LYS17      -0.2867
     15  CB        11.3700   34.5760   38.4200 C.3    17  LYS17       0.0271
     16  CG        12.0120   33.2830   37.9650 C.3    17  LYS17       0.0035
     17  CD        13.4880   33.2620   38.3050 C.3    17  LYS17       0.0206
     18  CE        13.6930   33.1600   39.8030 C.3    17  LYS17       0.1093
     19  NZ        13.1510   31.8810   40.3410 N.3    17  LYS17      -0.1314
     20  N         12.2770   29.3880   46.5830 N.3    38  GLU38      -0.1245
     21  CA        13.3690   30.2520   46.9960 C.3    38  GLU38       0.1567
     22  C         13.6080   30.1030   48.4910 C.2    38  GLU38       0.2260
     23  O         12.6730   30.2110   49.2820 O.2    38  GLU38      -0.2867
     24  CB        13.0180   31.7000   46.6630 C.3    38  GLU38       0.0388
     25  CG        13.9860   32.7290   47.1970 C.3    38  GLU38       0.1160
     26  CD        13.5750   34.1380   46.8200 C.2    38  GLU38       0.3649
     27  OE1       13.6290   34.4680   45.6170 O.co2  38  GLU38      -0.2457
     28  OE2       13.1930   34.9130   47.7220 O.co2  38  GLU38      -0.2457
     29  N         18.9210   32.3460   53.6870 N.3    43  TRP43      -0.1241
     30  CA        19.6860   33.5640   53.4650 C.3    43  TRP43       0.1605
     31  C         19.5260   34.5270   54.6350 C.2    43  TRP43       0.2264
     32  O         20.3950   35.3600   54.8870 O.2    43  TRP43      -0.2867
     33  CB        19.2160   34.2510   52.1830 C.3    43  TRP43       0.0550
     34  CG        19.3220   33.4000   50.9610 C.ar   43  TRP43       0.0003
     35  CD1       20.1510   32.3330   50.7720 C.ar   43  TRP43       0.0946
     36  CD2       18.5660   33.5420   49.7540 C.ar   43  TRP43       0.0152
     37  NE1       19.9600   31.8040   49.5180 N.ar   43  TRP43      -0.2442
     38  CE2       18.9920   32.5280   48.8730 C.ar   43  TRP43       0.0810
     39  CE3       17.5730   34.4300   49.3310 C.ar   43  TRP43       0.0012
     40  CZ2       18.4570   32.3770   47.5960 C.ar   43  TRP43       0.0191
     41  CZ3       17.0430   34.2780   48.0630 C.ar   43  TRP43       0.0001
     42  CH2       17.4870   33.2600   47.2100 C.ar   43  TRP43       0.0015
     43  N         21.1240   39.1550   52.1700 N.3    52  ILE52      -0.1245
     44  CA        20.7830   40.1190   51.1310 C.3    52  ILE52       0.1561
     45  C         21.1570   41.5360   51.5580 C.2    52  ILE52       0.2260
     46  O         21.7500   42.2910   50.7860 O.2    52  ILE52      -0.2867
     47  CB        19.2840   40.0610   50.7820 C.3    52  ILE52       0.0252
     48  CG1       18.9070   38.6620   50.2920 C.3    52  ILE52       0.0019
     49  CG2       18.9410   41.0940   49.7240 C.3    52  ILE52       0.0019
     50  CD1       19.6240   38.2480   49.0260 C.3    52  ILE52       0.0001
     51  N         24.9680   41.8960   51.4500 N.3    55  ILE55      -0.1231
     52  CA        25.4450   42.0260   50.0720 C.3    55  ILE55       0.1692
     53  C         25.3210   43.4490   49.5180 C.2    55  ILE55       0.2592
     54  O         26.3000   44.0210   49.0390 O.2    55  ILE55      -0.2718
     55  CB        24.7040   41.0490   49.1280 C.3    55  ILE55       0.0266
     56  CG1       25.2450   39.6270   49.2900 C.3    55  ILE55       0.0019
     57  CG2       24.8230   41.4980   47.6740 C.3    55  ILE55       0.0020
     58  CD1       24.6380   38.6320   48.3160 C.3    55  ILE55       0.0001
     59  N         24.1180   44.0130   49.5810 N.am   56  TYR56      -0.1976
     60  CA        23.8660   45.3400   49.0220 C.3    56  TYR56       0.1639
     61  C         24.4790   46.4640   49.8520 C.2    56  TYR56       0.2290
     62  O         24.9100   47.4780   49.3040 O.2    56  TYR56      -0.2864
     63  CB        22.3660   45.5700   48.8170 C.3    56  TYR56       0.0560
     64  CG        21.8020   44.8070   47.6410 C.ar   56  TYR56      -0.0198
     65  CD1       21.3870   43.4880   47.7780 C.ar   56  TYR56      -0.0009
     66  CD2       21.6950   45.4010   46.3920 C.ar   56  TYR56      -0.0009
     67  CE1       20.8750   42.7850   46.7040 C.ar   56  TYR56       0.0417
     68  CE2       21.1870   44.7070   45.3130 C.ar   56  TYR56       0.0417
     69  CZ        20.7790   43.4010   45.4730 C.ar   56  TYR56       0.1957
     70  OH        20.2720   42.7100   44.3960 O.3    56  TYR56      -0.2866
     71  N         28.2130   34.8120   48.7480 N.3    80  GLN80      -0.1245
     72  CA        27.8390   33.9850   47.6080 C.3    80  GLN80       0.1566
     73  C         27.9730   32.4970   47.9120 C.2    80  GLN80       0.2260
     74  O         27.3960   31.6630   47.2170 O.2    80  GLN80      -0.2867
     75  CB        28.6670   34.3600   46.3780 C.3    80  GLN80       0.0367
     76  CG        28.2540   35.6780   45.7600 C.3    80  GLN80       0.0905
     77  CD        26.7790   35.7060   45.4220 C.2    80  GLN80       0.2608
     78  OE1       26.0930   36.7020   45.6550 O.2    80  GLN80      -0.2717
     79  NE2       26.2790   34.6040   44.8750 N.am   80  GLN80      -0.0878
     80  N         24.6240   32.0200   49.7740 N.3    83  MET83      -0.1245
     81  CA        23.5200   32.0920   48.8280 C.3    83  MET83       0.1570
     82  C         23.3370   30.7820   48.0680 C.2    83  MET83       0.2261
     83  O         22.2090   30.3430   47.8370 O.2    83  MET83      -0.2867
     84  CB        23.7350   33.2450   47.8460 C.3    83  MET83       0.0387
     85  CG        23.7190   34.6260   48.4890 C.3    83  MET83       0.0595
     86  SD        22.1020   35.1130   49.1280 S.3    83  MET83      -0.1393
     87  CE        21.1300   35.1710   47.6220 C.3    83  MET83       0.0692
     88  N         21.1080   25.5550   47.1330 N.3    87  TYR87      -0.1241
     89  CA        21.1240   25.0880   45.7500 C.3    87  TYR87       0.1605
     90  C         22.0640   23.9030   45.5720 C.2    87  TYR87       0.2264
     91  O         21.7020   22.8970   44.9660 O.2    87  TYR87      -0.2867
     92  CB        21.5400   26.2100   44.7980 C.3    87  TYR87       0.0534
     93  CG        20.6820   27.4510   44.8760 C.ar   87  TYR87      -0.0201
     94  CD1       19.4430   27.4310   45.5070 C.ar   87  TYR87      -0.0009
     95  CD2       21.1110   28.6450   44.3150 C.ar   87  TYR87      -0.0009
     96  CE1       18.6600   28.5680   45.5770 C.ar   87  TYR87       0.0417
     97  CE2       20.3360   29.7850   44.3810 C.ar   87  TYR87       0.0417
     98  CZ        19.1110   29.7420   45.0140 C.ar   87  TYR87       0.1957
     99  OH        18.3330   30.8760   45.0800 O.3    87  TYR87      -0.2866
    100  N         13.4270   26.9020   42.0940 N.3   117  ASP117     -0.1225
    101  CA        13.6590   28.3370   42.1140 C.3   117  ASP117      0.1805
    102  C         15.1560   28.5710   41.9630 C.2   117  ASP117      0.2597
    103  O         15.8820   28.6200   42.9550 O.2   117  ASP117     -0.2718
    104  CB        13.1640   28.9530   43.4210 C.3   117  ASP117      0.1424
    105  CG        13.3230   30.4650   43.4510 C.2   117  ASP117      0.3668
    106  OD1       14.4590   30.9460   43.6560 O.co2 117  ASP117     -0.2456
    107  OD2       12.3090   31.1770   43.2790 O.co2 117  ASP117     -0.2456
    108  N         15.6060   28.6900   40.7150 N.am  118  ARG118     -0.1979
    109  CA        17.0130   28.9300   40.3890 C.3   118  ARG118      0.1597
    110  C         17.8500   27.6560   40.3130 C.2   118  ARG118      0.2287
    111  O         17.4630   26.6070   40.8280 O.2   118  ARG118     -0.2864
    112  CB        17.6520   29.9170   41.3690 C.3   118  ARG118      0.0334
    113  CG        17.0680   31.3100   41.3110 C.3   118  ARG118      0.0492
    114  CD        18.0200   32.3240   41.9180 C.3   118  ARG118      0.2205
    115  NE        17.5800   33.6900   41.6590 N.pl3 118  ARG118     -0.0865
    116  CZ        17.7250   34.3130   40.4940 C.cat 118  ARG118      0.5346
    117  NH1       18.2960   33.6880   39.4720 N.pl3 118  ARG118      0.1354
    118  NH2       17.2930   35.5580   40.3480 N.pl3 118  ARG118      0.1354
    119  N         23.5470   29.9620   39.3020 N.3   122  ALA122     -0.1231
    120  CA        23.1140   31.3190   39.6190 C.3   122  ALA122      0.1694
    121  C         23.9820   31.9480   40.7100 C.2   122  ALA122      0.2591
    122  O         24.3690   33.1130   40.6140 O.2   122  ALA122     -0.2718
    123  CB        21.6470   31.3300   40.0280 C.3   122  ALA122      0.0304
    124  N         24.2900   31.1710   41.7440 N.am  123  ALA123     -0.1980
    125  CA        25.0490   31.6840   42.8800 C.3   123  ALA123      0.1597
    126  C         26.5370   31.3710   42.7650 C.2   123  ALA123      0.2287
    127  O         27.3550   31.9180   43.5060 O.2   123  ALA123     -0.2864
    128  CB        24.4880   31.1380   44.1840 C.3   123  ALA123      0.0319
    129  N         25.7390   35.6790   39.3630 N.3   127  TYR127     -0.1241
    130  CA        25.8330   36.7940   40.3070 C.3   127  TYR127      0.1605
    131  C         27.2660   37.1000   40.7570 C.2   127  TYR127      0.2264
    132  O         27.6280   38.2690   40.9150 O.2   127  TYR127     -0.2867
    133  CB        24.9120   36.5730   41.5150 C.3   127  TYR127      0.0534
    134  CG        23.4660   36.9230   41.2360 C.ar  127  TYR127     -0.0201
    135  CD1       22.5870   35.9810   40.7190 C.ar  127  TYR127     -0.0009
    136  CD2       22.9840   38.2040   41.4790 C.ar  127  TYR127     -0.0009
    137  CE1       21.2670   36.3040   40.4570 C.ar  127  TYR127      0.0417
    138  CE2       21.6700   38.5350   41.2200 C.ar  127  TYR127      0.0417
    139  CZ        20.8160   37.5840   40.7080 C.ar  127  TYR127      0.1957
    140  OH        19.5060   37.9170   40.4500 O.3   127  TYR127     -0.2866
    141  N         29.1110   40.7120   40.0850 N.3   131  ARG131     -0.1245
    142  CA        29.8220   41.4730   41.1050 C.3   131  ARG131      0.1563
    143  C         31.2360   41.8120   40.6500 C.2   131  ARG131      0.2260
    144  O         31.7810   42.8520   41.0170 O.2   131  ARG131     -0.2867
    145  CB        29.8480   40.7110   42.4300 C.3   131  ARG131      0.0307
    146  CG        28.4930   40.6440   43.1200 C.3   131  ARG131      0.0489
    147  CD        27.9680   42.0410   43.4230 C.3   131  ARG131      0.2205
    148  NE        26.6040   42.0270   43.9460 N.pl3 131  ARG131     -0.0865
    149  CZ        25.9190   43.1190   44.2690 C.cat 131  ARG131      0.5346
    150  NH1       26.4700   44.3160   44.1240 N.pl3 131  ARG131      0.1354
    151  NH2       24.6820   43.0170   44.7370 N.pl3 131  ARG131      0.1354
    152  N         13.6130   42.3700   47.5210 N.3   177  ARG177     -0.1245
    153  CA        13.8220   41.4540   48.6360 C.3   177  ARG177      0.1563
    154  C         14.1670   42.2360   49.8980 C.2   177  ARG177      0.2260
    155  O         14.5930   43.3890   49.8200 O.2   177  ARG177     -0.2867
    156  CB        14.9570   40.4780   48.3130 C.3   177  ARG177      0.0307
    157  CG        14.8870   39.8600   46.9240 C.3   177  ARG177      0.0489
    158  CD        13.7250   38.8880   46.7780 C.3   177  ARG177      0.2205
    159  NE        13.6460   38.3710   45.4140 N.pl3 177  ARG177     -0.0865
    160  CZ        12.7970   37.4300   45.0110 C.cat 177  ARG177      0.5346
    161  NH1       11.9440   36.8870   45.8680 N.pl3 177  ARG177      0.1354
    162  NH2       12.8040   37.0300   43.7470 N.pl3 177  ARG177      0.1354
    163  N         17.5220   44.4960   50.2970 N.3   180  GLU180     -0.1245
    164  CA        17.9940   44.8950   48.9770 C.3   180  GLU180      0.1567
    165  C         17.9710   46.4120   48.7990 C.2   180  GLU180      0.2260
    166  O         17.2040   47.1140   49.4570 O.2   180  GLU180     -0.2867
    167  CB        17.1450   44.2290   47.8930 C.3   180  GLU180      0.0388
    168  CG        17.5980   44.5210   46.4750 C.3   180  GLU180      0.1160
    169  CD        16.7230   43.8530   45.4360 C.2   180  GLU180      0.3649
    170  OE1       15.7580   43.1600   45.8230 O.co2 180  GLU180     -0.2457
    171  OE2       17.0010   44.0220   44.2300 O.co2 180  GLU180     -0.2457
    172  N         23.9560   47.5150   39.0300 N.3   186  MET186     -0.1245
    173  CA        23.9510   46.0820   39.3000 C.3   186  MET186      0.1570
    174  C         22.9680   45.3650   38.3830 C.2   186  MET186      0.2261
    175  O         23.2380   44.2610   37.9080 O.2   186  MET186     -0.2867
    176  CB        23.6030   45.8100   40.7650 C.3   186  MET186      0.0387
    177  CG        23.4910   44.3350   41.1100 C.3   186  MET186      0.0595
    178  SD        25.0060   43.4230   40.7540 S.3   186  MET186     -0.1393
    179  CE        24.4830   41.7440   41.0790 C.3   186  MET186      0.0692
@<TRIPOS>BOND
     1   175   174    2
     2    16    17    1
     3    16    15    1
     4    12    11    1
     5    12    15    1
     6    12    13    1
     7    17    18    1
     8   174   173    1
     9    14    13    2
    10     4     3    2
    11     1     2    1
    12   172   173    1
    13     3     2    1
    14   173   176    1
    15   119   120    1
    16   129   130    1
    17   117   116    1
    18     2     5    1
    19   120   123    1
    20   120   121    1
    21    18    19    1
    22   141   142    1
    23   130   131    1
    24   130   133    1
    25   110   109    1
    26   110   111    2
    27   118   116    1
    28   109   108    1
    29   109   112    1
    30   140   139    1
    31   137   139   ar
    32   137   135   ar
    33   116   115    2
    34   122   121    2
    35   143   144    2
    36   143   142    1
    37   139   138   ar
    38   121   124   am
    39   108   102   am
    40   135   134   ar
    41   178   179    1
    42   178   177    1
    43   131   132    2
    44   176   177    1
    45     7     6   ar
    46     7     9   ar
    47     5     6    1
    48   142   145    1
    49   138   136   ar
    50   134   136   ar
    51   134   133    1
    52   113   112    1
    53   113   114    1
    54     6     8   ar
    55     9    10   ar
    56   115   114    1
    57   124   125    1
    58   102   101    1
    59   102   103    2
    60   100   101    1
    61   101   104    1
    62    10     8   ar
    63   145   146    1
    64   126   125    1
    65   126   127    2
    66   125   128    1
    67   146   147    1
    68   107   105   ar
    69   104   105    1
    70   147   148    1
    71   105   106   ar
    72   162   160    1
    73   148   149    2
    74   150   149    1
    75   171   169   ar
    76   149   151    1
    77    95    97   ar
    78    95    93   ar
    79    97    98   ar
    80    70    69    1
    81    92    93    1
    82    92    89    1
    83    79    77   am
    84    93    94   ar
    85    91    90    2
    86   160   159    2
    87   160   161    1
    88    98    99    1
    89    98    96   ar
    90    68    69   ar
    91    68    66   ar
    92   159   158    1
    93    77    78    2
    94    77    76    1
    95   169   170   ar
    96   169   168    1
    97    69    67   ar
    98    94    96   ar
    99    90    89    1
   100    27    26   ar
   101    89    88    1
   102    76    75    1
   103    75    72    1
   104    66    64   ar
   105   168   167    1
   106    20    21    1
   107    24    21    1
   108    24    25    1
   109    67    65   ar
   110   158   157    1
   111    26    25    1
   112    26    28   ar
   113   157   156    1
   114    21    22    1
   115    42    40   ar
   116    42    41   ar
   117    74    73    2
   118   152   153    1
   119    40    38   ar
   120    72    73    1
   121    72    71    1
   122    87    86    1
   123    64    65   ar
   124    64    63    1
   125    57    55    1
   126    83    82    2
   127    84    85    1
   128    84    81    1
   129   167   164    1
   130    41    39   ar
   131    82    81    1
   132   156   153    1
   133    58    56    1
   134    85    86    1
   135    22    23    2
   136   153   154    1
   137   165   164    1
   138   165   166    2
   139    63    60    1
   140    81    80    1
   141    38    37   ar
   142    38    36   ar
   143   164   163    1
   144    60    59    1
   145    60    61    1
   146    50    48    1
   147    54    53    2
   148    55    56    1
   149    55    52    1
   150    62    61    2
   151    39    36   ar
   152    53    59   am
   153    53    52    1
   154    37    35   ar
   155    49    47    1
   156    36    34   ar
   157   155   154    2
   158    52    51    1
   159    48    47    1
   160    35    34   ar
   161    47    44    1
   162    46    45    2
   163    34    33    1
   164    44    45    1
   165    44    43    1
   166    33    30    1
   167    30    29    1
   168    30    31    1
   169    31    32    2
