@<TRIPOS>MOLECULE
tmp/3rdqA00.pdb
 145 134 0 0 0
SMALL
GASTEIGER

@<TRIPOS>ATOM
      1  N          9.4440   32.4510   -4.8330 N.3    14  ASN14      -0.1240
      2  CA        10.6830   33.1520   -4.5420 C.3    14  ASN14       0.1653
      3  C         10.8540   34.4200   -5.3570 C.2    14  ASN14       0.2266
      4  O          9.9880   34.7770   -6.1550 O.2    14  ASN14      -0.2867
      5  CB        11.9090   32.2320   -4.5940 C.3    14  ASN14       0.1155
      6  CG        12.3700   31.9090   -6.0040 C.2    14  ASN14       0.2627
      7  OD1       11.8770   32.4530   -7.0010 O.2    14  ASN14      -0.2716
      8  ND2       13.3580   30.9890   -6.0910 N.am   14  ASN14      -0.0877
      9  N         12.6950   35.1610   -7.7030 N.3    16  LEU16      -0.1245
     10  CA        12.9670   34.9340   -9.1360 C.3    16  LEU16       0.1561
     11  C         11.6940   34.6410   -9.8950 C.2    16  LEU16       0.2260
     12  O         11.7210   34.5910  -11.1500 O.2    16  LEU16      -0.2867
     13  CB        13.8850   33.7320   -9.3330 C.3    16  LEU16       0.0270
     14  CG        15.2430   33.8450   -8.6380 C.3    16  LEU16       0.0019
     15  CD1       16.0540   32.5710   -8.8410 C.3    16  LEU16       0.0001
     16  CD2       16.0220   35.0600   -9.1030 C.3    16  LEU16       0.0001
     17  N          9.9770   31.7380   -9.1410 N.3    18  SER18      -0.1217
     18  CA         9.7750   30.2820   -9.0920 C.3    18  SER18       0.1889
     19  C          8.6930   29.9050   -8.0710 C.2    18  SER18       0.2288
     20  O          8.4100   30.6760   -7.1590 O.2    18  SER18      -0.2866
     21  CB        11.0790   29.5760   -8.7260 C.3    18  SER18       0.2089
     22  OG        12.0740   29.9260   -9.6700 O.3    18  SER18      -0.2183
     23  N          8.5280   21.5980   -7.7580 N.3    34  TYR34      -0.1241
     24  CA         9.1500   22.9100   -7.9020 C.3    34  TYR34       0.1605
     25  C          9.1130   23.2910   -9.3590 C.2    34  TYR34       0.2264
     26  O          9.3810   22.4580  -10.2230 O.2    34  TYR34      -0.2867
     27  CB        10.6160   22.8300   -7.4610 C.3    34  TYR34       0.0534
     28  CG        11.2230   24.1690   -7.1390 C.ar   34  TYR34      -0.0201
     29  CD1       11.7790   24.9470   -8.1400 C.ar   34  TYR34      -0.0009
     30  CD2       11.2570   24.6250   -5.8150 C.ar   34  TYR34      -0.0009
     31  CE1       12.3650   26.2140   -7.8610 C.ar   34  TYR34       0.0417
     32  CE2       11.8400   25.8690   -5.5160 C.ar   34  TYR34       0.0417
     33  CZ        12.3850   26.6430   -6.5340 C.ar   34  TYR34       0.1957
     34  OH        12.9500   27.8690   -6.2310 O.3    34  TYR34      -0.2866
     35  N         10.8390   26.2030  -11.7610 N.3    36  SER36      -0.1217
     36  CA        11.8070   27.3150  -11.7660 C.3    36  SER36       0.1889
     37  C         11.5060   28.3200  -12.8550 C.2    36  SER36       0.2288
     38  O         11.2700   27.9440  -14.0210 O.2    36  SER36      -0.2866
     39  CB        13.2330   26.8000  -11.9780 C.3    36  SER36       0.2089
     40  OG        14.1310   27.9060  -12.0200 O.3    36  SER36      -0.2183
     41  N         13.7320   30.3740  -13.8760 N.3    38  VAL38      -0.1231
     42  CA        14.9950   30.6440  -14.5630 C.3    38  VAL38       0.1692
     43  C         15.7430   29.3580  -14.8770 C.2    38  VAL38       0.2593
     44  O         15.4010   28.2940  -14.3480 O.2    38  VAL38      -0.2718
     45  CB        15.9240   31.5250  -13.7030 C.3    38  VAL38       0.0266
     46  CG1       15.2680   32.9040  -13.4510 C.3    38  VAL38       0.0020
     47  CG2       16.2740   30.8330  -12.3710 C.3    38  VAL38       0.0020
     48  N         16.7800   29.4660  -15.7230 N.am   39  GLY39      -0.1942
     49  CA        17.6400   28.3190  -15.9670 C.3    39  GLY39       0.2014
     50  C         17.0820   27.3650  -17.0050 C.2    39  GLY39       0.2639
     51  O         16.0700   27.6380  -17.6460 O.2    39  GLY39      -0.2714
     52  N         17.7380   26.2210  -17.1310 N.am   40  ASN40      -0.1958
     53  CA        17.3780   25.2080  -18.1170 C.3    40  ASN40       0.1819
     54  C         16.3130   24.2830  -17.5200 C.2    40  ASN40       0.2621
     55  O         16.6000   23.1690  -17.0920 O.2    40  ASN40      -0.2715
     56  CB        18.6270   24.3950  -18.4780 C.3    40  ASN40       0.1195
     57  CG        18.3900   23.4240  -19.6130 C.2    40  ASN40       0.2630
     58  OD1       17.3330   23.4420  -20.2330 O.2    40  ASN40      -0.2716
     59  ND2       19.3800   22.5620  -19.8920 N.am   40  ASN40      -0.0877
     60  N         15.0930   24.7920  -17.4420 N.am   41  ALA41      -0.1977
     61  CA        14.0330   24.1420  -16.7060 C.3    41  ALA41       0.1597
     62  C         12.7000   24.4950  -17.3270 C.2    41  ALA41       0.2287
     63  O         12.4950   25.6210  -17.7790 O.2    41  ALA41      -0.2864
     64  CB        14.0650   24.6060  -15.2340 C.3    41  ALA41       0.0319
     65  N         17.1460   18.4040  -11.6090 N.3    70  TRP70      -0.1241
     66  CA        16.5220   19.1050  -12.7330 C.3    70  TRP70       0.1605
     67  C         16.3410   18.2220  -13.9470 C.2    70  TRP70       0.2264
     68  O         16.7390   18.5640  -15.0750 O.2    70  TRP70      -0.2867
     69  CB        17.3260   20.3740  -13.0520 C.3    70  TRP70       0.0550
     70  CG        17.3620   21.3210  -11.9080 C.ar   70  TRP70       0.0003
     71  CD1       18.4460   21.6110  -11.1120 C.ar   70  TRP70       0.0946
     72  CD2       16.2830   22.1500  -11.4410 C.ar   70  TRP70       0.0152
     73  NE1       18.0940   22.5480  -10.1500 N.ar   70  TRP70      -0.2442
     74  CE2       16.7680   22.8790  -10.3230 C.ar   70  TRP70       0.0810
     75  CE3       14.9440   22.2970  -11.8140 C.ar   70  TRP70       0.0012
     76  CZ2       15.9770   23.8040   -9.6240 C.ar   70  TRP70       0.0191
     77  CZ3       14.1310   23.2120  -11.0970 C.ar   70  TRP70       0.0001
     78  CH2       14.6580   23.9480  -10.0220 C.ar   70  TRP70       0.0015
     79  N         18.7270   18.9380  -17.2580 N.3    77  ALA77      -0.1245
     80  CA        19.8360   19.8880  -17.2300 C.3    77  ALA77       0.1562
     81  C         21.1200   19.2690  -16.6440 C.2    77  ALA77       0.2260
     82  O         22.1350   19.9360  -16.5670 O.2    77  ALA77      -0.2867
     83  CB        19.4430   21.1130  -16.4310 C.3    77  ALA77       0.0290
     84  N         21.7970   18.5830  -13.5260 N.3    79  SER79      -0.1217
     85  CA        22.1430   19.4150  -12.3730 C.3    79  SER79       0.1889
     86  C         21.1120   19.1680  -11.2690 C.2    79  SER79       0.2288
     87  O         20.0410   18.5620  -11.5110 O.2    79  SER79      -0.2866
     88  CB        22.1080   20.8970  -12.7630 C.3    79  SER79       0.2089
     89  OG        20.8080   21.2200  -13.2020 O.3    79  SER79      -0.2183
     90  N         19.7110   21.1040   -7.3400 N.3    81  SER81      -0.1217
     91  CA        19.8510   22.1910   -6.3820 C.3    81  SER81       0.1889
     92  C         19.4240   21.6890   -5.0160 C.2    81  SER81       0.2288
     93  O         18.4690   20.8890   -4.9090 O.2    81  SER81      -0.2866
     94  CB        18.9220   23.3480   -6.8020 C.3    81  SER81       0.2089
     95  OG        19.3620   23.9180   -8.0430 O.3    81  SER81      -0.2183
     96  N         18.4130   23.4870   -1.2890 N.3    83  TRP83      -0.1241
     97  CA        18.1900   24.7040   -0.5320 C.3    83  TRP83       0.1605
     98  C         18.2800   24.3550    0.9290 C.2    83  TRP83       0.2264
     99  O         17.6540   23.3700    1.3690 O.2    83  TRP83      -0.2867
    100  CB        16.7530   25.1820   -0.7700 C.3    83  TRP83       0.0550
    101  CG        16.4340   25.8020   -2.1570 C.ar   83  TRP83       0.0003
    102  CD1       16.3030   27.1330   -2.4350 C.ar   83  TRP83       0.0946
    103  CD2       16.1830   25.1050   -3.3820 C.ar   83  TRP83       0.0152
    104  NE1       15.9720   27.3110   -3.7800 N.ar   83  TRP83      -0.2442
    105  CE2       15.8740   26.0720   -4.3660 C.ar   83  TRP83       0.0810
    106  CE3       16.1230   23.7370   -3.7280 C.ar   83  TRP83       0.0012
    107  CZ2       15.5280   25.7250   -5.6800 C.ar   83  TRP83       0.0191
    108  CZ3       15.8180   23.3940   -5.0380 C.ar   83  TRP83       0.0001
    109  CH2       15.5050   24.3840   -6.0010 C.ar   83  TRP83       0.0015
    110  N         21.2820   28.3440   -1.4140 N.3    99  VAL99      -0.1245
    111  CA        21.0260   27.1890   -2.2890 C.3    99  VAL99       0.1561
    112  C         22.2430   26.8920   -3.1250 C.2    99  VAL99       0.2260
    113  O         22.8910   27.8210   -3.6580 O.2    99  VAL99      -0.2867
    114  CB        19.7850   27.4610   -3.2140 C.3    99  VAL99       0.0252
    115  CG1       19.8270   28.8650   -3.8660 C.3    99  VAL99       0.0019
    116  CG2       19.6400   26.3720   -4.2830 C.3    99  VAL99       0.0019
    117  N         23.7120   24.7670   -6.3830 N.3   101  THR101     -0.1218
    118  CA        23.2480   24.1100   -7.6110 C.3   101  THR101      0.1862
    119  C         24.4710   23.4820   -8.2640 C.2   101  THR101      0.2287
    120  O         25.3540   24.1900   -8.7460 O.2   101  THR101     -0.2866
    121  CB        22.6030   25.1150   -8.5680 C.3   101  THR101      0.1770
    122  OG1       21.4480   25.6800   -7.9370 O.3   101  THR101     -0.2211
    123  CG2       22.1460   24.4560   -9.9050 C.3   101  THR101      0.0375
    124  N         26.2250   21.0650  -11.1220 N.3   103  SER103     -0.1217
    125  CA        26.0850   20.4570  -12.4370 C.3   103  SER103      0.1889
    126  C         27.0320   19.2810  -12.5260 C.2   103  SER103      0.2288
    127  O         28.1150   19.3350  -11.9530 O.2   103  SER103     -0.2866
    128  CB        26.4770   21.4460  -13.5060 C.3   103  SER103      0.2089
    129  OG        25.5460   22.5120  -13.5510 O.3   103  SER103     -0.2183
    130  N         27.1420   26.3350   -8.0840 N.3   115  LEU115     -0.1245
    131  CA        26.7540   27.7120   -7.7890 C.3   115  LEU115      0.1561
    132  C         26.3270   27.7660   -6.3200 C.2   115  LEU115      0.2260
    133  O         25.7530   26.8030   -5.7760 O.2   115  LEU115     -0.2867
    134  CB        25.5200   28.0870   -8.6000 C.3   115  LEU115      0.0270
    135  CG        25.7060   28.2340  -10.1190 C.3   115  LEU115      0.0019
    136  CD1       24.2810   28.4390  -10.7090 C.3   115  LEU115      0.0001
    137  CD2       26.6420   29.4090  -10.4630 C.3   115  LEU115      0.0001
    138  N         17.7500   32.2850   -1.9800 N.3   119  ASP119     -0.1239
    139  CA        16.3440   32.4470   -2.3720 C.3   119  ASP119      0.1674
    140  C         15.5030   32.7500   -1.1360 C.2   119  ASP119      0.2266
    141  O         15.6530   32.0980   -0.1070 O.2   119  ASP119     -0.2867
    142  CB        15.8210   31.1470   -2.9950 C.3   119  ASP119      0.1410
    143  CG        16.2900   30.9400   -4.4330 C.2   119  ASP119      0.3668
    144  OD1       16.9960   31.8170   -5.0000 O.co2 119  ASP119     -0.2456
    145  OD2       15.9630   29.8760   -4.9580 O.co2 119  ASP119     -0.2456
@<TRIPOS>BOND
     1    58    57    2
     2    59    57   am
     3    57    56    1
     4    56    53    1
     5    53    54    1
     6    53    52    1
     7    63    62    2
     8    51    50    2
     9    54    60   am
    10    54    55    2
    11    60    61    1
    12    62    61    1
    13    79    80    1
    14    80    81    1
    15    80    83    1
    16    52    50   am
    17    50    49    1
    18    61    64    1
    19    81    82    2
    20    49    48    1
    21    48    43   am
    22    68    67    2
    23    43    42    1
    24    43    44    2
    25    42    41    1
    26    42    45    1
    27    38    37    2
    28    67    66    1
    29    45    46    1
    30    45    47    1
    31   129   128    1
    32    84    85    1
    33   128   125    1
    34    89    88    1
    35    69    66    1
    36    69    70    1
    37    37    36    1
    38    88    85    1
    39    66    65    1
    40   126   125    1
    41   126   127    2
    42   125   124    1
    43    85    86    1
    44    40    39    1
    45    39    36    1
    46    70    72   ar
    47    70    71   ar
    48    75    72   ar
    49    75    77   ar
    50    36    35    1
    51    87    86    2
    52    72    74   ar
    53    12    11    2
    54    71    73   ar
    55    77    78   ar
    56   136   135    1
    57   137   135    1
    58    74    73   ar
    59    74    76   ar
    60    26    25    2
    61   135   134    1
    62    78    76   ar
    63   123   121    1
    64    11    10    1
    65    22    21    1
    66    25    24    1
    67    13    10    1
    68    13    14    1
    69    17    18    1
    70    10     9    1
    71    16    14    1
    72    18    21    1
    73    18    19    1
    74    15    14    1
    75   120   119    2
    76   134   131    1
    77   121   122    1
    78   121   118    1
    79   119   118    1
    80    29    31   ar
    81    29    28   ar
    82   130   131    1
    83    19    20    2
    84    95    94    1
    85    24    23    1
    86    24    27    1
    87    31    33   ar
    88   131   132    1
    89   118   117    1
    90    27    28    1
    91    90    91    1
    92    28    30   ar
    93     7     6    2
    94    94    91    1
    95    33    34    1
    96    33    32   ar
    97    91    92    1
    98   132   133    2
    99     4     3    2
   100     8     6   am
   101     6     5    1
   102   109   107   ar
   103   109   108   ar
   104    30    32   ar
   105   107   105   ar
   106     3     2    1
   107   108   106   ar
   108    92    93    2
   109   144   143   ar
   110   145   143   ar
   111     1     2    1
   112     5     2    1
   113   143   142    1
   114   105   104   ar
   115   105   103   ar
   116   116   114    1
   117   115   114    1
   118   104   102   ar
   119   106   103   ar
   120   113   112    2
   121   103   101   ar
   122   114   111    1
   123   112   111    1
   124   142   139    1
   125   102   101   ar
   126   139   138    1
   127   139   140    1
   128   111   110    1
   129   101   100    1
   130    96    97    1
   131   140   141    2
   132   100    97    1
   133    97    98    1
   134    98    99    2
