@<TRIPOS>MOLECULE
tmp/3rdsA00.pdb
 137 127 0 0 0
SMALL
GASTEIGER

@<TRIPOS>ATOM
      1  N        -12.4290  -35.5250   -7.1740 N.3    14  LEU14      -0.1245
      2  CA       -12.5820  -35.4840   -8.6440 C.3    14  LEU14       0.1561
      3  C        -11.3050  -35.0740   -9.3760 C.2    14  LEU14       0.2260
      4  O        -11.2700  -35.0700  -10.6020 O.2    14  LEU14      -0.2867
      5  CB       -13.6890  -34.5060   -9.0390 C.3    14  LEU14       0.0270
      6  CG       -15.0750  -34.7280   -8.4210 C.3    14  LEU14       0.0019
      7  CD1      -16.0240  -33.5400   -8.6850 C.3    14  LEU14       0.0001
      8  CD2      -15.6540  -36.0290   -8.9420 C.3    14  LEU14       0.0001
      9  N         -9.6100  -32.0100   -8.6980 N.3    16  SER16      -0.1217
     10  CA        -9.4500  -30.5550   -8.6760 C.3    16  SER16       0.1889
     11  C         -8.3820  -30.1890   -7.6440 C.2    16  SER16       0.2288
     12  O         -8.1470  -30.9640   -6.7370 O.2    16  SER16      -0.2866
     13  CB       -10.7730  -29.8950   -8.3140 C.3    16  SER16       0.2089
     14  OG       -11.7610  -30.2280   -9.3040 O.3    16  SER16      -0.2183
     15  N         -8.5680  -21.8710   -7.3280 N.3    32  TYR32      -0.1241
     16  CA        -9.1600  -23.1630   -7.5250 C.3    32  TYR32       0.1605
     17  C         -8.9310  -23.5710   -8.9850 C.2    32  TYR32       0.2264
     18  O         -9.0920  -22.7530   -9.8960 O.2    32  TYR32      -0.2867
     19  CB       -10.6430  -23.0410   -7.1770 C.3    32  TYR32       0.0534
     20  CG       -11.2670  -24.3580   -6.8930 C.ar   32  TYR32      -0.0201
     21  CD1      -11.8080  -25.1130   -7.9160 C.ar   32  TYR32      -0.0009
     22  CD2      -11.2820  -24.8670   -5.6170 C.ar   32  TYR32      -0.0009
     23  CE1      -12.3600  -26.3440   -7.6870 C.ar   32  TYR32       0.0417
     24  CE2      -11.8280  -26.1140   -5.3780 C.ar   32  TYR32       0.0417
     25  CZ       -12.3740  -26.8330   -6.4100 C.ar   32  TYR32       0.1957
     26  OH       -12.9260  -28.0640   -6.1800 O.3    32  TYR32      -0.2866
     27  N        -10.5410  -26.4770  -11.3680 N.3    34  SER34      -0.1217
     28  CA       -11.5520  -27.5390  -11.4460 C.3    34  SER34       0.1889
     29  C        -11.2190  -28.6150  -12.4360 C.2    34  SER34       0.2288
     30  O        -10.8200  -28.3070  -13.5470 O.2    34  SER34      -0.2866
     31  CB       -12.9120  -26.9770  -11.8570 C.3    34  SER34       0.2089
     32  OG       -13.8950  -27.9940  -11.6890 O.3    34  SER34      -0.2183
     33  N        -13.5560  -30.5580  -13.4510 N.3    36  VAL36      -0.1231
     34  CA       -14.8420  -30.8080  -14.1100 C.3    36  VAL36       0.1692
     35  C        -15.5650  -29.5200  -14.4710 C.2    36  VAL36       0.2593
     36  O        -15.2910  -28.4630  -13.8960 O.2    36  VAL36      -0.2718
     37  CB       -15.8040  -31.6170  -13.2200 C.3    36  VAL36       0.0266
     38  CG1      -15.2060  -32.9800  -12.8790 C.3    36  VAL36       0.0020
     39  CG2      -16.1730  -30.8290  -11.9650 C.3    36  VAL36       0.0020
     40  N        -16.5070  -29.6320  -15.4060 N.am   37  GLY37      -0.1942
     41  CA       -17.3900  -28.5260  -15.7780 C.3    37  GLY37       0.2014
     42  C        -16.8130  -27.6130  -16.8370 C.2    37  GLY37       0.2639
     43  O        -15.7380  -27.8720  -17.3750 O.2    37  GLY37      -0.2714
     44  N        -17.5540  -26.5490  -17.1400 N.am   38  ASN38      -0.1958
     45  CA       -17.1010  -25.5010  -18.0450 C.3    38  ASN38       0.1819
     46  C        -16.1020  -24.6290  -17.2990 C.2    38  ASN38       0.2621
     47  O        -16.4520  -23.5600  -16.7890 O.2    38  ASN38      -0.2715
     48  CB       -18.2890  -24.6600  -18.5200 C.3    38  ASN38       0.1195
     49  CG       -17.8740  -23.2970  -19.0430 C.2    38  ASN38       0.2630
     50  OD1      -16.6900  -22.9480  -19.0400 O.2    38  ASN38      -0.2716
     51  ND2      -18.8530  -22.5130  -19.4980 N.am   38  ASN38      -0.0877
     52  N        -14.8640  -25.1100  -17.2350 N.am   39  ALA39      -0.1977
     53  CA       -13.8160  -24.5070  -16.4160 C.3    39  ALA39       0.1597
     54  C        -12.4540  -24.9120  -16.9600 C.2    39  ALA39       0.2287
     55  O        -12.2700  -26.0440  -17.4320 O.2    39  ALA39      -0.2864
     56  CB       -13.9670  -24.9490  -14.9540 C.3    39  ALA39       0.0319
     57  N        -17.0950  -18.7140  -11.5770 N.3    68  TRP68      -0.1241
     58  CA       -16.4910  -19.4710  -12.6940 C.3    68  TRP68       0.1605
     59  C        -16.2120  -18.5910  -13.9170 C.2    68  TRP68       0.2264
     60  O        -16.6510  -18.8700  -15.0350 O.2    68  TRP68      -0.2867
     61  CB       -17.3570  -20.6760  -13.0330 C.3    68  TRP68       0.0550
     62  CG       -17.4480  -21.6410  -11.8820 C.ar   68  TRP68       0.0003
     63  CD1      -18.5600  -21.9320  -11.1150 C.ar   68  TRP68       0.0946
     64  CD2      -16.3790  -22.4590  -11.3790 C.ar   68  TRP68       0.0152
     65  NE1      -18.2330  -22.8730  -10.1580 N.ar   68  TRP68      -0.2442
     66  CE2      -16.8980  -23.2000  -10.2880 C.ar   68  TRP68       0.0810
     67  CE3      -15.0160  -22.6270  -11.7330 C.ar   68  TRP68       0.0012
     68  CZ2      -16.1170  -24.0920   -9.5570 C.ar   68  TRP68       0.0191
     69  CZ3      -14.2400  -23.5430  -11.0080 C.ar   68  TRP68       0.0001
     70  CH2      -14.7940  -24.2520   -9.9280 C.ar   68  TRP68       0.0015
     71  N        -18.5820  -19.3840  -17.1550 N.3    75  ALA75      -0.1245
     72  CA       -19.7270  -20.2840  -17.1250 C.3    75  ALA75       0.1562
     73  C        -20.9530  -19.6030  -16.5220 C.2    75  ALA75       0.2260
     74  O        -21.9800  -20.2490  -16.3340 O.2    75  ALA75      -0.2867
     75  CB       -19.4180  -21.5660  -16.3370 C.3    75  ALA75       0.0290
     76  N        -21.6830  -18.6480  -13.5090 N.3    77  SER77      -0.1217
     77  CA       -22.0540  -19.4660  -12.3600 C.3    77  SER77       0.1889
     78  C        -21.0210  -19.2770  -11.2640 C.2    77  SER77       0.2288
     79  O        -19.9060  -18.7560  -11.4890 O.2    77  SER77      -0.2866
     80  CB       -22.1450  -20.9390  -12.7680 C.3    77  SER77       0.2089
     81  OG       -20.8670  -21.3890  -13.1400 O.3    77  SER77      -0.2183
     82  N        -19.7660  -21.2280   -7.3620 N.3    79  SER79      -0.1217
     83  CA       -19.9360  -22.2990   -6.3730 C.3    79  SER79       0.1889
     84  C        -19.4450  -21.8020   -5.0140 C.2    79  SER79       0.2288
     85  O        -18.4460  -21.0580   -4.9040 O.2    79  SER79      -0.2866
     86  CB       -19.0340  -23.4650   -6.7560 C.3    79  SER79       0.2089
     87  OG       -19.4770  -24.0750   -7.9600 O.3    79  SER79      -0.2183
     88  N        -18.4230  -23.5650   -1.2450 N.3    81  TRP81      -0.1241
     89  CA       -18.1560  -24.7620   -0.4590 C.3    81  TRP81       0.1605
     90  C        -18.2790  -24.3970    1.0160 C.2    81  TRP81       0.2264
     91  O        -17.6510  -23.4280    1.4730 O.2    81  TRP81      -0.2867
     92  CB       -16.7050  -25.1840   -0.7070 C.3    81  TRP81       0.0550
     93  CG       -16.4270  -25.8540   -2.0280 C.ar   81  TRP81       0.0003
     94  CD1      -16.2530  -27.2110   -2.2430 C.ar   81  TRP81       0.0946
     95  CD2      -16.2080  -25.2060   -3.2860 C.ar   81  TRP81       0.0152
     96  NE1      -15.9670  -27.4240   -3.5790 N.ar   81  TRP81      -0.2442
     97  CE2      -15.9010  -26.2130   -4.2280 C.ar   81  TRP81       0.0810
     98  CE3      -16.2450  -23.8700   -3.7150 C.ar   81  TRP81       0.0012
     99  CZ2      -15.6490  -25.9340   -5.5780 C.ar   81  TRP81       0.0191
    100  CZ3      -15.9750  -23.5970   -5.0580 C.ar   81  TRP81       0.0001
    101  CH2      -15.6500  -24.6230   -5.9580 C.ar   81  TRP81       0.0015
    102  N        -21.2920  -28.4470   -1.3370 N.3    97  VAL97      -0.1245
    103  CA       -21.0730  -27.4110   -2.3270 C.3    97  VAL97       0.1561
    104  C        -22.3370  -27.0570   -3.0530 C.2    97  VAL97       0.2260
    105  O        -23.0460  -27.9450   -3.5250 O.2    97  VAL97      -0.2867
    106  CB       -19.9060  -27.7810   -3.2940 C.3    97  VAL97       0.0252
    107  CG1      -20.0670  -29.1480   -3.8980 C.3    97  VAL97       0.0019
    108  CG2      -19.6760  -26.6980   -4.3170 C.3    97  VAL97       0.0019
    109  N        -23.7770  -24.8740   -6.3470 N.3    99  THR99      -0.1218
    110  CA       -23.3400  -24.2140   -7.5830 C.3    99  THR99       0.1862
    111  C        -24.5550  -23.5790   -8.2150 C.2    99  THR99       0.2287
    112  O        -25.4810  -24.2490   -8.7040 O.2    99  THR99      -0.2866
    113  CB       -22.7010  -25.2170   -8.5250 C.3    99  THR99       0.1770
    114  OG1      -21.5760  -25.8080   -7.8760 O.3    99  THR99      -0.2211
    115  CG2      -22.2560  -24.5180   -9.8340 C.3    99  THR99       0.0375
    116  N        -26.1190  -21.1800  -11.1920 N.3   101  SER101     -0.1217
    117  CA       -25.9530  -20.5630  -12.5030 C.3   101  SER101      0.1889
    118  C        -26.9450  -19.4400  -12.6560 C.2   101  SER101      0.2288
    119  O        -28.0810  -19.5230  -12.1700 O.2   101  SER101     -0.2866
    120  CB       -26.1980  -21.6050  -13.5850 C.3   101  SER101      0.2089
    121  OG       -25.1910  -22.6190  -13.5070 O.3   101  SER101     -0.2183
    122  N        -27.1990  -26.4200   -8.1200 N.3   113  LEU113     -0.1245
    123  CA       -26.8100  -27.8140   -7.8460 C.3   113  LEU113      0.1561
    124  C        -26.3320  -27.9180   -6.4300 C.2   113  LEU113      0.2260
    125  O        -25.7270  -26.9770   -5.8730 O.2   113  LEU113     -0.2867
    126  CB       -25.6770  -28.2400   -8.8130 C.3   113  LEU113      0.0270
    127  CG       -26.0080  -28.1920  -10.2970 C.3   113  LEU113      0.0019
    128  CD1      -24.6550  -28.2250  -11.0370 C.3   113  LEU113      0.0001
    129  CD2      -26.8950  -29.4210  -10.6040 C.3   113  LEU113      0.0001
    130  N        -17.7620  -32.4550   -1.6090 N.3   117  ASP117     -0.1239
    131  CA       -16.3560  -32.5170   -2.0620 C.3   117  ASP117      0.1674
    132  C        -15.5520  -32.8140   -0.7860 C.2   117  ASP117      0.2266
    133  O        -15.7430  -32.1600    0.2390 O.2   117  ASP117     -0.2867
    134  CB       -15.9250  -31.1430   -2.6520 C.3   117  ASP117      0.1410
    135  CG       -15.4830  -31.1720   -4.1660 C.2   117  ASP117      0.3668
    136  OD1      -15.0060  -32.2030   -4.6900 O.co2 117  ASP117     -0.2456
    137  OD2      -15.5570  -30.1010   -4.8220 O.co2 117  ASP117     -0.2456
@<TRIPOS>BOND
     1    51    49   am
     2    49    50    2
     3    49    48    1
     4    48    45    1
     5    45    46    1
     6    45    44    1
     7    55    54    2
     8    43    42    2
     9    46    52   am
    10    46    47    2
    11    52    53    1
    12    71    72    1
    13    44    42   am
    14    72    73    1
    15    72    75    1
    16    54    53    1
    17    42    41    1
    18    73    74    2
    19    53    56    1
    20    41    40    1
    21    40    35   am
    22    60    59    2
    23    35    34    1
    24    35    36    2
    25    34    33    1
    26    34    37    1
    27    59    58    1
    28   120   121    1
    29   120   117    1
    30    30    29    2
    31    76    77    1
    32    37    38    1
    33    37    39    1
    34    81    80    1
    35    61    58    1
    36    61    62    1
    37    80    77    1
    38    58    57    1
    39   118   117    1
    40   118   119    2
    41   117   116    1
    42    29    28    1
    43    77    78    1
    44    62    64   ar
    45    62    63   ar
    46    31    32    1
    47    31    28    1
    48    67    64   ar
    49    67    69   ar
    50    79    78    2
    51    28    27    1
    52    64    66   ar
    53    63    65   ar
    54   128   127    1
    55    69    70   ar
    56   129   127    1
    57     4     3    2
    58   127   126    1
    59    66    65   ar
    60    66    68   ar
    61    70    68   ar
    62    18    17    2
    63   115   113    1
    64     3     2    1
    65    14    13    1
    66     5     2    1
    67     5     6    1
    68    17    16    1
    69     8     6    1
    70   126   123    1
    71   112   111    2
    72     9    10    1
    73     7     6    1
    74    10    13    1
    75    10    11    1
    76     2     1    1
    77   113   114    1
    78   113   110    1
    79   111   110    1
    80   122   123    1
    81    87    86    1
    82    21    23   ar
    83    21    20   ar
    84   123   124    1
    85    23    25   ar
    86    11    12    2
    87   110   109    1
    88    16    15    1
    89    16    19    1
    90    82    83    1
    91    19    20    1
    92    20    22   ar
    93    86    83    1
    94   124   125    2
    95    25    26    1
    96    25    24   ar
    97    83    84    1
    98   101    99   ar
    99   101   100   ar
   100    22    24   ar
   101    99    97   ar
   102   100    98   ar
   103    84    85    2
   104   137   135   ar
   105   136   135   ar
   106   108   106    1
   107    97    96   ar
   108    97    95   ar
   109   135   134    1
   110   107   106    1
   111    98    95   ar
   112    96    94   ar
   113   105   104    2
   114   106   103    1
   115    95    93   ar
   116   104   103    1
   117   134   131    1
   118   103   102    1
   119    94    93   ar
   120   131   130    1
   121   131   132    1
   122    93    92    1
   123    88    89    1
   124   132   133    2
   125    92    89    1
   126    89    90    1
   127    90    91    2
