@<TRIPOS>MOLECULE
tmp/3rdvB00.pdb
 144 139 0 0 0
SMALL
GASTEIGER

@<TRIPOS>ATOM
      1  N         16.8570  -22.1190   10.8010 N.3    10  VAL10      -0.1231
      2  CA        17.9670  -22.4670   11.6780 C.3    10  VAL10       0.1692
      3  C         18.9180  -21.2690   11.7150 C.2    10  VAL10       0.2592
      4  O         19.2870  -20.7230   10.6640 O.2    10  VAL10      -0.2718
      5  CB        18.7260  -23.7040   11.1790 C.3    10  VAL10       0.0266
      6  CG1       19.8830  -24.0240   12.1270 C.3    10  VAL10       0.0020
      7  CG2       17.8000  -24.8890   11.0610 C.3    10  VAL10       0.0020
      8  N         19.2720  -20.8280   12.9250 N.am   11  ASN11      -0.1974
      9  CA        20.1170  -19.6410   13.1260 C.3    11  ASN11       0.1688
     10  C         19.6190  -18.4000   12.4010 C.2    11  ASN11       0.2292
     11  O         20.4110  -17.5700   11.9660 O.2    11  ASN11      -0.2864
     12  CB        21.5630  -19.9130   12.7260 C.3    11  ASN11       0.1181
     13  CG        22.2430  -20.8810   13.6500 C.2    11  ASN11       0.2629
     14  OD1       21.8080  -21.0920   14.7870 O.2    11  ASN11      -0.2716
     15  ND2       23.3300  -21.4830   13.1740 N.am   11  ASN11      -0.0877
     16  N         18.6840  -20.1240    7.7980 N.3    14  LYS14      -0.1245
     17  CA        18.6210  -21.3490    7.0220 C.3    14  LYS14       0.1561
     18  C         17.2110  -21.9000    7.1300 C.2    14  LYS14       0.2260
     19  O         16.8420  -22.4700    8.1380 O.2    14  LYS14      -0.2867
     20  CB        19.6310  -22.3710    7.5340 C.3    14  LYS14       0.0271
     21  CG        21.0580  -21.8760    7.6320 C.3    14  LYS14       0.0035
     22  CD        21.5570  -21.1460    6.3830 C.3    14  LYS14       0.0206
     23  CE        23.0110  -20.6650    6.6110 C.3    14  LYS14       0.1093
     24  NZ        23.6890  -20.1310    5.3900 N.3    14  LYS14      -0.1314
     25  N         22.2000  -40.2010   19.6760 N.3    26  PHE26      -0.1227
     26  CA        23.5190  -39.6210   19.4150 C.3    26  PHE26       0.1736
     27  C         24.0190  -38.6010   20.4400 C.2    26  PHE26       0.2595
     28  O         25.2300  -38.3890   20.5450 O.2    26  PHE26      -0.2718
     29  CB        23.6410  -39.0800   17.9700 C.3    26  PHE26       0.0547
     30  CG        22.6280  -38.0180   17.6120 C.ar   26  PHE26      -0.0202
     31  CD1       22.7890  -36.7000   18.0370 C.ar   26  PHE26      -0.0042
     32  CD2       21.5390  -38.3340   16.8150 C.ar   26  PHE26      -0.0042
     33  CE1       21.8520  -35.7180   17.6910 C.ar   26  PHE26      -0.0003
     34  CE2       20.6120  -37.3580   16.4580 C.ar   26  PHE26      -0.0003
     35  CZ        20.7560  -36.0670   16.9050 C.ar   26  PHE26      -0.0000
     36  N         23.1060  -38.0050   21.2160 N.am   27  ALA27      -0.1980
     37  CA        23.4750  -37.0290   22.2560 C.3    27  ALA27       0.1597
     38  C         22.2630  -36.7380   23.1190 C.2    27  ALA27       0.2287
     39  O         21.1370  -36.8950   22.6490 O.2    27  ALA27      -0.2864
     40  CB        23.9900  -35.7240   21.6080 C.3    27  ALA27       0.0319
     41  N         16.3770  -32.6090   20.5280 N.3    31  TRP31      -0.1241
     42  CA        16.8660  -32.2920   19.1930 C.3    31  TRP31       0.1605
     43  C         15.7230  -32.0470   18.2120 C.2    31  TRP31       0.2264
     44  O         14.6780  -32.6950   18.2830 O.2    31  TRP31      -0.2867
     45  CB        17.7200  -33.4640   18.7010 C.3    31  TRP31       0.0550
     46  CG        18.9500  -33.6030   19.5000 C.ar   31  TRP31       0.0003
     47  CD1       19.1810  -34.4430   20.5470 C.ar   31  TRP31       0.0946
     48  CD2       20.1210  -32.8100   19.3490 C.ar   31  TRP31       0.0152
     49  NE1       20.4480  -34.2270   21.0490 N.ar   31  TRP31      -0.2442
     50  CE2       21.0390  -33.2240   20.3220 C.ar   31  TRP31       0.0810
     51  CE3       20.4780  -31.7810   18.4690 C.ar   31  TRP31       0.0012
     52  CZ2       22.3070  -32.6500   20.4460 C.ar   31  TRP31       0.0191
     53  CZ3       21.7390  -31.2110   18.5910 C.ar   31  TRP31       0.0001
     54  CH2       22.6370  -31.6470   19.5740 C.ar   31  TRP31       0.0015
     55  N         16.0620  -29.0700    5.2570 N.3    36  LEU36      -0.1245
     56  CA        16.4670  -27.7380    4.8120 C.3    36  LEU36       0.1561
     57  C         16.0440  -27.5290    3.3720 C.2    36  LEU36       0.2260
     58  O         16.0250  -28.4860    2.5890 O.2    36  LEU36      -0.2867
     59  CB        17.9920  -27.5920    4.9590 C.3    36  LEU36       0.0270
     60  CG        18.5860  -27.6000    6.3720 C.3    36  LEU36       0.0019
     61  CD1       20.1080  -27.7380    6.3340 C.3    36  LEU36       0.0001
     62  CD2       18.1810  -26.3280    7.1520 C.3    36  LEU36       0.0001
     63  N         22.4730  -28.0750    2.3480 N.3    40  ILE40      -0.1231
     64  CA        23.6220  -27.5770    3.0930 C.3    40  ILE40       0.1692
     65  C         23.7240  -28.2130    4.4820 C.2    40  ILE40       0.2593
     66  O         24.4170  -27.6920    5.3670 O.2    40  ILE40      -0.2718
     67  CB        23.5220  -26.0610    3.2690 C.3    40  ILE40       0.0266
     68  CG1       22.2400  -25.7260    4.0270 C.3    40  ILE40       0.0019
     69  CG2       23.5660  -25.3700    1.9170 C.3    40  ILE40       0.0020
     70  CD1       22.0140  -24.2690    4.2220 C.3    40  ILE40       0.0001
     71  N         23.0420  -29.3410    4.6600 N.am   41  GLY41      -0.1942
     72  CA        23.0100  -30.0180    5.9450 C.3    41  GLY41       0.2014
     73  C         24.0610  -31.1010    6.0710 C.2    41  GLY41       0.2639
     74  O         25.0980  -31.0650    5.4030 O.2    41  GLY41      -0.2714
     75  N         23.7810  -32.0800    6.9240 N.am   42  LYS42      -0.1963
     76  CA        24.7680  -33.0950    7.2810 C.3    42  LYS42       0.1728
     77  C         24.3310  -34.5360    7.0000 C.2    42  LYS42       0.2616
     78  O         25.1510  -35.4570    7.0300 O.2    42  LYS42      -0.2715
     79  CB        25.1030  -32.9630    8.7640 C.3    42  LYS42       0.0311
     80  CG        25.7630  -31.6460    9.1420 C.3    42  LYS42       0.0038
     81  CD        26.1340  -31.6260   10.6040 C.3    42  LYS42       0.0206
     82  CE        27.0970  -32.7570   10.9110 C.3    42  LYS42       0.1093
     83  NZ        27.3410  -32.9070   12.3700 N.3    42  LYS42      -0.1314
     84  N         23.0480  -34.7420    6.7270 N.am   43  ASN43      -0.1972
     85  CA        22.5240  -36.1040    6.7140 C.3    43  ASN43       0.1688
     86  C         21.2320  -36.2230    5.9280 C.2    43  ASN43       0.2292
     87  O         20.7550  -35.2380    5.3530 O.2    43  ASN43      -0.2864
     88  CB        22.3270  -36.6060    8.1480 C.3    43  ASN43       0.1181
     89  CG        21.3330  -35.7640    8.9360 C.2    43  ASN43       0.2629
     90  OD1       20.1540  -35.7270    8.6170 O.2    43  ASN43      -0.2716
     91  ND2       21.8150  -35.0770    9.9720 N.am   43  ASN43      -0.0877
     92  N         21.3170  -40.6440   11.5970 N.3    47  VAL47      -0.1245
     93  CA        22.6360  -40.4150   12.1880 C.3    47  VAL47       0.1561
     94  C         23.1250  -41.7600   12.7620 C.2    47  VAL47       0.2260
     95  O         22.4250  -42.3940   13.5570 O.2    47  VAL47      -0.2867
     96  CB        22.5950  -39.3640   13.3420 C.3    47  VAL47       0.0252
     97  CG1       23.9980  -39.1780   13.9860 C.3    47  VAL47       0.0019
     98  CG2       22.0870  -38.0250   12.8500 C.3    47  VAL47       0.0019
     99  N         19.3900  -31.9020    9.0620 N.3    61  ILE61      -0.1231
    100  CA        20.3160  -31.4880   10.1170 C.3    61  ILE61       0.1692
    101  C         19.5910  -31.5880   11.4500 C.2    61  ILE61       0.2592
    102  O         18.3590  -31.4210   11.5040 O.2    61  ILE61      -0.2718
    103  CB        20.8390  -30.0570    9.8880 C.3    61  ILE61       0.0266
    104  CG1       21.9350  -29.7270   10.9070 C.3    61  ILE61       0.0019
    105  CG2       19.7010  -29.0220    9.9940 C.3    61  ILE61       0.0020
    106  CD1       22.8140  -28.5910   10.4850 C.3    61  ILE61       0.0001
    107  N         20.3350  -31.8970   12.5140 N.am   62  PHE62      -0.1962
    108  CA        19.7550  -31.9240   13.8390 C.3    62  PHE62       0.1771
    109  C         20.3460  -30.7780   14.6420 C.2    62  PHE62       0.2620
    110  O         21.5640  -30.6340   14.7240 O.2    62  PHE62      -0.2715
    111  CB        20.0470  -33.2640   14.5430 C.3    62  PHE62       0.0574
    112  CG        19.3110  -34.4220   13.9470 C.ar   62  PHE62      -0.0200
    113  CD1       19.8600  -35.1480   12.8960 C.ar   62  PHE62      -0.0042
    114  CD2       18.0520  -34.7520   14.3990 C.ar   62  PHE62      -0.0042
    115  CE1       19.1590  -36.2220   12.3250 C.ar   62  PHE62      -0.0003
    116  CE2       17.3460  -35.8070   13.8320 C.ar   62  PHE62      -0.0003
    117  CZ        17.9080  -36.5480   12.8050 C.ar   62  PHE62      -0.0000
    118  N         19.4830  -29.9760   15.2530 N.am   63  THR63      -0.1937
    119  CA        19.9640  -28.8430   16.0100 C.3    63  THR63       0.2028
    120  C         19.1220  -28.6960   17.2610 C.2    63  THR63       0.2642
    121  O         18.0500  -29.2480   17.3430 O.2    63  THR63      -0.2714
    122  CB        19.9100  -27.5480   15.1570 C.3    63  THR63       0.1808
    123  OG1       20.6730  -26.5250   15.8030 O.3    63  THR63      -0.2208
    124  CG2       18.4880  -27.0950   14.9780 C.3    63  THR63       0.0379
    125  N         19.6240  -27.9660   18.2500 N.am   64  ARG64      -0.1977
    126  CA        18.8390  -27.7050   19.4480 C.3    64  ARG64       0.1597
    127  C         17.6780  -26.7910   19.1250 C.2    64  ARG64       0.2287
    128  O         17.7950  -25.8900   18.2870 O.2    64  ARG64      -0.2864
    129  CB        19.7020  -27.0250   20.5050 C.3    64  ARG64       0.0334
    130  CG        20.8690  -27.8510   20.9560 C.3    64  ARG64       0.0492
    131  CD        20.4030  -29.1200   21.6740 C.3    64  ARG64       0.2205
    132  NE        21.4880  -29.7040   22.4510 N.pl3  64  ARG64      -0.0865
    133  CZ        21.4080  -30.8690   23.0810 C.cat  64  ARG64       0.5346
    134  NH1       20.2910  -31.5780   23.0330 N.pl3  64  ARG64       0.1354
    135  NH2       22.4460  -31.3190   23.7610 N.pl3  64  ARG64       0.1354
    136  N         17.9360  -22.9810   18.7680 N.3    67  LYS67      -0.1245
    137  CA        18.5100  -22.3260   17.5940 C.3    67  LYS67       0.1561
    138  C         17.4800  -22.0140   16.5040 C.2    67  LYS67       0.2260
    139  O         17.8300  -21.4510   15.4660 O.2    67  LYS67      -0.2867
    140  CB        19.6410  -23.1520   16.9890 C.3    67  LYS67       0.0271
    141  CG        20.7470  -23.5080   17.9760 C.3    67  LYS67       0.0035
    142  CD        21.4870  -22.2710   18.4280 C.3    67  LYS67       0.0206
    143  CE        22.6940  -22.6360   19.2760 C.3    67  LYS67       0.1093
    144  NZ        23.5190  -23.6520   18.5700 N.3    67  LYS67      -0.1314
@<TRIPOS>BOND
     1    69    67    1
     2    63    64    1
     3    58    57    2
     4    64    67    1
     5    64    65    1
     6    67    68    1
     7    57    56    1
     8    68    70    1
     9    65    71   am
    10    65    66    2
    11    71    72    1
    12    56    59    1
    13    56    55    1
    14    59    60    1
    15    87    86    2
    16    24    23    1
    17    74    73    2
    18    86    85    1
    19    72    73    1
    20    73    75   am
    21    61    60    1
    22    60    62    1
    23    22    23    1
    24    22    21    1
    25    85    84    1
    26    85    88    1
    27    84    77   am
    28    75    76    1
    29    77    78    2
    30    77    76    1
    31    17    18    1
    32    17    20    1
    33    17    16    1
    34    18    19    2
    35    76    79    1
    36    20    21    1
    37    88    89    1
    38    90    89    2
    39    79    80    1
    40    89    91   am
    41    99   100    1
    42    80    81    1
    43   103   105    1
    44   103   100    1
    45   103   104    1
    46   100   101    1
    47   106   104    1
    48    81    82    1
    49     4     3    2
    50     1     2    1
    51    82    83    1
    52     7     5    1
    53     5     2    1
    54     5     6    1
    55   101   102    2
    56   101   107   am
    57    92    93    1
    58     2     3    1
    59     3     8   am
    60    11    10    2
    61    93    94    1
    62    93    96    1
    63   115   117   ar
    64   115   113   ar
    65    10     9    1
    66   107   108    1
    67    12     9    1
    68    12    13    1
    69    94    95    2
    70   117   116   ar
    71    98    96    1
    72   113   112   ar
    73     8     9    1
    74    15    13   am
    75    96    97    1
    76    13    14    2
    77   116   114   ar
    78   108   111    1
    79   108   109    1
    80   112   114   ar
    81   112   111    1
    82   109   110    2
    83   109   118   am
    84   124   122    1
    85   122   123    1
    86   122   119    1
    87   118   119    1
    88   139   138    2
    89   119   120    1
    90    34    32   ar
    91    34    35   ar
    92   138   137    1
    93    32    30   ar
    94    35    33   ar
    95   140   137    1
    96   140   141    1
    97   120   121    2
    98   120   125   am
    99   137   136    1
   100    30    29    1
   101    30    31   ar
   102    33    31   ar
   103    29    26    1
   104   141   142    1
   105    43    44    2
   106    43    42    1
   107   125   126    1
   108   128   127    2
   109   142   143    1
   110    51    53   ar
   111    51    48   ar
   112   144   143    1
   113    53    54   ar
   114    45    42    1
   115    45    46    1
   116   127   126    1
   117    42    41    1
   118    48    46   ar
   119    48    50   ar
   120    26    25    1
   121    26    27    1
   122   126   129    1
   123    46    47   ar
   124    54    52   ar
   125    50    52   ar
   126    50    49   ar
   127    27    28    2
   128    27    36   am
   129   129   130    1
   130    47    49   ar
   131   130   131    1
   132    36    37    1
   133    40    37    1
   134   131   132    1
   135    37    38    1
   136   132   133    2
   137    39    38    2
   138   134   133    1
   139   133   135    1
