@<TRIPOS>MOLECULE
tmp/3re4A00.pdb
 151 142 0 0 0
SMALL
GASTEIGER

@<TRIPOS>ATOM
      1  N          1.0840    0.8650   26.8150 N.3    53  ILE53      -0.1231
      2  CA         2.0620    1.4930   25.9360 C.3    53  ILE53       0.1692
      3  C          2.5680    0.5490   24.8590 C.2    53  ILE53       0.2592
      4  O          2.6930    0.9360   23.6940 O.2    53  ILE53      -0.2718
      5  CB         3.2870    2.0160   26.7110 C.3    53  ILE53       0.0266
      6  CG1        2.8430    2.8990   27.8800 C.3    53  ILE53       0.0019
      7  CG2        4.1820    2.7930   25.7700 C.3    53  ILE53       0.0020
      8  CD1        1.8070    3.9210   27.4590 C.3    53  ILE53       0.0001
      9  N          2.8940   -0.6850   25.2360 N.am   54  SER54      -0.1952
     10  CA         3.4300   -1.6130   24.2580 C.3    54  SER54       0.1924
     11  C          3.0650   -3.0140   24.6350 C.2    54  SER54       0.2314
     12  O          3.0510   -3.3430   25.8110 O.2    54  SER54      -0.2863
     13  CB         4.9570   -1.5030   24.1930 C.3    54  SER54       0.2116
     14  OG         5.4890   -2.5780   23.4360 O.3    54  SER54      -0.2180
     15  N          4.4400   -3.1540   28.1560 N.3    61  VAL61      -0.1245
     16  CA         4.7360   -1.9230   28.8910 C.3    61  VAL61       0.1561
     17  C          3.4630   -1.1180   29.1170 C.2    61  VAL61       0.2260
     18  O          2.7060   -0.9120   28.1700 O.2    61  VAL61      -0.2867
     19  CB         5.7790   -1.0360   28.1520 C.3    61  VAL61       0.0252
     20  CG1        5.9570    0.3300   28.8510 C.3    61  VAL61       0.0019
     21  CG2        7.1360   -1.7470   28.0080 C.3    61  VAL61       0.0019
     22  N          6.6260    4.1670   33.8590 N.3    76  ALA76      -0.1245
     23  CA         6.4460    3.1310   32.8890 C.3    76  ALA76       0.1562
     24  C          6.5910    1.8750   33.7120 C.2    76  ALA76       0.2260
     25  O          7.5050    1.7390   34.5280 O.2    76  ALA76      -0.2867
     26  CB         7.5060    3.2080   31.7950 C.3    76  ALA76       0.0290
     27  N          7.1880   -1.9640   33.2330 N.3    78  LYS78      -0.1245
     28  CA         7.5460   -2.9370   32.2090 C.3    78  LYS78       0.1561
     29  C          7.4540   -4.3330   32.7970 C.2    78  LYS78       0.2260
     30  O          8.0430   -4.6200   33.8310 O.2    78  LYS78      -0.2867
     31  CB         8.9320   -2.6520   31.5890 C.3    78  LYS78       0.0271
     32  CG         9.4040   -3.7200   30.5910 C.3    78  LYS78       0.0035
     33  CD        10.7320   -3.3390   29.9250 C.3    78  LYS78       0.0206
     34  CE        11.2900   -4.5150   29.1130 C.3    78  LYS78       0.1093
     35  NZ        12.7230   -4.2700   28.7150 N.3    78  LYS78      -0.1314
     36  N         17.7370   -6.5110   34.3950 N.3   114  GLU114     -0.1245
     37  CA        17.4530   -5.2160   33.7990 C.3   114  GLU114      0.1567
     38  C         17.4870   -4.1140   34.8790 C.2   114  GLU114      0.2260
     39  O         18.1440   -3.0870   34.6960 O.2   114  GLU114     -0.2867
     40  CB        16.1460   -5.1990   32.9920 C.3   114  GLU114      0.0388
     41  CG        15.9040   -3.8470   32.3390 C.3   114  GLU114      0.1160
     42  CD        14.8860   -3.8750   31.1780 C.2   114  GLU114      0.3649
     43  OE1       14.0820   -4.8260   31.0810 O.co2 114  GLU114     -0.2457
     44  OE2       14.8980   -2.9180   30.3750 O.co2 114  GLU114     -0.2457
     45  N         15.9630    5.5610   31.7920 N.3   129  PRO129     -0.2116
     46  CA        14.9010    6.0030   32.7020 C.3   129  PRO129      0.1372
     47  C         15.3020    5.7220   34.1330 C.2   129  PRO129      0.2244
     48  O         15.8450    4.6410   34.3940 O.2   129  PRO129     -0.2868
     49  CB        13.7050    5.1080   32.3350 C.3   129  PRO129      0.0268
     50  CG        14.0400    4.5200   30.9780 C.3   129  PRO129      0.0207
     51  CD        15.5310    4.4210   30.9540 C.3   129  PRO129      0.0892
     52  N          9.6330    2.1360   36.5240 N.3   141  MET141     -0.1230
     53  CA        10.6890    3.0970   36.2210 C.3   141  MET141      0.1702
     54  C         10.1360    4.4440   35.7610 C.2   141  MET141      0.2592
     55  O          8.9230    4.6160   35.5800 O.2   141  MET141     -0.2718
     56  CB        11.6200    2.5340   35.1610 C.3   141  MET141      0.0401
     57  CG        10.9910    2.5680   33.7290 C.3   141  MET141      0.0596
     58  SD        12.0930    1.8250   32.5040 S.3   141  MET141     -0.1393
     59  CE        11.7180    0.0870   32.7990 C.3   141  MET141      0.0692
     60  N         11.0390    5.3940   35.5440 N.am  142  GLU142     -0.1966
     61  CA        10.6570    6.7240   35.1350 C.3   142  GLU142      0.1733
     62  C          9.9280    6.6900   33.7900 C.2   142  GLU142      0.2616
     63  O         10.3870    6.0110   32.8770 O.2   142  GLU142     -0.2715
     64  CB        11.9200    7.5480   34.9630 C.3   142  GLU142      0.0429
     65  CG        11.6750    8.9670   34.4770 C.3   142  GLU142      0.1163
     66  CD        12.9780    9.7180   34.2780 C.2   142  GLU142      0.3649
     67  OE1       14.0510    9.0720   34.3650 O.co2 142  GLU142     -0.2457
     68  OE2       12.9280   10.9510   34.0390 O.co2 142  GLU142     -0.2457
     69  N          8.8070    7.4120   33.6610 N.am  143  PHE143     -0.1960
     70  CA         8.0920    7.5010   32.3710 C.3   143  PHE143      0.1771
     71  C          8.7490    8.5220   31.4300 C.2   143  PHE143      0.2619
     72  O          8.8280    9.7070   31.7610 O.2   143  PHE143     -0.2715
     73  CB         6.5990    7.8800   32.5590 C.3   143  PHE143      0.0574
     74  CG         5.7880    7.8560   31.2510 C.ar  143  PHE143     -0.0200
     75  CD1        5.3970    6.6560   30.6780 C.ar  143  PHE143     -0.0042
     76  CD2        5.4220    9.0360   30.6190 C.ar  143  PHE143     -0.0042
     77  CE1        4.6660    6.6430   29.4740 C.ar  143  PHE143     -0.0003
     78  CE2        4.6960    9.0270   29.4330 C.ar  143  PHE143     -0.0003
     79  CZ         4.3180    7.8340   28.8630 C.ar  143  PHE143     -0.0000
     80  N          9.2040    8.0690   30.2620 N.am  144  ILE144     -0.1977
     81  CA         9.8310    8.9690   29.3200 C.3   144  ILE144      0.1596
     82  C          8.7800    9.4800   28.3370 C.2   144  ILE144      0.2287
     83  O          8.3450    8.7620   27.4290 O.2   144  ILE144     -0.2864
     84  CB        10.9870    8.2840   28.5450 C.3   144  ILE144      0.0276
     85  CG1       11.9760    7.6700   29.5260 C.3   144  ILE144      0.0022
     86  CG2       11.6830    9.2890   27.6840 C.3   144  ILE144      0.0022
     87  CD1       12.5600    8.6710   30.4910 C.3   144  ILE144      0.0001
     88  N          4.2690    8.3230   25.5540 N.3   150  PRO150     -0.2102
     89  CA         5.7130    8.0790   25.4890 C.3   150  PRO150      0.1504
     90  C          6.4260    8.9280   24.4350 C.2   150  PRO150      0.2575
     91  O          5.8940    9.2050   23.3490 O.2   150  PRO150     -0.2718
     92  CB         5.7950    6.6160   25.0840 C.3   150  PRO150      0.0282
     93  CG         4.4840    6.0350   25.5090 C.3   150  PRO150      0.0208
     94  CD         3.4930    7.1080   25.2680 C.3   150  PRO150      0.0893
     95  N          7.6400    9.3400   24.7770 N.am  151  ALA151     -0.1980
     96  CA         8.5240    9.9830   23.8360 C.3   151  ALA151      0.1597
     97  C          8.6500    9.0280   22.6700 C.2   151  ALA151      0.2287
     98  O          8.6260    7.8220   22.8580 O.2   151  ALA151     -0.2864
     99  CB         9.8550   10.1950   24.4600 C.3   151  ALA151      0.0319
    100  N         10.5040    6.7860   19.9020 N.3   153  THR153     -0.1218
    101  CA        11.7660    6.1580   19.5810 C.3   153  THR153      0.1862
    102  C         12.3280    6.7580   18.2990 C.2   153  THR153      0.2287
    103  O         11.6080    7.4200   17.5360 O.2   153  THR153     -0.2866
    104  CB        11.5770    4.6600   19.3640 C.3   153  THR153      0.1770
    105  OG1       10.6830    4.4680   18.2720 O.3   153  THR153     -0.2211
    106  CG2       10.9820    4.0200   20.5840 C.3   153  THR153      0.0375
    107  N         10.4170    5.7160   15.2460 N.3   156  GLU156     -0.1245
    108  CA         9.1480    6.4730   15.2080 C.3   156  GLU156      0.1567
    109  C          9.3230    7.9180   14.7240 C.2   156  GLU156      0.2260
    110  O          8.4150    8.5180   14.1280 O.2   156  GLU156     -0.2867
    111  CB         8.4730    6.4670   16.5850 C.3   156  GLU156      0.0388
    112  CG         7.5710    5.2780   16.7980 C.3   156  GLU156      0.1160
    113  CD         7.3410    4.9840   18.2610 C.2   156  GLU156      0.3649
    114  OE1        7.8460    5.7480   19.1170 O.co2 156  GLU156     -0.2457
    115  OE2        6.6560    3.9810   18.5430 O.co2 156  GLU156     -0.2457
    116  N         15.1440    1.1490   17.6770 N.3   194  TYR194     -0.1241
    117  CA        13.9560    0.6480   18.3540 C.3   194  TYR194      0.1605
    118  C         14.0190    0.8090   19.8760 C.2   194  TYR194      0.2264
    119  O         12.9930    0.7330   20.5470 O.2   194  TYR194     -0.2867
    120  CB        13.6740   -0.8260   18.0060 C.3   194  TYR194      0.0534
    121  CG        13.4260   -1.0210   16.5350 C.ar  194  TYR194     -0.0201
    122  CD1       12.1610   -0.8440   15.9920 C.ar  194  TYR194     -0.0009
    123  CD2       14.4700   -1.3580   15.6840 C.ar  194  TYR194     -0.0009
    124  CE1       11.9420   -1.0190   14.6170 C.ar  194  TYR194      0.0417
    125  CE2       14.2660   -1.5280   14.3080 C.ar  194  TYR194      0.0417
    126  CZ        13.0030   -1.3470   13.7890 C.ar  194  TYR194      0.1957
    127  OH        12.8100   -1.5270   12.4380 O.3   194  TYR194     -0.2866
    128  N         14.9940    6.3850   22.8440 N.3   197  MET197     -0.1245
    129  CA        13.8850    7.3570   22.7580 C.3   197  MET197      0.1570
    130  C         14.4460    8.7650   22.7900 C.2   197  MET197      0.2261
    131  O         15.5960    8.9550   23.1860 O.2   197  MET197     -0.2867
    132  CB        12.8510    7.1500   23.8720 C.3   197  MET197      0.0387
    133  CG        12.3470    5.6880   24.0250 C.3   197  MET197      0.0595
    134  SD        11.3590    5.5020   25.5200 S.3   197  MET197     -0.1393
    135  CE         9.9660    6.5940   25.1210 C.3   197  MET197      0.0692
    136  N         16.6480    2.5230   26.3360 N.3   205  ILE205     -0.1231
    137  CA        15.7520    1.6100   27.0740 C.3   205  ILE205      0.1692
    138  C         16.0490    0.1300   26.7790 C.2   205  ILE205      0.2592
    139  O         16.9470   -0.1920   25.9830 O.2   205  ILE205     -0.2718
    140  CB        14.2650    1.9300   26.8110 C.3   205  ILE205      0.0266
    141  CG1       13.9600    1.8310   25.3020 C.3   205  ILE205      0.0019
    142  CG2       13.9570    3.3210   27.2620 C.3   205  ILE205      0.0020
    143  CD1       12.4960    1.4960   24.9890 C.3   205  ILE205      0.0001
    144  N         15.2890   -0.7700   27.3950 N.am  206  ASP206     -0.1974
    145  CA        15.4770   -2.2000   27.1540 C.3   206  ASP206      0.1709
    146  C         16.9310   -2.6310   27.4040 C.2   206  ASP206      0.2293
    147  O         17.6870   -2.8800   26.4720 O.2   206  ASP206     -0.2864
    148  CB        14.9640   -2.5820   25.7290 C.3   206  ASP206      0.1436
    149  CG        13.4460   -2.3880   25.5920 C.2   206  ASP206      0.3671
    150  OD1       12.7810   -2.2070   26.6530 O.co2 206  ASP206     -0.2456
    151  OD2       12.9100   -2.4010   24.4750 O.co2 206  ASP206     -0.2456
@<TRIPOS>BOND
     1   127   126    1
     2   126   125   ar
     3   126   124   ar
     4   110   109    2
     5   125   123   ar
     6   124   122   ar
     7   109   108    1
     8   108   107    1
     9   108   111    1
    10   123   121   ar
    11   122   121   ar
    12   121   120    1
    13   111   112    1
    14   112   113    1
    15   103   102    2
    16   116   117    1
    17   120   117    1
    18   113   115   ar
    19   113   114   ar
    20   105   104    1
    21   102   101    1
    22   117   118    1
    23   104   101    1
    24   104   106    1
    25   101   100    1
    26   118   119    2
    27    97    98    2
    28    97    96    1
    29   129   130    1
    30   129   128    1
    31   129   132    1
    32   130   131    2
    33    91    90    2
    34    14    13    1
    35     4     3    2
    36    96    99    1
    37    96    95    1
    38   132   133    1
    39   133   134    1
    40    13    10    1
    41    10    11    1
    42    10     9    1
    43    90    95   am
    44    90    89    1
    45   151   149   ar
    46    11    12    2
    47     3     9   am
    48     3     2    1
    49   143   141    1
    50    92    89    1
    51    92    93    1
    52   135   134    1
    53    94    93    1
    54    94    88    1
    55   141   140    1
    56    89    88    1
    57   149   148    1
    58   149   150   ar
    59   148   145    1
    60     7     5    1
    61     2     5    1
    62     2     1    1
    63   139   138    2
    64   136   137    1
    65   147   146    2
    66     5     6    1
    67   138   137    1
    68   138   144   am
    69   140   137    1
    70   140   142    1
    71   145   144    1
    72   145   146    1
    73    83    82    2
    74     8     6    1
    75    86    84    1
    76    21    19    1
    77    19    20    1
    78    19    16    1
    79    15    16    1
    80    18    17    2
    81    82    81    1
    82    84    81    1
    83    84    85    1
    84    35    34    1
    85    79    78   ar
    86    79    77   ar
    87    16    17    1
    88    34    33    1
    89    81    80    1
    90    78    76   ar
    91    77    75   ar
    92    85    87    1
    93    33    32    1
    94    80    71   am
    95    44    42   ar
    96    32    31    1
    97    76    74   ar
    98    75    74   ar
    99    51    50    1
   100    51    45    1
   101    50    49    1
   102    43    42   ar
   103    42    41    1
   104    74    73    1
   105    71    72    2
   106    71    70    1
   107    31    28    1
   108    45    46    1
   109    26    23    1
   110    28    29    1
   111    28    27    1
   112    49    46    1
   113    41    40    1
   114    70    73    1
   115    70    69    1
   116    58    59    1
   117    58    57    1
   118    46    47    1
   119    29    30    2
   120    63    62    2
   121    23    24    1
   122    23    22    1
   123    40    37    1
   124    69    62   am
   125    24    25    2
   126    57    56    1
   127    62    61    1
   128    37    36    1
   129    37    38    1
   130    68    66   ar
   131    47    48    2
   132    66    67   ar
   133    66    65    1
   134    65    64    1
   135    39    38    2
   136    64    61    1
   137    61    60    1
   138    56    53    1
   139    60    54   am
   140    55    54    2
   141    54    53    1
   142    53    52    1
