@<TRIPOS>MOLECULE
tmp/3refA00.pdb
 154 152 0 0 0
SMALL
GASTEIGER

@<TRIPOS>ATOM
      1  N         26.0580   -5.4350  -29.8410 N.3    18  GLY18      -0.1210
      2  CA        25.7280   -6.8430  -29.7180 C.3    18  GLY18       0.1956
      3  C         25.5370   -7.2240  -28.2580 C.2    18  GLY18       0.2612
      4  O         26.1860   -6.6900  -27.3530 O.2    18  GLY18      -0.2717
      5  N         24.6140   -8.1360  -28.0260 N.am   19  ALA19      -0.1965
      6  CA        24.3820   -8.6950  -26.6990 C.3    19  ALA19       0.1728
      7  C         23.6780   -7.7640  -25.7040 C.2    19  ALA19       0.2616
      8  O         23.6630   -8.0600  -24.5040 O.2    19  ALA19      -0.2715
      9  CB        25.6780   -9.2570  -26.0950 C.3    19  ALA19       0.0334
     10  N         23.1010   -6.6540  -26.1660 N.am   20  VAL20      -0.1963
     11  CA        22.3580   -5.7890  -25.2230 C.3    20  VAL20       0.1727
     12  C         20.9230   -6.2680  -25.0100 C.2    20  VAL20       0.2617
     13  O         20.2720   -5.8960  -24.0180 O.2    20  VAL20      -0.2715
     14  CB        22.3400   -4.3030  -25.6270 C.3    20  VAL20       0.0290
     15  CG1       23.7860   -3.7420  -25.7440 C.3    20  VAL20       0.0023
     16  CG2       21.5650   -4.0910  -26.9410 C.3    20  VAL20       0.0023
     17  N         20.4330   -7.0920  -25.9290 N.am   21  GLY21      -0.1940
     18  CA        19.1370   -7.7470  -25.7600 C.3    21  GLY21       0.2014
     19  C         18.0900   -7.3600  -26.8090 C.2    21  GLY21       0.2639
     20  O         16.8830   -7.4900  -26.5550 O.2    21  GLY21      -0.2714
     21  N         18.5490   -6.9010  -27.9810 N.am   22  LYS22      -0.1963
     22  CA        17.6470   -6.4340  -29.0600 C.3    22  LYS22       0.1728
     23  C         16.7460   -7.5510  -29.5730 C.2    22  LYS22       0.2617
     24  O         15.5300   -7.3830  -29.7030 O.2    22  LYS22      -0.2715
     25  CB        18.4560   -5.8320  -30.2250 C.3    22  LYS22       0.0311
     26  CG        19.3640   -4.6410  -29.8160 C.3    22  LYS22       0.0038
     27  CD        20.1650   -4.0580  -31.0140 C.3    22  LYS22       0.0206
     28  CE        21.0050   -5.1440  -31.7290 C.3    22  LYS22       0.1093
     29  NZ        22.1370   -5.6700  -30.8660 N.3    22  LYS22      -0.1314
     30  N         17.3400   -8.7060  -29.8600 N.am   23  THR23      -0.1937
     31  CA        16.5460   -9.8010  -30.4000 C.3    23  THR23       0.2028
     32  C         15.5470  -10.2880  -29.3520 C.2    23  THR23       0.2642
     33  O         14.3930  -10.5500  -29.6710 O.2    23  THR23      -0.2714
     34  CB        17.4450  -10.9450  -30.9430 C.3    23  THR23       0.1808
     35  OG1       18.2240  -10.3890  -31.9970 O.3    23  THR23      -0.2208
     36  CG2       16.6010  -12.0920  -31.5370 C.3    23  THR23       0.0379
     37  N         15.9820  -10.3850  -28.0980 N.am   24  CYS24      -0.1967
     38  CA        15.0670  -10.8320  -27.0450 C.3    24  CYS24       0.1712
     39  C         13.9230   -9.8420  -26.7920 C.2    24  CYS24       0.2296
     40  O         12.8050  -10.2530  -26.4730 O.2    24  CYS24      -0.2864
     41  CB        15.8310  -11.1100  -25.7630 C.3    24  CYS24       0.0983
     42  SG        16.7340  -12.7080  -25.7890 S.3    24  CYS24      -0.0798
     43  N         10.9380  -16.2450  -23.9860 N.3    34  ILE34      -0.1231
     44  CA        12.2550  -16.3650  -24.6140 C.3    34  ILE34       0.1678
     45  C         12.9960  -17.6240  -24.1500 C.2    34  ILE34       0.2434
     46  O         12.7720  -18.0980  -23.0340 O.2    34  ILE34      -0.2733
     47  CB        13.1380  -15.1000  -24.3920 C.3    34  ILE34       0.0265
     48  CG1       13.4280  -14.8830  -22.9060 C.3    34  ILE34       0.0019
     49  CG2       12.5140  -13.8290  -25.0680 C.3    34  ILE34       0.0020
     50  CD1       14.4750  -13.8000  -22.6550 C.3    34  ILE34       0.0001
     51  N         13.8870  -18.1720  -25.0050 N.am   35  PRO35      -0.2718
     52  CA        14.6260  -19.3850  -24.6210 C.3    35  PRO35       0.1535
     53  C         15.6040  -19.0640  -23.5200 C.2    35  PRO35       0.2599
     54  O         16.1680  -17.9620  -23.4840 O.2    35  PRO35      -0.2715
     55  CB        15.4010  -19.7550  -25.8910 C.3    35  PRO35       0.0310
     56  CG        15.5700  -18.4810  -26.6080 C.3    35  PRO35       0.0237
     57  CD        14.3240  -17.6580  -26.3150 C.3    35  PRO35       0.0939
     58  N         15.8200  -20.0340  -22.6460 N.am   36  THR36      -0.1937
     59  CA        16.5920  -19.8190  -21.4300 C.3    36  THR36       0.2028
     60  C         17.9980  -19.2450  -21.6730 C.2    36  THR36       0.2642
     61  O         18.5020  -18.4640  -20.8480 O.2    36  THR36      -0.2714
     62  CB        16.6850  -21.1150  -20.5950 C.3    36  THR36       0.1808
     63  OG1       17.3550  -20.8460  -19.3580 O.3    36  THR36      -0.2208
     64  CG2       17.4330  -22.2030  -21.3660 C.3    36  THR36       0.0379
     65  N         18.6230  -19.5970  -22.8000 N.am   37  ALA37      -0.1963
     66  CA        20.0270  -19.2460  -22.9630 C.3    37  ALA37       0.1728
     67  C         20.2700  -18.1670  -23.9960 C.2    37  ALA37       0.2616
     68  O         20.6160  -17.0480  -23.6400 O.2    37  ALA37      -0.2715
     69  CB        20.8710  -20.4760  -23.2550 C.3    37  ALA37       0.0334
     70  N         20.0810  -18.4940  -25.2700 N.am   38  TYR38      -0.1960
     71  CA        20.4510  -17.5770  -26.3530 C.3    38  TYR38       0.1771
     72  C         19.4360  -17.6280  -27.5010 C.2    38  TYR38       0.2619
     73  O         18.6390  -18.5600  -27.5860 O.2    38  TYR38      -0.2715
     74  CB        21.8450  -17.9410  -26.9030 C.3    38  TYR38       0.0574
     75  CG        21.9160  -19.3340  -27.4900 C.ar   38  TYR38      -0.0198
     76  CD1       21.5820  -19.5660  -28.8200 C.ar   38  TYR38      -0.0009
     77  CD2       22.3150  -20.4300  -26.7130 C.ar   38  TYR38      -0.0009
     78  CE1       21.6360  -20.8450  -29.3590 C.ar   38  TYR38       0.0417
     79  CE2       22.3800  -21.7100  -27.2470 C.ar   38  TYR38       0.0417
     80  CZ        22.0370  -21.9090  -28.5720 C.ar   38  TYR38       0.1957
     81  OH        22.1010  -23.1830  -29.0880 O.3    38  TYR38      -0.2866
     82  N         19.4940  -16.6360  -28.3850 N.am   39  VAL39      -0.1964
     83  CA        18.6270  -16.6050  -29.5690 C.3    39  VAL39       0.1712
     84  C         19.4420  -16.3700  -30.8410 C.2    39  VAL39       0.2458
     85  O         20.6300  -16.0020  -30.7700 O.2    39  VAL39      -0.2730
     86  CB        17.5710  -15.4880  -29.4260 C.3    39  VAL39       0.0289
     87  CG1       16.5070  -15.8840  -28.3800 C.3    39  VAL39       0.0023
     88  CG2       18.2450  -14.1570  -29.0370 C.3    39  VAL39       0.0023
     89  N         18.8180  -16.5680  -32.0230 N.am   40  PRO40      -0.2716
     90  CA        19.5550  -16.2370  -33.2460 C.3    40  PRO40       0.1536
     91  C         20.0630  -14.7980  -33.2380 C.2    40  PRO40       0.2599
     92  O         19.5260  -13.9390  -32.5390 O.2    40  PRO40      -0.2715
     93  CB        18.5060  -16.4390  -34.3590 C.3    40  PRO40       0.0310
     94  CG        17.5880  -17.4670  -33.8090 C.3    40  PRO40       0.0237
     95  CD        17.5220  -17.2060  -32.3120 C.3    40  PRO40       0.0939
     96  N         21.0920  -14.5300  -34.0280 N.am   41  THR41      -0.1951
     97  CA        21.6610  -13.1930  -34.0810 C.3    41  THR41       0.1897
     98  C         20.6780  -12.1080  -34.5380 C.2    41  THR41       0.2313
     99  O         20.5470  -11.0920  -33.9000 O.2    41  THR41      -0.2863
    100  CB        22.9100  -13.1650  -34.9610 C.3    41  THR41       0.1794
    101  OG1       23.7780  -14.2280  -34.5610 O.3    41  THR41      -0.2208
    102  CG2       23.6290  -11.8350  -34.8020 C.3    41  THR41       0.0378
    103  N         17.8770   -1.8600  -21.5070 N.3   121  LEU121     -0.1231
    104  CA        17.4760   -3.2680  -21.4040 C.3   121  LEU121      0.1693
    105  C         18.1460   -4.0110  -20.2340 C.2   121  LEU121      0.2591
    106  O         19.0830   -3.5080  -19.6100 O.2   121  LEU121     -0.2718
    107  CB        17.8120   -3.9910  -22.7190 C.3   121  LEU121      0.0284
    108  CG        17.1070   -3.4420  -23.9560 C.3   121  LEU121      0.0019
    109  CD1       17.7040   -4.0570  -25.2360 C.3   121  LEU121      0.0001
    110  CD2       15.6280   -3.7800  -23.8240 C.3   121  LEU121      0.0001
    111  N         17.6950   -5.2430  -20.0080 N.am  122  LYS122     -0.1980
    112  CA        18.1870   -6.1060  -18.9050 C.3   122  LYS122      0.1596
    113  C         18.0840   -5.4160  -17.5440 C.2   122  LYS122      0.2287
    114  O         18.9550   -5.5650  -16.6810 O.2   122  LYS122     -0.2864
    115  CB        19.6310   -6.5520  -19.1440 C.3   122  LYS122      0.0298
    116  CG        19.9030   -7.1520  -20.5190 C.3   122  LYS122      0.0038
    117  CD        21.2900   -7.8270  -20.5370 C.3   122  LYS122      0.0206
    118  CE        21.6700   -8.2920  -21.9510 C.3   122  LYS122      0.1093
    119  NZ        23.0010   -8.9850  -21.9300 N.3   122  LYS122     -0.1314
    120  N         16.4410   -6.0710  -15.0860 N.3   124  ASP124     -0.1225
    121  CA        16.4110   -7.0640  -13.9930 C.3   124  ASP124      0.1805
    122  C         17.8150   -7.3380  -13.4160 C.2   124  ASP124      0.2597
    123  O         17.9500   -7.8520  -12.2990 O.2   124  ASP124     -0.2718
    124  CB        15.8270   -8.3770  -14.4740 C.3   124  ASP124      0.1424
    125  CG        16.6250   -8.9720  -15.6390 C.2   124  ASP124      0.3668
    126  OD1       16.4930   -8.4630  -16.7680 O.co2 124  ASP124     -0.2456
    127  OD2       17.4000   -9.9270  -15.4250 O.co2 124  ASP124     -0.2456
    128  N         18.8580   -7.0070  -14.1730 N.am  125  LEU125     -0.1979
    129  CA        20.2280   -7.2710  -13.7090 C.3   125  LEU125      0.1596
    130  C         20.8590   -6.1510  -12.8910 C.2   125  LEU125      0.2287
    131  O         21.9400   -6.3280  -12.3180 O.2   125  LEU125     -0.2864
    132  CB        21.1520   -7.6030  -14.8920 C.3   125  LEU125      0.0297
    133  CG        20.7950   -8.8920  -15.6410 C.3   125  LEU125      0.0022
    134  CD1       21.7450   -9.0890  -16.8320 C.3   125  LEU125      0.0001
    135  CD2       20.8480  -10.0910  -14.6730 C.3   125  LEU125      0.0001
    136  N         12.8370   -5.3400  -19.2300 N.3   154  SER154     -0.1202
    137  CA        13.4740   -6.6450  -19.1030 C.3   154  SER154      0.2020
    138  C         12.6630   -7.6690  -19.8790 C.2   154  SER154      0.2619
    139  O         11.4960   -7.8990  -19.5760 O.2   154  SER154     -0.2717
    140  CB        13.5480   -7.0840  -17.6350 C.3   154  SER154      0.2103
    141  OG        13.9140   -8.4500  -17.5620 O.3   154  SER154     -0.2182
    142  N         13.2880   -8.2900  -20.8710 N.am  155  SER155     -0.1937
    143  CA        12.6460   -9.3440  -21.6240 C.3   155  SER155      0.2055
    144  C         12.4990  -10.5760  -20.7700 C.2   155  SER155      0.2642
    145  O         11.6070  -11.3920  -20.9860 O.2   155  SER155     -0.2714
    146  CB        13.4700   -9.6750  -22.8740 C.3   155  SER155      0.2130
    147  OG        13.5850   -8.5060  -23.6640 O.3   155  SER155     -0.2179
    148  N         13.3890  -10.7330  -19.8060 N.am  156  VAL156     -0.1977
    149  CA        13.3680  -11.9340  -18.9820 C.3   156  VAL156      0.1596
    150  C         12.2530  -11.8570  -17.9350 C.2   156  VAL156      0.2287
    151  O         11.5090  -12.8160  -17.7400 O.2   156  VAL156     -0.2864
    152  CB        14.7270  -12.1610  -18.2950 C.3   156  VAL156      0.0276
    153  CG1       14.6200  -13.2340  -17.2340 C.3   156  VAL156      0.0022
    154  CG2       15.7790  -12.5480  -19.3420 C.3   156  VAL156      0.0022
@<TRIPOS>BOND
     1   100   102    1
     2   100   101    1
     3   100    97    1
     4    98    97    1
     5    98    99    2
     6    93    94    1
     7    93    90    1
     8    97    96    1
     9    96    91   am
    10    94    95    1
    11    90    91    1
    12    90    89    1
    13    91    92    2
    14    95    89    1
    15    89    84   am
    16    35    34    1
    17    28    27    1
    18    28    29    1
    19    36    34    1
    20    27    26    1
    21    34    31    1
    22    84    85    2
    23    84    83    1
    24    31    30    1
    25    31    32    1
    26    25    26    1
    27    25    22    1
    28    30    23   am
    29     1     2    1
    30     2     3    1
    31    24    23    2
    32    33    32    2
    33    23    22    1
    34    83    86    1
    35    83    82    1
    36    86    88    1
    37    86    87    1
    38    78    76   ar
    39    78    80   ar
    40    32    37   am
    41    81    80    1
    42    22    21    1
    43    76    75   ar
    44    80    79   ar
    45    82    72   am
    46     3     5   am
    47     3     4    2
    48    37    38    1
    49     5     6    1
    50    21    19   am
    51    73    72    2
    52    72    71    1
    53    75    74    1
    54    75    77   ar
    55    79    77   ar
    56    38    39    1
    57    38    41    1
    58    16    14    1
    59    74    71    1
    60    19    20    2
    61    19    18    1
    62    39    40    2
    63     6     9    1
    64     6     7    1
    65    56    57    1
    66    56    55    1
    67    71    70    1
    68    57    51    1
    69    10     7   am
    70    10    11    1
    71    17    18    1
    72    17    12   am
    73    55    52    1
    74    42    41    1
    75    15    14    1
    76     7     8    2
    77    14    11    1
    78    70    67   am
    79   109   108    1
    80    11    12    1
    81    49    47    1
    82    12    13    2
    83    51    52    1
    84    51    45   am
    85    52    53    1
    86    44    47    1
    87    44    45    1
    88    44    43    1
    89    47    48    1
    90    45    46    2
    91    67    68    2
    92    67    66    1
    93   108   110    1
    94   108   107    1
    95   147   146    1
    96    53    54    2
    97    53    58   am
    98    69    66    1
    99    66    65    1
   100    48    50    1
   101   146   143    1
   102    65    60   am
   103   107   104    1
   104    58    59    1
   105   118   119    1
   106   118   117    1
   107    60    59    1
   108    60    61    2
   109   143   142    1
   110   143   144    1
   111   103   104    1
   112    59    62    1
   113   104   105    1
   114    64    62    1
   115   145   144    2
   116   142   138   am
   117   144   148   am
   118    62    63    1
   119   117   116    1
   120   116   115    1
   121   105   111   am
   122   105   106    2
   123   111   112    1
   124   138   139    2
   125   138   137    1
   126   148   149    1
   127   154   152    1
   128   136   137    1
   129   115   112    1
   130   137   140    1
   131   149   152    1
   132   149   150    1
   133   112   113    1
   134   152   153    1
   135   150   151    2
   136   140   141    1
   137   113   114    2
   138   134   133    1
   139   126   125   ar
   140   133   132    1
   141   133   135    1
   142   125   127   ar
   143   125   124    1
   144   120   121    1
   145   132   129    1
   146   124   121    1
   147   128   129    1
   148   128   122   am
   149   121   122    1
   150   129   130    1
   151   122   123    2
   152   130   131    2
