@<TRIPOS>MOLECULE
tmp/3reuB00.pdb
 137 125 0 0 0
SMALL
GASTEIGER

@<TRIPOS>ATOM
      1  N          4.9670    8.5950   27.9720 N.3    47  ASP47      -0.1239
      2  CA         5.0860    9.8220   28.7540 C.3    47  ASP47       0.1674
      3  C          4.0170   10.8290   28.3140 C.2    47  ASP47       0.2266
      4  O          3.9130   11.1370   27.1390 O.2    47  ASP47      -0.2867
      5  CB         6.4940   10.3840   28.5050 C.3    47  ASP47       0.1410
      6  CG         6.8930   11.4740   29.4850 C.2    47  ASP47       0.3668
      7  OD1        6.0010   12.1700   30.0130 O.co2  47  ASP47      -0.2456
      8  OD2        8.1150   11.6450   29.7030 O.co2  47  ASP47      -0.2456
      9  N          4.0660   13.9790   29.1670 N.3    49  LEU49      -0.1245
     10  CA         4.7470   15.2680   29.0180 C.3    49  LEU49       0.1561
     11  C          3.9080   16.4190   29.5910 C.2    49  LEU49       0.2260
     12  O          4.0690   17.5810   29.2010 O.2    49  LEU49      -0.2867
     13  CB         5.0860   15.5590   27.5530 C.3    49  LEU49       0.0270
     14  CG         6.0240   14.5870   26.8310 C.3    49  LEU49       0.0019
     15  CD1        6.2210   15.0380   25.3810 C.3    49  LEU49       0.0001
     16  CD2        7.3610   14.4860   27.5790 C.3    49  LEU49       0.0001
     17  N          8.4800    9.6690   25.4960 N.3    70  SER70      -0.1217
     18  CA         9.7490    9.3090   26.1440 C.3    70  SER70       0.1889
     19  C          9.5850    7.9220   26.7630 C.2    70  SER70       0.2288
     20  O          8.4590    7.4660   26.9700 O.2    70  SER70      -0.2866
     21  CB        10.1640   10.3310   27.2130 C.3    70  SER70       0.2089
     22  OG         9.8680    9.8510   28.5230 O.3    70  SER70      -0.2183
     23  N         10.2160    6.9120   29.7330 N.3    72  ILE72      -0.1245
     24  CA        10.2050    6.9640   31.1920 C.3    72  ILE72       0.1561
     25  C          9.4830    5.7830   31.8540 C.2    72  ILE72       0.2260
     26  O          9.9600    5.2320   32.8390 O.2    72  ILE72      -0.2867
     27  CB         9.5970    8.2850   31.7150 C.3    72  ILE72       0.0252
     28  CG1        9.7070    8.3550   33.2380 C.3    72  ILE72       0.0019
     29  CG2        8.1460    8.4170   31.2720 C.3    72  ILE72       0.0019
     30  CD1       11.1140    8.1420   33.7560 C.3    72  ILE72       0.0001
     31  N         11.4590    2.5970   31.3870 N.3    75  LYS75      -0.1245
     32  CA        12.6510    2.5630   32.2140 C.3    75  LYS75       0.1561
     33  C         12.2950    2.0220   33.5940 C.2    75  LYS75       0.2260
     34  O         13.0270    1.2060   34.1520 O.2    75  LYS75      -0.2867
     35  CB        13.2820    3.9520   32.3500 C.3    75  LYS75       0.0271
     36  CG        13.8770    4.5140   31.0760 C.3    75  LYS75       0.0035
     37  CD        14.8670    5.6280   31.4050 C.3    75  LYS75       0.0206
     38  CE        14.2030    6.7660   32.1740 C.3    75  LYS75       0.1093
     39  NZ        15.1920    7.8310   32.5210 N.3    75  LYS75      -0.1314
     40  N          7.9990   14.1090   19.0880 N.3    94  ARG94      -0.1245
     41  CA         7.2020   15.1190   19.7960 C.3    94  ARG94       0.1563
     42  C          6.7850   16.1910   18.7970 C.2    94  ARG94       0.2260
     43  O          7.6010   17.0150   18.3790 O.2    94  ARG94      -0.2867
     44  CB         7.9780   15.7490   20.9620 C.3    94  ARG94       0.0307
     45  CG         8.4380   14.7460   22.0590 C.3    94  ARG94       0.0489
     46  CD         9.0640   15.4410   23.2790 C.3    94  ARG94       0.2205
     47  NE         9.6650   14.4850   24.2230 N.pl3  94  ARG94      -0.0865
     48  CZ        10.2110   14.8240   25.3920 C.cat  94  ARG94       0.5346
     49  NH1       10.2270   16.1020   25.7940 N.pl3  94  ARG94       0.1354
     50  NH2       10.7350   13.8820   26.1700 N.pl3  94  ARG94       0.1354
     51  N         17.3880   10.9930   23.0500 N.3   111  GLN111     -0.1245
     52  CA        18.0020   11.2580   24.3440 C.3   111  GLN111      0.1566
     53  C         18.6740    9.9930   24.8560 C.2   111  GLN111      0.2260
     54  O         18.1850    8.8810   24.6390 O.2   111  GLN111     -0.2867
     55  CB        17.0030   11.8300   25.3690 C.3   111  GLN111      0.0367
     56  CG        15.6880   11.0750   25.5370 C.3   111  GLN111      0.0905
     57  CD        14.8780   11.6080   26.7190 C.2   111  GLN111      0.2608
     58  OE1       15.3750   11.6610   27.8420 O.2   111  GLN111     -0.2717
     59  NE2       13.6330   12.0070   26.4680 N.am  111  GLN111     -0.0878
     60  N         18.9640    8.0140   27.7340 N.3   113  ASP113     -0.1239
     61  CA        18.0440    7.9400   28.8560 C.3   113  ASP113      0.1674
     62  C         18.5310    6.8390   29.7900 C.2   113  ASP113      0.2266
     63  O         18.7980    5.7370   29.3300 O.2   113  ASP113     -0.2867
     64  CB        16.6730    7.5740   28.2940 C.3   113  ASP113      0.1410
     65  CG        15.5390    8.2920   28.9930 C.2   113  ASP113      0.3668
     66  OD1       15.7800    8.8890   30.0610 O.co2 113  ASP113     -0.2456
     67  OD2       14.4010    8.2430   28.4750 O.co2 113  ASP113     -0.2456
     68  N          5.9810   18.8900   37.9810 N.3   186  ARG186     -0.1231
     69  CA         5.6780   18.4130   36.6300 C.3   186  ARG186      0.1694
     70  C          4.9550   17.0450   36.5860 C.2   186  ARG186      0.2591
     71  O          4.0050   16.8260   37.3340 O.2   186  ARG186     -0.2718
     72  CB         6.9320   18.4450   35.7330 C.3   186  ARG186      0.0321
     73  CG         8.1850   17.8100   36.3230 C.3   186  ARG186      0.0489
     74  CD         9.4050   18.1160   35.4560 C.3   186  ARG186      0.2205
     75  NE        10.5970   17.3700   35.8560 N.pl3 186  ARG186     -0.0865
     76  CZ        11.8410   17.7850   35.6370 C.cat 186  ARG186      0.5346
     77  NH1       12.0650   18.9480   35.0220 N.pl3 186  ARG186      0.1354
     78  NH2       12.8610   17.0400   36.0360 N.pl3 186  ARG186      0.1354
     79  N          5.3880   16.1440   35.7020 N.am  187  GLU187     -0.1979
     80  CA         4.6890   14.8680   35.4790 C.3   187  GLU187      0.1602
     81  C          4.5610   13.9700   36.7220 C.2   187  GLU187      0.2287
     82  O          5.3590   14.0620   37.6520 O.2   187  GLU187     -0.2864
     83  CB         5.3590   14.0820   34.3450 C.3   187  GLU187      0.0415
     84  CG         5.3790   14.7940   32.9870 C.3   187  GLU187      0.1163
     85  CD         6.6260   15.6550   32.7590 C.2   187  GLU187      0.3649
     86  OE1        6.8440   16.0920   31.6060 O.co2 187  GLU187     -0.2457
     87  OE2        7.3870   15.8990   33.7220 O.co2 187  GLU187     -0.2457
     88  N          5.2850   10.9320   37.4030 N.3   189  TYR189     -0.1227
     89  CA         6.3450    9.9830   37.7480 C.3   189  TYR189      0.1736
     90  C          7.4900   10.5350   38.5970 C.2   189  TYR189      0.2595
     91  O          8.2020    9.7560   39.2260 O.2   189  TYR189     -0.2718
     92  CB         6.9180    9.3010   36.4980 C.3   189  TYR189      0.0548
     93  CG         7.2880   10.2550   35.4020 C.ar  189  TYR189     -0.0200
     94  CD1        8.4340   11.0250   35.4830 C.ar  189  TYR189     -0.0009
     95  CD2        6.4990   10.3680   34.2680 C.ar  189  TYR189     -0.0009
     96  CE1        8.7790   11.8980   34.4680 C.ar  189  TYR189      0.0417
     97  CE2        6.8330   11.2380   33.2520 C.ar  189  TYR189      0.0417
     98  CZ         7.9730   12.0010   33.3570 C.ar  189  TYR189      0.1957
     99  OH         8.3170   12.8640   32.3380 O.3   189  TYR189     -0.2866
    100  N          7.7030   11.8500   38.6120 N.am  190  ASP190     -0.1974
    101  CA         8.7430   12.3890   39.4860 C.3   190  ASP190      0.1709
    102  C          8.2590   12.3150   40.9430 C.2   190  ASP190      0.2293
    103  O          7.0680   12.4940   41.2250 O.2   190  ASP190     -0.2864
    104  CB         9.1300   13.8270   39.1120 C.3   190  ASP190      0.1436
    105  CG        10.1310   13.9030   37.9470 C.2   190  ASP190      0.3671
    106  OD1       10.6680   12.8500   37.5100 O.co2 190  ASP190     -0.2456
    107  OD2       10.3970   15.0400   37.4830 O.co2 190  ASP190     -0.2456
    108  N         16.9480   16.4310   31.9170 N.3   213  SER213     -0.1202
    109  CA        15.9350   16.4420   32.9750 C.3   213  SER213      0.2020
    110  C         15.9240   15.0810   33.6360 C.2   213  SER213      0.2619
    111  O         16.0680   14.0750   32.9520 O.2   213  SER213     -0.2717
    112  CB        14.5310   16.6640   32.4050 C.3   213  SER213      0.2103
    113  OG        14.1540   18.0140   32.3820 O.3   213  SER213     -0.2182
    114  N         15.6950   15.0360   34.9490 N.am  214  GLY214     -0.1956
    115  CA        15.6060   13.7590   35.6340 C.3   214  GLY214      0.1869
    116  C         15.0330   13.9020   37.0250 C.2   214  GLY214      0.2309
    117  O         14.7180   15.0030   37.4590 O.2   214  GLY214     -0.2863
    118  N         11.7820    8.7870   41.4620 N.3   217  ARG217     -0.1245
    119  CA        10.4580    8.4380   40.9500 C.3   217  ARG217      0.1563
    120  C          9.4530    8.0340   42.0340 C.2   217  ARG217      0.2260
    121  O          9.8330    7.5280   43.0860 O.2   217  ARG217     -0.2867
    122  CB        10.5760    7.2930   39.9540 C.3   217  ARG217      0.0307
    123  CG        11.7980    7.3760   39.0370 C.3   217  ARG217      0.0489
    124  CD        11.7690    8.6150   38.1520 C.3   217  ARG217      0.2205
    125  NE        12.8230    8.5470   37.1380 N.pl3 217  ARG217     -0.0865
    126  CZ        13.1360    9.5420   36.3170 C.cat 217  ARG217      0.5346
    127  NH1       12.4690   10.6880   36.3710 N.pl3 217  ARG217      0.1354
    128  NH2       14.1110    9.3860   35.4290 N.pl3 217  ARG217      0.1354
    129  N         17.6870   10.0460   34.5210 N.3   256  ALA256     -0.1231
    130  CA        17.6720   11.2800   33.7530 C.3   256  ALA256      0.1694
    131  C         17.7450   10.9490   32.2690 C.2   256  ALA256      0.2592
    132  O         18.0720    9.8180   31.8950 O.2   256  ALA256     -0.2718
    133  CB        18.8470   12.1630   34.1460 C.3   256  ALA256      0.0304
    134  N         17.4110   11.9280   31.4340 N.am  257  GLY257     -0.1957
    135  CA        17.6220   11.8200   29.9970 C.3   257  GLY257      0.1869
    136  C         18.4580   13.0020   29.5360 C.2   257  GLY257      0.2309
    137  O         18.2440   14.1290   29.9940 O.2   257  GLY257     -0.2863
@<TRIPOS>BOND
     1    43    42    2
     2    42    41    1
     3    40    41    1
     4    41    44    1
     5    44    45    1
     6    45    46    1
     7    51    52    1
     8    46    47    1
     9    47    48    2
    10    52    53    1
    11    52    55    1
    12    54    53    2
    13    55    56    1
    14    15    14    1
    15    48    49    1
    16    48    50    1
    17    17    18    1
    18    56    57    1
    19    18    19    1
    20    18    21    1
    21    59    57   am
    22    57    58    2
    23    19    20    2
    24    14    13    1
    25    14    16    1
    26     4     3    2
    27    21    22    1
    28    13    10    1
    29    60    61    1
    30     1     2    1
    31    64    61    1
    32    64    65    1
    33     3     2    1
    34    67    65   ar
    35     5     2    1
    36     5     6    1
    37    61    62    1
    38    65    66   ar
    39    10     9    1
    40    10    11    1
    41    12    11    2
    42    63    62    2
    43     6     8   ar
    44     6     7   ar
    45   136   137    2
    46   136   135    1
    47    23    24    1
    48   135   134    1
    49    36    37    1
    50    36    35    1
    51    24    27    1
    52    24    25    1
    53    29    27    1
    54    31    32    1
    55    37    38    1
    56   134   131   am
    57    86    85   ar
    58    27    28    1
    59    25    26    2
    60   132   131    2
    61   108   109    1
    62    38    39    1
    63    32    35    1
    64    32    33    1
    65   131   130    1
    66    99    98    1
    67   113   112    1
    68   112   109    1
    69    85    84    1
    70    85    87   ar
    71   111   110    2
    72   109   110    1
    73    84    83    1
    74    28    30    1
    75    97    98   ar
    76    97    95   ar
    77    98    96   ar
    78    33    34    2
    79   110   114   am
    80   130   133    1
    81   130   129    1
    82    95    93   ar
    83    83    80    1
    84    96    94   ar
    85   114   115    1
    86    77    76    1
    87    93    94   ar
    88    93    92    1
    89   128   126    1
    90    74    75    1
    91    74    73    1
    92    80    79    1
    93    80    81    1
    94   115   116    1
    95    76    75    2
    96    76    78    1
    97    79    70   am
    98    72    73    1
    99    72    69    1
   100   126   127    1
   101   126   125    2
   102    92    89    1
   103    70    69    1
   104    70    71    2
   105    69    68    1
   106    81    82    2
   107   116   117    2
   108   125   124    1
   109    88    89    1
   110   107   105   ar
   111   106   105   ar
   112    89    90    1
   113   105   104    1
   114   124   123    1
   115    90   100   am
   116    90    91    2
   117   100   101    1
   118   123   122    1
   119   104   101    1
   120   101   102    1
   121   122   119    1
   122   102   103    2
   123   119   118    1
   124   119   120    1
   125   120   121    2
