@<TRIPOS>MOLECULE
tmp/3reuA00.pdb
 189 175 0 0 0
SMALL
GASTEIGER

@<TRIPOS>ATOM
      1  N         11.9960    2.2710    2.9630 N.3    47  ASP47      -0.1239
      2  CA        12.3310    1.0350    2.2640 C.3    47  ASP47       0.1674
      3  C         11.0250    0.3260    1.8920 C.2    47  ASP47       0.2266
      4  O         10.2030    0.0790    2.7650 O.2    47  ASP47      -0.2867
      5  CB        13.1360    0.1660    3.2400 C.3    47  ASP47       0.1410
      6  CG        13.7830   -1.0470    2.5870 C.2    47  ASP47       0.3668
      7  OD1       13.3960   -1.4170    1.4630 O.co2  47  ASP47      -0.2456
      8  OD2       14.6750   -1.6420    3.2370 O.co2  47  ASP47      -0.2456
      9  N         10.7360   -2.7780    0.8590 N.3    49  LEU49      -0.1245
     10  CA        10.8320   -4.1740    1.2870 C.3    49  LEU49       0.1561
     11  C         10.1810   -5.0870    0.2630 C.2    49  LEU49       0.2260
     12  O          9.7380   -6.1870    0.5960 O.2    49  LEU49      -0.2867
     13  CB        10.1650   -4.3870    2.6540 C.3    49  LEU49       0.0270
     14  CG        10.7670   -3.6200    3.8400 C.3    49  LEU49       0.0019
     15  CD1        9.9920   -3.9350    5.1210 C.3    49  LEU49       0.0001
     16  CD2       12.2370   -3.9530    3.9980 C.3    49  LEU49       0.0001
     17  N         10.8340   -8.9440   -2.7100 N.3    52  ASP52      -0.1239
     18  CA        11.7660   -9.5760   -1.7900 C.3    52  ASP52       0.1674
     19  C         11.2170  -10.9560   -1.4930 C.2    52  ASP52       0.2266
     20  O         10.1020  -11.0840   -0.9820 O.2    52  ASP52      -0.2867
     21  CB        11.8920   -8.7520   -0.5030 C.3    52  ASP52       0.1410
     22  CG        13.1300   -9.1170    0.3260 C.2    52  ASP52       0.3668
     23  OD1       13.3970  -10.3200    0.5240 O.co2  52  ASP52      -0.2456
     24  OD2       13.8280   -8.1810    0.7860 O.co2  52  ASP52      -0.2456
     25  N         11.9150  -12.8070    0.6960 N.3    54  ALA54      -0.1245
     26  CA        11.8180  -12.9560    2.1470 C.3    54  ALA54       0.1562
     27  C         10.5900  -12.2740    2.7610 C.2    54  ALA54       0.2260
     28  O         10.4820  -12.2000    3.9880 O.2    54  ALA54      -0.2867
     29  CB        13.0860  -12.4310    2.8060 C.3    54  ALA54       0.0290
     30  N          8.0160   -3.0210   11.4520 N.3    99  ARG99      -0.1245
     31  CA         7.5310   -3.8310   10.3380 C.3    99  ARG99       0.1563
     32  C          6.3690   -4.6560   10.8590 C.2    99  ARG99       0.2260
     33  O          6.5820   -5.6160   11.5950 O.2    99  ARG99      -0.2867
     34  CB         8.6330   -4.7690    9.8160 C.3    99  ARG99       0.0307
     35  CG         9.8270   -4.0200    9.2090 C.3    99  ARG99       0.0489
     36  CD        10.8710   -4.9410    8.6010 C.3    99  ARG99       0.2205
     37  NE        12.0880   -4.1970    8.2660 N.pl3  99  ARG99      -0.0865
     38  CZ        13.1040   -4.7040    7.5790 C.cat  99  ARG99       0.5346
     39  NH1       13.0510   -5.9610    7.1480 N.pl3  99  ARG99       0.1354
     40  NH2       14.1660   -3.9550    7.3150 N.pl3  99  ARG99       0.1354
     41  N          4.6000   -7.2230   10.5090 N.3   101  GLU101     -0.1245
     42  CA         4.5220   -8.5110    9.8310 C.3   101  GLU101      0.1567
     43  C          3.3540   -9.3270   10.3470 C.2   101  GLU101      0.2260
     44  O          2.9020   -9.1230   11.4640 O.2   101  GLU101     -0.2867
     45  CB         5.7890   -9.3230   10.0810 C.3   101  GLU101      0.0388
     46  CG         7.0280   -8.5020   10.2850 C.3   101  GLU101      0.1160
     47  CD         8.0310   -8.7600    9.2040 C.2   101  GLU101      0.3649
     48  OE1        7.6170   -9.2450    8.1340 O.co2 101  GLU101     -0.2457
     49  OE2        9.2230   -8.4850    9.4230 O.co2 101  GLU101     -0.2457
     50  N          4.7350  -14.8790   10.0870 N.3   105  LYS105     -0.1245
     51  CA         6.1570  -14.5770   10.2790 C.3   105  LYS105      0.1561
     52  C          6.6030  -14.7450   11.7300 C.2   105  LYS105      0.2260
     53  O          7.7600  -14.4780   12.0620 O.2   105  LYS105     -0.2867
     54  CB         6.4680  -13.1510    9.8160 C.3   105  LYS105      0.0271
     55  CG         6.3330  -12.9330    8.3160 C.3   105  LYS105      0.0035
     56  CD         7.3910  -13.7180    7.5440 C.3   105  LYS105      0.0206
     57  CE         7.1600  -13.6170    6.0460 C.3   105  LYS105      0.1093
     58  NZ         8.0040  -14.5770    5.2790 N.3   105  LYS105     -0.1314
     59  N         12.2280  -15.8430   14.8070 N.3   109  ARG109     -0.1231
     60  CA        13.2380  -14.8940   14.3930 C.3   109  ARG109      0.1694
     61  C         12.7110  -13.4790   14.1890 C.2   109  ARG109      0.2592
     62  O         13.4750  -12.5960   14.0440 O.2   109  ARG109     -0.2718
     63  CB        13.8700  -15.2270   13.0470 C.3   109  ARG109      0.0321
     64  CG        14.2830  -16.5700   12.7350 C.3   109  ARG109      0.0489
     65  CD        15.2580  -16.4660   11.5870 C.3   109  ARG109      0.2205
     66  NE        14.6240  -16.6140   10.3090 N.pl3 109  ARG109     -0.0865
     67  CZ        13.8260  -17.6180   10.0010 C.cat 109  ARG109      0.5346
     68  NH1       13.5650  -18.5470   10.8980 N.pl3 109  ARG109      0.1354
     69  NH2       13.2860  -17.6820    8.7960 N.pl3 109  ARG109      0.1354
     70  N         11.4060  -13.2990   14.1240 N.am  110  HIS110     -0.1962
     71  CA        10.8100  -12.0130   13.8370 C.3   110  HIS110      0.1787
     72  C         10.1920  -11.3100   15.0280 C.2   110  HIS110      0.2620
     73  O          9.5200  -11.9080   15.8300 O.2   110  HIS110     -0.2715
     74  CB         9.7960  -12.0960   12.7020 C.3   110  HIS110      0.0785
     75  CG        10.3650  -12.5380   11.3970 C.ar  110  HIS110      0.0821
     76  ND1       10.6310  -13.7950   11.1340 N.ar  110  HIS110     -0.2267
     77  CD2       10.6930  -11.8340   10.2620 C.ar  110  HIS110      0.1154
     78  CE1       11.0880  -13.9080    9.9050 C.ar  110  HIS110      0.1986
     79  NE2       11.1270  -12.7140    9.3660 N.ar  110  HIS110     -0.2212
     80  N         10.4190   -9.9680   15.0480 N.am  111  SER111     -0.1950
     81  CA         9.7360   -9.0510   15.9540 C.3   111  SER111      0.1924
     82  C          9.1640   -7.9160   15.1150 C.2   111  SER111      0.2314
     83  O          9.7440   -7.5760   14.0810 O.2   111  SER111     -0.2863
     84  CB        10.7210   -8.4770   16.9710 C.3   111  SER111      0.2116
     85  OG        11.3620   -9.4920   17.7110 O.3   111  SER111     -0.2180
     86  N         12.2990   -3.8410   15.9680 N.3   114  PHE114     -0.1241
     87  CA        13.6330   -4.3560   16.1890 C.3   114  PHE114      0.1605
     88  C         14.6870   -3.3300   15.8250 C.2   114  PHE114      0.2264
     89  O         14.3830   -2.3740   15.2210 O.2   114  PHE114     -0.2867
     90  CB        13.8900   -5.6390   15.4130 C.3   114  PHE114      0.0534
     91  CG        13.8730   -5.4520   13.9550 C.ar  114  PHE114     -0.0203
     92  CD1       15.0210   -5.2640   13.2610 C.ar  114  PHE114     -0.0042
     93  CD2       12.6960   -5.4320   13.2640 C.ar  114  PHE114     -0.0042
     94  CE1       14.9860   -5.0720   11.9040 C.ar  114  PHE114     -0.0003
     95  CE2       12.6760   -5.2360   11.9330 C.ar  114  PHE114     -0.0003
     96  CZ        13.8110   -5.0420   11.2600 C.ar  114  PHE114     -0.0000
     97  N         18.5090   -2.7410   13.9430 N.3   116  GLN116     -0.1245
     98  CA        19.6420   -3.2570   13.2010 C.3   116  GLN116      0.1566
     99  C         20.7840   -2.2610   13.2540 C.2   116  GLN116      0.2260
    100  O         20.5680   -1.0500   13.2060 O.2   116  GLN116     -0.2867
    101  CB        19.2730   -3.6170   11.7370 C.3   116  GLN116      0.0367
    102  CG        18.4740   -2.5780   10.9520 C.3   116  GLN116      0.0905
    103  CD        18.4310   -2.8880    9.4550 C.2   116  GLN116      0.2608
    104  OE1       19.4670   -3.1260    8.8300 O.2   116  GLN116     -0.2717
    105  NE2       17.2310   -2.8950    8.8780 N.am  116  GLN116     -0.0878
    106  N         15.8110   -8.6150   -5.7320 N.3   191  ARG191     -0.1231
    107  CA        14.9510   -7.9460   -4.7650 C.3   191  ARG191      0.1694
    108  C         14.7390   -6.4390   -5.0330 C.2   191  ARG191      0.2591
    109  O         14.3940   -6.0690   -6.1460 O.2   191  ARG191     -0.2718
    110  CB        15.3970   -8.2400   -3.3320 C.3   191  ARG191      0.0321
    111  CG        16.8540   -7.9120   -3.0090 C.3   191  ARG191      0.0489
    112  CD        17.2490   -8.5930   -1.7040 C.3   191  ARG191      0.2205
    113  NE        18.5870   -8.2240   -1.2260 N.pl3 191  ARG191     -0.0865
    114  CZ        19.2520   -8.9160   -0.3000 C.cat 191  ARG191      0.5346
    115  NH1       18.6910   -9.9950    0.2510 N.pl3 191  ARG191      0.1354
    116  NH2       20.4700   -8.5280    0.0810 N.pl3 191  ARG191      0.1354
    117  N         14.8960   -5.5950   -4.0150 N.am  192  GLU192     -0.1979
    118  CA        14.5140   -4.1680   -4.1200 C.3   192  GLU192      0.1602
    119  C         15.3210   -3.3240   -5.1390 C.2   192  GLU192      0.2287
    120  O         16.4420   -3.6680   -5.4950 O.2   192  GLU192     -0.2864
    121  CB        14.5270   -3.5100   -2.7350 C.3   192  GLU192      0.0415
    122  CG        13.5650   -4.1470   -1.7220 C.3   192  GLU192      0.1163
    123  CD        14.2300   -5.2290   -0.8350 C.2   192  GLU192      0.3649
    124  OE1       13.6960   -5.5370    0.2560 O.co2 192  GLU192     -0.2457
    125  OE2       15.2890   -5.7660   -1.2160 O.co2 192  GLU192     -0.2457
    126  N         18.6550  -16.1160    8.8460 N.3   215  GLU215     -0.1231
    127  CA        19.3950  -14.9130    8.4310 C.3   215  GLU215      0.1699
    128  C         19.7190  -13.9640    9.5860 C.2   215  GLU215      0.2592
    129  O         18.8910  -13.7580   10.4670 O.2   215  GLU215     -0.2718
    130  CB        18.6010  -14.1650    7.3600 C.3   215  GLU215      0.0402
    131  CG        19.1040  -12.7650    7.0470 C.3   215  GLU215      0.1161
    132  CD        18.0800  -11.9850    6.2570 C.2   215  GLU215      0.3649
    133  OE1       18.1090  -10.7360    6.2480 O.co2 215  GLU215     -0.2457
    134  OE2       17.2180  -12.6500    5.6600 O.co2 215  GLU215     -0.2457
    135  N         20.9130  -13.3720    9.5650 N.am  216  VAL216     -0.1966
    136  CA        21.3220  -12.4260   10.6050 C.3   216  VAL216      0.1727
    137  C         21.7970  -11.0880   10.0220 C.2   216  VAL216      0.2617
    138  O         21.7820  -10.0630   10.7090 O.2   216  VAL216     -0.2715
    139  CB        22.4090  -13.0050   11.5400 C.3   216  VAL216      0.0290
    140  CG1       23.7530  -13.1440   10.8120 C.3   216  VAL216      0.0023
    141  CG2       22.5390  -12.1340   12.8020 C.3   216  VAL216      0.0023
    142  N         22.1890  -11.1050    8.7530 N.am  217  SER217     -0.1936
    143  CA        22.6210   -9.8880    8.0700 C.3   217  SER217      0.2055
    144  C         22.2690   -9.9050    6.5840 C.2   217  SER217      0.2643
    145  O         22.2070  -10.9650    5.9510 O.2   217  SER217     -0.2714
    146  CB        24.1330   -9.6780    8.2620 C.3   217  SER217      0.2130
    147  OG        24.5730   -8.4650    7.6550 O.3   217  SER217     -0.2179
    148  N         22.0750   -8.7160    6.0210 N.am  218  SER218     -0.1949
    149  CA        21.7180   -8.5750    4.6200 C.3   218  SER218      0.1924
    150  C         22.2230   -7.2370    4.0810 C.2   218  SER218      0.2314
    151  O         22.1210   -6.2230    4.7730 O.2   218  SER218     -0.2863
    152  CB        20.2010   -8.6170    4.5110 C.3   218  SER218      0.2116
    153  OG        19.8010   -8.7030    3.1730 O.3   218  SER218     -0.2180
    154  N         22.9710   -4.4420    6.8960 N.3   262  GLY262     -0.1225
    155  CA        22.4140   -4.2940    8.2240 C.3   262  GLY262      0.1811
    156  C         22.5430   -5.6160    8.9660 C.2   262  GLY262      0.2280
    157  O         22.4220   -6.6830    8.3580 O.2   262  GLY262     -0.2866
    158  N         21.0410   -7.6570   12.3590 N.3   264  GLY264     -0.1225
    159  CA        20.0260   -7.6930   13.3980 C.3   264  GLY264      0.1811
    160  C         20.6050   -7.9020   14.7860 C.2   264  GLY264      0.2280
    161  O         21.1590   -8.9600   15.0860 O.2   264  GLY264     -0.2866
    162  N         19.0840   -8.0290   17.9290 N.3   266  GLU266     -0.1231
    163  CA        18.3330   -9.0540   18.6680 C.3   266  GLU266      0.1699
    164  C         18.5560  -10.4720   18.1300 C.2   266  GLU266      0.2592
    165  O         18.6220  -11.4310   18.9020 O.2   266  GLU266     -0.2718
    166  CB        16.8350   -8.7410   18.6600 C.3   266  GLU266      0.0402
    167  CG        16.4440   -7.4410   19.3740 C.3   266  GLU266      0.1161
    168  CD        16.3520   -6.2420   18.4260 C.2   266  GLU266      0.3649
    169  OE1       16.9600   -6.2900   17.3180 O.co2 266  GLU266     -0.2457
    170  OE2       15.6710   -5.2530   18.8030 O.co2 266  GLU266     -0.2457
    171  N         18.6670  -10.6220   16.8130 N.am  267  ARG267     -0.1980
    172  CA        18.8750  -11.9710   16.2710 C.3   267  ARG267      0.1597
    173  C         20.2430  -12.4980   16.6850 C.2   267  ARG267      0.2287
    174  O         20.4190  -13.6970   16.8720 O.2   267  ARG267     -0.2864
    175  CB        18.7210  -11.9970   14.7540 C.3   267  ARG267      0.0334
    176  CG        17.2900  -11.7950   14.3080 C.3   267  ARG267      0.0492
    177  CD        17.1250  -12.1980   12.8580 C.3   267  ARG267      0.2205
    178  NE        15.7600  -11.9970   12.3980 N.pl3 267  ARG267     -0.0865
    179  CZ        15.3460  -12.2290   11.1570 C.cat 267  ARG267      0.5346
    180  NH1       16.1910  -12.6770   10.2320 N.pl3 267  ARG267      0.1354
    181  NH2       14.0810  -12.0070   10.8390 N.pl3 267  ARG267      0.1354
    182  N         12.9810  -15.2130   19.7710 N.3   278  ILE278     -0.1245
    183  CA        13.5820  -13.8960   19.9300 C.3   278  ILE278      0.1561
    184  C         12.9050  -13.0760   21.0430 C.2   278  ILE278      0.2260
    185  O         13.5170  -12.1790   21.6370 O.2   278  ILE278     -0.2867
    186  CB        13.5710  -13.1260   18.5980 C.3   278  ILE278      0.0252
    187  CG1       14.4070  -11.8540   18.7020 C.3   278  ILE278      0.0019
    188  CG2       12.1410  -12.8090   18.1610 C.3   278  ILE278      0.0019
    189  CD1       14.5670  -11.1430   17.3740 C.3   278  ILE278      0.0001
@<TRIPOS>BOND
     1   109   108    2
     2   106   107    1
     3   120   119    2
     4   119   118    1
     5   108   107    1
     6   108   117   am
     7   107   110    1
     8   118   117    1
     9   118   121    1
    10   110   111    1
    11   111   112    1
    12   121   122    1
    13    17    18    1
    14    18    19    1
    15    18    21    1
    16   122   123    1
    17   112   113    1
    18    19    20    2
    19   113   114    2
    20   125   123   ar
    21   123   124   ar
    22    21    22    1
    23   114   116    1
    24   114   115    1
    25    11    12    2
    26    11    10    1
    27    22    23   ar
    28    22    24   ar
    29    25    26    1
    30     9    10    1
    31    10    13    1
    32     7     6   ar
    33     3     2    1
    34     3     4    2
    35    26    27    1
    36    26    29    1
    37     2     1    1
    38     2     5    1
    39     6     8   ar
    40     6     5    1
    41    13    14    1
    42    27    28    2
    43   153   152    1
    44    14    16    1
    45    14    15    1
    46   150   149    1
    47   150   151    2
    48   152   149    1
    49   149   148    1
    50    58    57    1
    51   134   132   ar
    52   145   144    2
    53   148   144   am
    54    57    56    1
    55   133   132   ar
    56   132   131    1
    57   144   143    1
    58   154   155    1
    59   131   130    1
    60    39    38    1
    61    40    38    1
    62   130   127    1
    63    56    55    1
    64    38    37    2
    65   147   146    1
    66   143   146    1
    67   143   142    1
    68    48    47   ar
    69   155   156    1
    70    37    36    1
    71    55    54    1
    72   157   156    2
    73   127   126    1
    74   127   128    1
    75    36    35    1
    76   142   137   am
    77    69    67    1
    78   104   103    2
    79   105   103   am
    80    47    49   ar
    81    47    46    1
    82    35    34    1
    83    79    78   ar
    84    79    77   ar
    85   103   102    1
    86   135   128   am
    87   135   136    1
    88   128   129    2
    89    34    31    1
    90    54    51    1
    91    42    45    1
    92    42    43    1
    93    42    41    1
    94    78    76   ar
    95    67    66    2
    96    67    68    1
    97   137   136    1
    98   137   138    2
    99    45    46    1
   100    50    51    1
   101   180   179    1
   102    77    75   ar
   103    51    52    1
   104    66    65    1
   105    31    32    1
   106    31    30    1
   107    43    44    2
   108   136   139    1
   109   140   139    1
   110   181   179    1
   111    32    33    2
   112   102   101    1
   113    76    75   ar
   114   179   178    2
   115    96    94   ar
   116    96    95   ar
   117    75    74    1
   118   139   141    1
   119    65    64    1
   120    52    53    2
   121   101    98    1
   122    94    92   ar
   123    95    93   ar
   124   158   159    1
   125   178   177    1
   126    74    71    1
   127    64    63    1
   128   177   176    1
   129    63    60    1
   130    98    99    1
   131    98    97    1
   132   100    99    2
   133    92    91   ar
   134    93    91   ar
   135   159   160    1
   136    71    70    1
   137    71    72    1
   138    91    90    1
   139    62    61    2
   140    83    82    2
   141    70    61   am
   142    61    60    1
   143   176   175    1
   144    60    59    1
   145   175   172    1
   146   160   161    2
   147    72    80   am
   148    72    73    2
   149    80    81    1
   150    82    81    1
   151    89    88    2
   152    90    87    1
   153    88    87    1
   154    81    84    1
   155    86    87    1
   156   172   173    1
   157   172   171    1
   158   173   174    2
   159   171   164   am
   160    84    85    1
   161   169   168   ar
   162   189   187    1
   163   162   163    1
   164   164   163    1
   165   164   165    2
   166   188   186    1
   167   168   170   ar
   168   168   167    1
   169   186   187    1
   170   186   183    1
   171   166   163    1
   172   166   167    1
   173   182   183    1
   174   183   184    1
   175   184   185    2
