@<TRIPOS>MOLECULE
tmp/3reyA00.pdb
 179 171 0 0 0
SMALL
GASTEIGER

@<TRIPOS>ATOM
      1  N         46.2320   24.5010   47.6100 N.3     3  TYR3       -0.1241
      2  CA        45.7720   24.3300   46.2380 C.3     3  TYR3        0.1605
      3  C         44.9670   23.0450   46.1030 C.2     3  TYR3        0.2264
      4  O         43.9790   22.9930   45.3700 O.2     3  TYR3       -0.2867
      5  CB        46.9580   24.3070   45.2750 C.3     3  TYR3        0.0534
      6  CG        46.5900   23.9520   43.8510 C.ar    3  TYR3       -0.0201
      7  CD1       46.1880   24.9300   42.9540 C.ar    3  TYR3       -0.0009
      8  CD2       46.6490   22.6370   43.4040 C.ar    3  TYR3       -0.0009
      9  CE1       45.8530   24.6110   41.6520 C.ar    3  TYR3        0.0417
     10  CE2       46.3170   22.3090   42.1030 C.ar    3  TYR3        0.0417
     11  CZ        45.9200   23.3010   41.2320 C.ar    3  TYR3        0.1957
     12  OH        45.5880   22.9820   39.9360 O.3     3  TYR3       -0.2866
     13  N         43.9860   16.6160   37.1390 N.3    57  ALA57      -0.1245
     14  CA        44.8440   17.7950   37.1920 C.3    57  ALA57       0.1562
     15  C         45.6530   17.8500   38.4850 C.2    57  ALA57       0.2260
     16  O         46.7820   18.3410   38.5000 O.2    57  ALA57      -0.2867
     17  CB        44.0150   19.0610   37.0270 C.3    57  ALA57       0.0290
     18  N         48.3870   15.0140   38.0140 N.3    60  ILE60      -0.1231
     19  CA        49.4060   15.3250   37.0180 C.3    60  ILE60       0.1692
     20  C         50.2570   16.5250   37.4340 C.2    60  ILE60       0.2592
     21  O         51.3590   16.7230   36.9210 O.2    60  ILE60      -0.2718
     22  CB        48.7780   15.5920   35.6330 C.3    60  ILE60       0.0266
     23  CG1       49.8420   15.5270   34.5350 C.3    60  ILE60       0.0019
     24  CG2       48.0590   16.9330   35.6200 C.3    60  ILE60       0.0020
     25  CD1       49.2940   15.7430   33.1420 C.3    60  ILE60       0.0001
     26  N         49.7440   17.3200   38.3680 N.am   61  SER61      -0.1952
     27  CA        50.4730   18.4820   38.8640 C.3    61  SER61       0.1924
     28  C         51.7600   18.0450   39.5500 C.2    61  SER61       0.2314
     29  O         52.8110   18.6590   39.3710 O.2    61  SER61      -0.2863
     30  CB        49.6120   19.2920   39.8350 C.3    61  SER61       0.2116
     31  OG        49.3750   18.5720   41.0320 O.3    61  SER61      -0.2180
     32  N         45.1350   11.4000   30.7690 N.3    74  ILE74      -0.1231
     33  CA        45.0240   12.1370   32.0230 C.3    74  ILE74       0.1692
     34  C         45.4350   13.5980   31.8430 C.2    74  ILE74       0.2591
     35  O         45.0860   14.4600   32.6520 O.2    74  ILE74      -0.2718
     36  CB        45.8700   11.4740   33.1310 C.3    74  ILE74       0.0266
     37  CG1       45.3700   10.0510   33.3910 C.3    74  ILE74       0.0019
     38  CG2       45.8290   12.2920   34.4120 C.3    74  ILE74       0.0020
     39  CD1       46.0500    9.3610   34.5500 C.3    74  ILE74       0.0001
     40  N         46.1630   13.8730   30.7670 N.am   75  ALA75      -0.1980
     41  CA        46.6470   15.2210   30.4930 C.3    75  ALA75       0.1597
     42  C         45.7340   15.9770   29.5310 C.2    75  ALA75       0.2287
     43  O         45.6250   17.2010   29.5980 O.2    75  ALA75      -0.2864
     44  CB        48.0660   15.1690   29.9430 C.3    75  ALA75       0.0319
     45  N         40.9290   17.0690   30.0740 N.3    78  VAL78      -0.1231
     46  CA        40.3420   18.3770   30.3300 C.3    78  VAL78       0.1692
     47  C         40.1250   19.1270   29.0200 C.2    78  VAL78       0.2591
     48  O         39.2540   19.9930   28.9220 O.2    78  VAL78      -0.2718
     49  CB        41.2250   19.2200   31.2710 C.3    78  VAL78       0.0266
     50  CG1       42.5860   19.4760   30.6360 C.3    78  VAL78       0.0020
     51  CG2       40.5340   20.5300   31.6230 C.3    78  VAL78       0.0020
     52  N         40.9190   18.7830   28.0110 N.am   79  LEU79      -0.1980
     53  CA        40.8000   19.4020   26.6970 C.3    79  LEU79       0.1596
     54  C         39.5470   18.9080   25.9810 C.2    79  LEU79       0.2287
     55  O         39.1000   19.5110   25.0050 O.2    79  LEU79      -0.2864
     56  CB        42.0430   19.1150   25.8520 C.3    79  LEU79       0.0297
     57  CG        43.3770   19.5750   26.4460 C.3    79  LEU79       0.0022
     58  CD1       44.5390   19.1830   25.5450 C.3    79  LEU79       0.0001
     59  CD2       43.3690   21.0770   26.6920 C.3    79  LEU79       0.0001
     60  N         52.9710   17.3660   32.3730 N.3   154  PHE154     -0.1227
     61  CA        52.2430   17.8900   31.2220 C.3   154  PHE154      0.1736
     62  C         53.1050   18.6650   30.2330 C.2   154  PHE154      0.2595
     63  O         53.1560   18.3250   29.0530 O.2   154  PHE154     -0.2718
     64  CB        51.0580   18.7580   31.6390 C.3   154  PHE154      0.0547
     65  CG        50.3560   19.3860   30.4740 C.ar  154  PHE154     -0.0202
     66  CD1       49.5280   18.6270   29.6660 C.ar  154  PHE154     -0.0042
     67  CD2       50.5470   20.7210   30.1650 C.ar  154  PHE154     -0.0042
     68  CE1       48.8880   19.1910   28.5840 C.ar  154  PHE154     -0.0003
     69  CE2       49.9110   21.2890   29.0810 C.ar  154  PHE154     -0.0003
     70  CZ        49.0810   20.5240   28.2890 C.ar  154  PHE154     -0.0000
     71  N         53.7630   19.7160   30.7110 N.am  155  GLU155     -0.1979
     72  CA        54.5700   20.5680   29.8430 C.3   155  GLU155      0.1602
     73  C         55.6180   19.7640   29.0800 C.2   155  GLU155      0.2287
     74  O         56.1310   20.2110   28.0550 O.2   155  GLU155     -0.2864
     75  CB        55.2410   21.6870   30.6450 C.3   155  GLU155      0.0415
     76  CG        56.2660   21.2080   31.6600 C.3   155  GLU155      0.1163
     77  CD        55.6330   20.5750   32.8840 C.2   155  GLU155      0.3649
     78  OE1       54.4470   20.8570   33.1580 O.co2 155  GLU155     -0.2457
     79  OE2       56.3240   19.8000   33.5770 O.co2 155  GLU155     -0.2457
     80  N         53.4730   22.5500   22.9620 N.3   160  MET160     -0.1245
     81  CA        52.9340   23.8940   23.1440 C.3   160  MET160      0.1570
     82  C         52.4040   24.4610   21.8320 C.2   160  MET160      0.2261
     83  O         51.4730   25.2660   21.8270 O.2   160  MET160     -0.2867
     84  CB        53.9860   24.8300   23.7420 C.3   160  MET160      0.0387
     85  CG        54.2740   24.5830   25.2140 C.3   160  MET160      0.0595
     86  SD        52.8410   24.8960   26.2640 S.3   160  MET160     -0.1393
     87  CE        52.5370   26.6270   25.9200 C.3   160  MET160      0.0692
     88  N         48.8950   23.3700   21.8740 N.3   163  MET163     -0.1245
     89  CA        48.0840   24.1000   22.8420 C.3   163  MET163      0.1570
     90  C         47.8160   25.5290   22.3870 C.2   163  MET163      0.2261
     91  O         46.8880   26.1800   22.8690 O.2   163  MET163     -0.2867
     92  CB        48.7660   24.1180   24.2110 C.3   163  MET163      0.0387
     93  CG        49.1180   22.7440   24.7490 C.3   163  MET163      0.0595
     94  SD        47.7160   21.6160   24.7080 S.3   163  MET163     -0.1393
     95  CE        46.4860   22.5760   25.5860 C.3   163  MET163      0.0692
     96  N         44.8450   24.1560   19.3590 N.3   167  ASN167     -0.1240
     97  CA        43.8570   24.2030   20.4330 C.3   167  ASN167      0.1653
     98  C         43.2870   25.6010   20.6610 C.2   167  ASN167      0.2266
     99  O         42.1010   25.8380   20.4380 O.2   167  ASN167     -0.2867
    100  CB        44.4490   23.6460   21.7310 C.3   167  ASN167      0.1155
    101  CG        43.4110   23.4860   22.8270 C.2   167  ASN167      0.2627
    102  OD1       42.4190   24.2120   22.8710 O.2   167  ASN167     -0.2716
    103  ND2       43.6390   22.5320   23.7220 N.am  167  ASN167     -0.0877
    104  N         44.5210   31.3850   31.0780 N.3   235  LEU235     -0.1231
    105  CA        45.3560   30.2020   30.9080 C.3   235  LEU235      0.1693
    106  C         46.0090   30.1750   29.5300 C.2   235  LEU235      0.2592
    107  O         47.1890   29.8550   29.4030 O.2   235  LEU235     -0.2718
    108  CB        44.5440   28.9260   31.1350 C.3   235  LEU235      0.0284
    109  CG        45.3240   27.6140   31.0330 C.3   235  LEU235      0.0019
    110  CD1       46.4900   27.6080   32.0090 C.3   235  LEU235      0.0001
    111  CD2       44.4090   26.4230   31.2790 C.3   235  LEU235      0.0001
    112  N         45.2360   30.5120   28.5020 N.am  236  HIS236     -0.1976
    113  CA        45.7420   30.5220   27.1330 C.3   236  HIS236      0.1656
    114  C         46.7000   31.6840   26.8980 C.2   236  HIS236      0.2291
    115  O         47.7460   31.5190   26.2700 O.2   236  HIS236     -0.2864
    116  CB        44.5900   30.5840   26.1300 C.3   236  HIS236      0.0771
    117  CG        43.6890   29.3890   26.1690 C.ar  236  HIS236      0.0820
    118  ND1       43.9260   28.1060   26.5310 N.ar  236  HIS236     -0.2267
    119  CD2       42.3600   29.4480   25.8110 C.ar  236  HIS236      0.1154
    120  CE1       42.7460   27.4190   26.3810 C.ar  236  HIS236      0.1986
    121  NE2       41.8180   28.2500   25.9450 N.ar  236  HIS236     -0.2212
    122  N         49.9840   30.8580   27.9920 N.3   239  ASN239     -0.1240
    123  CA        50.6590   29.9380   27.0830 C.3   239  ASN239      0.1653
    124  C         51.0950   30.6010   25.7820 C.2   239  ASN239      0.2266
    125  O         51.9480   30.0770   25.0640 O.2   239  ASN239     -0.2867
    126  CB        49.7750   28.7250   26.8010 C.3   239  ASN239      0.1155
    127  CG        49.4980   27.9110   28.0470 C.2   239  ASN239      0.2627
    128  OD1       48.3480   27.6890   28.4180 O.2   239  ASN239     -0.2716
    129  ND2       50.5600   27.4720   28.7090 N.am  239  ASN239     -0.0877
    130  N         54.7510   29.4610   38.8430 N.3   253  LEU253     -0.1231
    131  CA        53.8390   28.3700   39.1670 C.3   253  LEU253      0.1693
    132  C         52.6740   28.8440   40.0310 C.2   253  LEU253      0.2592
    133  O         51.5470   28.3730   39.8780 O.2   253  LEU253     -0.2718
    134  CB        54.5840   27.2290   39.8620 C.3   253  LEU253      0.0284
    135  CG        55.5990   26.4710   39.0040 C.3   253  LEU253      0.0019
    136  CD1       56.2720   25.3720   39.8120 C.3   253  LEU253      0.0001
    137  CD2       54.9300   25.8980   37.7640 C.3   253  LEU253      0.0001
    138  N         52.9510   29.7760   40.9370 N.am  254  TRP254     -0.1976
    139  CA        51.9220   30.3070   41.8240 C.3   254  TRP254      0.1640
    140  C         50.8720   31.0890   41.0380 C.2   254  TRP254      0.2290
    141  O         49.7440   31.2720   41.4980 O.2   254  TRP254     -0.2864
    142  CB        52.5440   31.1920   42.9060 C.3   254  TRP254      0.0576
    143  CG        53.1880   32.4290   42.3670 C.ar  254  TRP254      0.0006
    144  CD1       54.4920   32.5810   42.0000 C.ar  254  TRP254      0.0946
    145  CD2       52.5550   33.6920   42.1310 C.ar  254  TRP254      0.0152
    146  NE1       54.7120   33.8610   41.5510 N.ar  254  TRP254     -0.2442
    147  CE2       53.5370   34.5640   41.6220 C.ar  254  TRP254      0.0810
    148  CE3       51.2520   34.1710   42.3020 C.ar  254  TRP254      0.0012
    149  CZ2       53.2590   35.8860   41.2810 C.ar  254  TRP254      0.0191
    150  CZ3       50.9770   35.4840   41.9640 C.ar  254  TRP254      0.0001
    151  CH2       51.9760   36.3260   41.4590 C.ar  254  TRP254      0.0015
    152  N         50.5360   30.2380   37.6740 N.3   256  MET256     -0.1230
    153  CA        50.1600   29.2490   36.6730 C.3   256  MET256      0.1702
    154  C         48.9380   28.4480   37.1090 C.2   256  MET256      0.2592
    155  O         48.0180   28.2320   36.3210 O.2   256  MET256     -0.2718
    156  CB        51.3280   28.3040   36.3880 C.3   256  MET256      0.0401
    157  CG        51.0500   27.2980   35.2850 C.3   256  MET256      0.0596
    158  SD        50.8590   28.0690   33.6670 S.3   256  MET256     -0.1393
    159  CE        52.5210   28.6750   33.3900 C.3   256  MET256      0.0692
    160  N         48.9290   28.0070   38.3630 N.am  257  TYR257     -0.1976
    161  CA        47.8090   27.2260   38.8750 C.3   257  TYR257      0.1639
    162  C         46.5640   28.0870   39.0430 C.2   257  TYR257      0.2290
    163  O         45.4450   27.5850   38.9740 O.2   257  TYR257     -0.2864
    164  CB        48.1620   26.5390   40.1980 C.3   257  TYR257      0.0560
    165  CG        48.1660   27.4560   41.4030 C.ar  257  TYR257     -0.0198
    166  CD1       46.9760   27.8780   41.9880 C.ar  257  TYR257     -0.0009
    167  CD2       49.3590   27.8860   41.9670 C.ar  257  TYR257     -0.0009
    168  CE1       46.9770   28.7130   43.0920 C.ar  257  TYR257      0.0417
    169  CE2       49.3690   28.7180   43.0720 C.ar  257  TYR257      0.0417
    170  CZ        48.1770   29.1290   43.6290 C.ar  257  TYR257      0.1957
    171  OH        48.1880   29.9580   44.7280 O.3   257  TYR257     -0.2866
    172  N         44.7800   27.9370   36.1590 N.3   260  ILE260     -0.1245
    173  CA        44.2410   26.5890   36.0460 C.3   260  ILE260      0.1561
    174  C         43.0000   26.4420   36.9220 C.2   260  ILE260      0.2260
    175  O         41.9920   25.8720   36.5020 O.2   260  ILE260     -0.2867
    176  CB        45.2880   25.5350   36.4490 C.3   260  ILE260      0.0252
    177  CG1       46.5540   25.6980   35.6050 C.3   260  ILE260      0.0019
    178  CG2       44.7240   24.1360   36.2940 C.3   260  ILE260      0.0019
    179  CD1       47.6750   24.7650   35.9970 C.3   260  ILE260      0.0001
@<TRIPOS>BOND
     1    96    97    1
     2    97    98    1
     3    97   100    1
     4    99    98    2
     5   100   101    1
     6    83    82    2
     7    82    81    1
     8    88    89    1
     9    90    89    1
    10    90    91    2
    11   101   102    2
    12   101   103   am
    13    89    92    1
    14    80    81    1
    15    81    84    1
    16    84    85    1
    17    92    93    1
    18    94    93    1
    19    94    95    1
    20    55    54    2
    21   125   124    2
    22    85    86    1
    23    58    57    1
    24   124   123    1
    25   119   121   ar
    26   119   117   ar
    27    56    57    1
    28    56    53    1
    29    87    86    1
    30   121   120   ar
    31    54    53    1
    32   116   117    1
    33   116   113    1
    34   117   118   ar
    35   115   114    2
    36   120   118   ar
    37    57    59    1
    38    53    52    1
    39   126   123    1
    40   126   127    1
    41   114   113    1
    42   123   122    1
    43   113   112    1
    44    52    47   am
    45   127   128    2
    46   127   129   am
    47    74    73    2
    48    70    68   ar
    49    70    69   ar
    50   112   106   am
    51    68    66   ar
    52    48    47    2
    53    47    46    1
    54    63    62    2
    55    73    72    1
    56    69    67   ar
    57   107   106    2
    58   106   105    1
    59    42    43    2
    60    42    41    1
    61    66    65   ar
    62    72    75    1
    63    72    71    1
    64    44    41    1
    65    45    46    1
    66    67    65   ar
    67    62    71   am
    68    62    61    1
    69    46    49    1
    70    65    64    1
    71    41    40    1
    72    50    49    1
    73    75    76    1
    74    40    34   am
    75    32    33    1
    76   105   104    1
    77   105   108    1
    78   109   108    1
    79   109   111    1
    80   109   110    1
    81    61    64    1
    82    61    60    1
    83    49    51    1
    84    76    77    1
    85    34    33    1
    86    34    35    2
    87    33    36    1
    88    77    78   ar
    89    77    79   ar
    90    36    37    1
    91    36    38    1
    92    25    23    1
    93   159   158    1
    94    37    39    1
    95   158   157    1
    96    23    22    1
    97   157   156    1
    98   177   179    1
    99   177   176    1
   100    24    22    1
   101    22    19    1
   102   173   172    1
   103   173   176    1
   104   173   174    1
   105   178   176    1
   106   155   154    2
   107   156   153    1
   108   175   174    2
   109   153   154    1
   110   153   152    1
   111    21    20    2
   112    19    20    1
   113    19    18    1
   114    17    14    1
   115   154   160   am
   116    13    14    1
   117    14    15    1
   118    20    26   am
   119   137   135    1
   120   160   161    1
   121    26    27    1
   122    15    16    2
   123   130   131    1
   124    27    28    1
   125    27    30    1
   126   161   162    1
   127   161   164    1
   128   163   162    2
   129   135   136    1
   130   135   134    1
   131   131   134    1
   132   131   132    1
   133    29    28    2
   134    30    31    1
   135   133   132    2
   136    12    11    1
   137   132   138   am
   138   164   165    1
   139   138   139    1
   140   140   141    2
   141   140   139    1
   142    11     9   ar
   143    11    10   ar
   144   149   151   ar
   145   149   147   ar
   146   165   167   ar
   147   165   166   ar
   148   151   150   ar
   149   146   147   ar
   150   146   144   ar
   151   147   145   ar
   152     9     7   ar
   153   139   142    1
   154   150   148   ar
   155   167   169   ar
   156   166   168   ar
   157   144   143   ar
   158    10     8   ar
   159   145   148   ar
   160   145   143   ar
   161   143   142    1
   162     7     6   ar
   163   169   170   ar
   164   168   170   ar
   165     8     6   ar
   166   170   171    1
   167     6     5    1
   168     5     2    1
   169     4     3    2
   170     3     2    1
   171     2     1    1
