@<TRIPOS>MOLECULE
tmp/3rf1B00.pdb
 91 85 0 0 0
SMALL
GASTEIGER

@<TRIPOS>ATOM
      1  N         18.7000  -25.3410  -20.9650 N.3    55  ARG55      -0.1245
      2  CA        19.3680  -24.9860  -22.2010 C.3    55  ARG55       0.1563
      3  C         20.3900  -23.9130  -21.8830 C.2    55  ARG55       0.2260
      4  O         20.1240  -22.7270  -22.0740 O.2    55  ARG55      -0.2867
      5  CB        18.3530  -24.4360  -23.2070 C.3    55  ARG55       0.0307
      6  CG        17.0240  -25.1800  -23.2410 C.3    55  ARG55       0.0489
      7  CD        16.9230  -26.1520  -24.4160 C.3    55  ARG55       0.2205
      8  NE        15.8360  -25.7770  -25.3240 N.pl3  55  ARG55      -0.0865
      9  CZ        15.2290  -26.6050  -26.1690 C.cat  55  ARG55       0.5346
     10  NH1       15.5890  -27.8770  -26.2310 N.pl3  55  ARG55       0.1354
     11  NH2       14.2550  -26.1550  -26.9510 N.pl3  55  ARG55       0.1354
     12  N         21.0160  -20.7880  -23.9910 N.3    58  ASP58      -0.1239
     13  CA        19.8920  -19.8650  -24.1480 C.3    58  ASP58       0.1674
     14  C         19.7650  -18.9100  -22.9650 C.2    58  ASP58       0.2266
     15  O         18.8860  -18.0470  -22.9420 O.2    58  ASP58      -0.2867
     16  CB        18.5760  -20.6280  -24.3500 C.3    58  ASP58       0.1410
     17  CG        18.4140  -21.1540  -25.7610 C.2    58  ASP58       0.3668
     18  OD1       18.7780  -20.4300  -26.7150 O.co2  58  ASP58      -0.2456
     19  OD2       17.9200  -22.2920  -25.9220 O.co2  58  ASP58      -0.2456
     20  N         11.8010  -13.0290  -23.1080 N.3    66  ASN66      -0.1225
     21  CA        11.4470  -14.1790  -23.9440 C.3    66  ASN66       0.1785
     22  C         12.3750  -15.3820  -23.8160 C.2    66  ASN66       0.2597
     23  O         11.9130  -16.5060  -23.6660 O.2    66  ASN66      -0.2718
     24  CB        11.3770  -13.7780  -25.4180 C.3    66  ASN66       0.1169
     25  CG         9.9780  -13.4060  -25.8590 C.2    66  ASN66       0.2627
     26  OD1        9.1980  -12.8370  -25.0930 O.2    66  ASN66      -0.2716
     27  ND2        9.6500  -13.7320  -27.1030 N.am   66  ASN66      -0.0877
     28  N         13.6810  -15.1530  -23.9030 N.am   67  ARG67      -0.1966
     29  CA        14.6260  -16.2630  -23.9030 C.3    67  ARG67       0.1729
     30  C         14.9970  -16.6820  -22.4750 C.2    67  ARG67       0.2616
     31  O         15.2690  -15.8400  -21.6100 O.2    67  ARG67      -0.2715
     32  CB        15.8630  -15.9400  -24.7550 C.3    67  ARG67       0.0348
     33  CG        16.3420  -17.1050  -25.6260 C.3    67  ARG67       0.0492
     34  CD        17.2270  -16.6370  -26.7900 C.3    67  ARG67       0.2205
     35  NE        16.4950  -15.8360  -27.7790 N.pl3  67  ARG67      -0.0865
     36  CZ        16.6880  -14.5340  -28.0010 C.cat  67  ARG67       0.5346
     37  NH1       15.9650  -13.8990  -28.9170 N.pl3  67  ARG67       0.1354
     38  NH2       17.6030  -13.8600  -27.3140 N.pl3  67  ARG67       0.1354
     39  N         14.9830  -17.9940  -22.2450 N.am   68  LEU68      -0.1977
     40  CA        15.1830  -18.5740  -20.9170 C.3    68  LEU68       0.1596
     41  C         16.2320  -19.6730  -20.9300 C.2    68  LEU68       0.2287
     42  O         16.1850  -20.5600  -21.7830 O.2    68  LEU68      -0.2864
     43  CB        13.8830  -19.1860  -20.4100 C.3    68  LEU68       0.0297
     44  CG        12.8070  -18.2420  -19.8970 C.3    68  LEU68       0.0022
     45  CD1       11.5700  -19.0630  -19.5660 C.3    68  LEU68       0.0001
     46  CD2       13.3100  -17.4600  -18.6790 C.3    68  LEU68       0.0001
     47  N         13.2320  -23.7360  -18.8650 N.3    71  TYR71      -0.1241
     48  CA        11.8160  -23.4860  -19.1030 C.3    71  TYR71       0.1605
     49  C         11.0280  -24.7830  -19.0620 C.2    71  TYR71       0.2264
     50  O         11.5970  -25.8610  -19.1280 O.2    71  TYR71      -0.2867
     51  CB        11.6110  -22.7610  -20.4470 C.3    71  TYR71       0.0534
     52  CG        11.6130  -23.6630  -21.6760 C.ar   71  TYR71      -0.0201
     53  CD1       10.4190  -23.9790  -22.3330 C.ar   71  TYR71      -0.0009
     54  CD2       12.7990  -24.1870  -22.1850 C.ar   71  TYR71      -0.0009
     55  CE1       10.4050  -24.7970  -23.4570 C.ar   71  TYR71       0.0417
     56  CE2       12.7970  -25.0100  -23.3130 C.ar   71  TYR71       0.0417
     57  CZ        11.5960  -25.3060  -23.9460 C.ar   71  TYR71       0.1957
     58  OH        11.5830  -26.1100  -25.0680 O.3    71  TYR71      -0.2866
     59  N          5.8570  -19.5260  -32.3060 N.3   131  GLU131     -0.1245
     60  CA         5.9060  -20.9700  -32.1190 C.3   131  GLU131      0.1567
     61  C          5.4540  -21.3430  -30.7000 C.2   131  GLU131      0.2260
     62  O          6.0370  -20.8750  -29.7210 O.2   131  GLU131     -0.2867
     63  CB         7.3280  -21.4750  -32.3940 C.3   131  GLU131      0.0388
     64  CG         7.4690  -22.9920  -32.4350 C.3   131  GLU131      0.1160
     65  CD         8.9220  -23.4530  -32.4260 C.2   131  GLU131      0.3649
     66  OE1        9.8070  -22.6350  -32.7580 O.co2 131  GLU131     -0.2457
     67  OE2        9.1760  -24.6320  -32.0810 O.co2 131  GLU131     -0.2457
     68  N          5.2470  -25.3670  -25.5100 N.3   156  GLY156     -0.1225
     69  CA         6.0500  -24.3250  -24.8870 C.3   156  GLY156      0.1811
     70  C          5.1860  -23.6040  -23.8670 C.2   156  GLY156      0.2280
     71  O          4.4410  -22.6890  -24.2060 O.2   156  GLY156     -0.2866
     72  N          5.4860  -21.4520  -21.2580 N.3   158  GLU158     -0.1231
     73  CA         5.5480  -20.0090  -21.0160 C.3   158  GLU158      0.1699
     74  C          4.9020  -19.1880  -22.1330 C.2   158  GLU158      0.2592
     75  O          4.1820  -18.2380  -21.8620 O.2   158  GLU158     -0.2718
     76  CB         6.9820  -19.5250  -20.7770 C.3   158  GLU158      0.0402
     77  CG         7.6270  -20.0410  -19.5010 C.3   158  GLU158      0.1161
     78  CD         8.1150  -21.4690  -19.6380 C.2   158  GLU158      0.3649
     79  OE1        7.9080  -22.0760  -20.7090 O.co2 158  GLU158     -0.2457
     80  OE2        8.7040  -21.9850  -18.6740 O.co2 158  GLU158     -0.2457
     81  N          5.1550  -19.5390  -23.3850 N.am  159  ARG159     -0.1980
     82  CA         4.5700  -18.7670  -24.4830 C.3   159  ARG159      0.1597
     83  C          3.0580  -18.8960  -24.4630 C.2   159  ARG159      0.2287
     84  O          2.3400  -17.9120  -24.6180 O.2   159  ARG159     -0.2864
     85  CB         5.1310  -19.1970  -25.8400 C.3   159  ARG159      0.0334
     86  CG         6.6460  -19.3080  -25.8600 C.3   159  ARG159      0.0492
     87  CD         7.2380  -19.0920  -27.2420 C.3   159  ARG159      0.2205
     88  NE         8.6770  -19.3500  -27.2400 N.pl3 159  ARG159     -0.0865
     89  CZ         9.4930  -19.0670  -28.2510 C.cat 159  ARG159      0.5346
     90  NH1        9.0170  -18.5070  -29.3570 N.pl3 159  ARG159      0.1354
     91  NH2       10.7860  -19.3400  -28.1530 N.pl3 159  ARG159      0.1354
@<TRIPOS>BOND
     1    66    65   ar
     2    64    65    1
     3    64    63    1
     4    65    67   ar
     5    63    60    1
     6    59    60    1
     7    60    61    1
     8    61    62    2
     9    90    89    1
    10    37    36    1
    11    89    91    1
    12    89    88    2
    13    36    35    2
    14    36    38    1
    15    35    34    1
    16    87    88    1
    17    87    86    1
    18    27    25   am
    19    11     9    1
    20    34    33    1
    21    18    17   ar
    22    10     9    1
    23     9     8    2
    24    19    17   ar
    25    86    85    1
    26    25    24    1
    27    25    26    2
    28    85    82    1
    29    17    16    1
    30    33    32    1
    31    68    69    1
    32    24    21    1
    33     8     7    1
    34    58    57    1
    35    69    70    1
    36    32    29    1
    37    84    83    2
    38    82    83    1
    39    82    81    1
    40     7     6    1
    41    16    13    1
    42    71    70    2
    43    13    12    1
    44    13    14    1
    45    57    55   ar
    46    57    56   ar
    47    21    22    1
    48    21    20    1
    49    29    28    1
    50    29    30    1
    51    28    22   am
    52    22    23    2
    53    55    53   ar
    54    81    74   am
    55    56    54   ar
    56     6     5    1
    57     5     2    1
    58    14    15    2
    59    30    39   am
    60    30    31    2
    61    53    52   ar
    62    39    40    1
    63     2     3    1
    64     2     1    1
    65    54    52   ar
    66    74    75    2
    67    74    73    1
    68     4     3    2
    69    42    41    2
    70    52    51    1
    71    72    73    1
    72    73    76    1
    73    41    40    1
    74    40    43    1
    75    76    77    1
    76    79    78   ar
    77    51    48    1
    78    43    44    1
    79    44    45    1
    80    44    46    1
    81    78    77    1
    82    78    80   ar
    83    50    49    2
    84    48    49    1
    85    48    47    1
