@<TRIPOS>MOLECULE
tmp/3rf4C00.pdb
 106 103 0 0 0
SMALL
GASTEIGER

@<TRIPOS>ATOM
      1  N        -25.7140   36.5480    9.4560 N.3     1  PRO1       -0.2102
      2  CA       -27.1230   36.9890    9.1470 C.3     1  PRO1        0.1504
      3  C        -27.6190   36.2730    7.8660 C.2     1  PRO1        0.2575
      4  O        -26.8790   35.9590    6.9570 O.2     1  PRO1       -0.2718
      5  CB       -26.9770   38.4770    8.8690 C.3     1  PRO1        0.0282
      6  CG       -25.9310   38.8830    9.9180 C.3     1  PRO1        0.0208
      7  CD       -24.9620   37.7140   10.0010 C.3     1  PRO1        0.0893
      8  N        -28.8920   35.9860    7.8400 N.am    2  MET2       -0.1980
      9  CA       -29.4870   35.3000    6.7250 C.3     2  MET2        0.1605
     10  C        -30.6970   36.1540    6.4070 C.2     2  MET2        0.2287
     11  O        -31.6100   36.2040    7.2290 O.2     2  MET2       -0.2864
     12  CB       -29.8630   33.8610    7.0590 C.3     2  MET2        0.0413
     13  CG       -28.6470   32.9300    7.3090 C.3     2  MET2        0.0598
     14  SD       -27.9790   33.2720    9.0050 S.3     2  MET2       -0.1393
     15  CE       -29.1070   32.3340   10.0270 C.3     2  MET2        0.0692
     16  N        -21.0420   42.4830   11.3910 N.3    32  LYS32      -0.1231
     17  CA       -20.8530   41.1060   11.0890 C.3    32  LYS32       0.1681
     18  C        -19.8960   40.9530    9.8970 C.2    32  LYS32       0.2471
     19  O        -19.8670   41.7830    8.9980 O.2    32  LYS32      -0.2730
     20  CB       -22.2470   40.4240   10.7150 C.3    32  LYS32       0.0284
     21  CG       -23.1900   40.3960   11.9620 C.3    32  LYS32       0.0035
     22  CD       -22.9610   39.1510   12.7950 C.3    32  LYS32       0.0206
     23  CE       -23.9570   39.1360   13.9950 C.3    32  LYS32       0.1093
     24  NZ       -23.7970   37.8200   14.6970 N.3    32  LYS32      -0.1314
     25  N        -19.0930   39.9110    9.8850 N.am   33  PRO33      -0.2506
     26  CA       -18.1780   39.8360    8.6940 C.3    33  PRO33       0.1487
     27  C        -18.9830   39.4620    7.4250 C.2    33  PRO33       0.2276
     28  O        -20.0070   38.7540    7.5050 O.2    33  PRO33      -0.2865
     29  CB       -17.3130   38.6300    8.9670 C.3    33  PRO33       0.0556
     30  CG       -17.7100   38.0720   10.3110 C.2    33  PRO33      -0.0078
     31  CD       -18.8790   38.8420   10.8880 C.2    33  PRO33       0.0634
     32  N        -18.3890   37.3180    5.1490 N.3    35  ASN35      -0.1225
     33  CA       -18.4960   35.8460    4.9070 C.3    35  ASN35       0.1785
     34  C        -19.4760   35.1750    5.8660 C.2    35  ASN35       0.2597
     35  O        -19.5670   33.9430    5.8640 O.2    35  ASN35      -0.2718
     36  CB       -17.1510   35.0830    4.8720 C.3    35  ASN35       0.1169
     37  CG       -16.3980   35.0400    6.2440 C.2    35  ASN35       0.2627
     38  OD1      -16.9070   35.4830    7.3190 O.2    35  ASN35      -0.2716
     39  ND2      -15.1790   34.4540    6.2140 N.am   35  ASN35      -0.0877
     40  N        -20.1510   35.9400    6.7080 N.am   36  ARG36      -0.1966
     41  CA       -21.2080   35.3270    7.5490 C.3    36  ARG36       0.1729
     42  C        -22.5760   35.9570    7.1730 C.2    36  ARG36       0.2616
     43  O        -23.4780   35.9450    8.0000 O.2    36  ARG36      -0.2715
     44  CB       -20.9360   35.5960    9.0250 C.3    36  ARG36       0.0348
     45  CG       -19.6900   34.8950    9.4890 C.3    36  ARG36       0.0492
     46  CD       -19.8160   33.4100    9.3190 C.3    36  ARG36       0.2205
     47  NE       -18.5900   32.6810    9.6910 N.pl3  36  ARG36      -0.0865
     48  CZ       -17.6770   32.1760    8.8330 C.cat  36  ARG36       0.5346
     49  NH1      -17.7920   32.3300    7.4990 N.pl3  36  ARG36       0.1354
     50  NH2      -16.5840   31.5170    9.3340 N.pl3  36  ARG36       0.1354
     51  N        -22.6850   36.4900    5.9450 N.am   37  ILE37      -0.1963
     52  CA       -23.9940   37.0740    5.5540 C.3    37  ILE37       0.1727
     53  C        -24.4780   36.3600    4.2670 C.2    37  ILE37       0.2616
     54  O        -23.7360   36.3380    3.2620 O.2    37  ILE37      -0.2715
     55  CB       -23.7950   38.5520    5.2780 C.3    37  ILE37       0.0290
     56  CG1      -23.4120   39.2040    6.6340 C.3    37  ILE37       0.0022
     57  CG2      -25.0830   39.2070    4.6540 C.3    37  ILE37       0.0023
     58  CD1      -23.1340   40.6490    6.4600 C.3    37  ILE37       0.0001
     59  N        -25.7280   35.7930    4.2830 N.am   38  ALA38      -0.1977
     60  CA       -26.2750   35.2310    3.0910 C.3    38  ALA38       0.1597
     61  C        -27.5280   35.9980    2.7140 C.2    38  ALA38       0.2287
     62  O        -28.2670   36.4380    3.6120 O.2    38  ALA38      -0.2864
     63  CB       -26.6570   33.7320    3.3610 C.3    38  ALA38       0.0319
     64  N        -30.4540   36.8000   12.5060 N.3    63  SER63      -0.1202
     65  CA       -29.0370   36.9690   12.8910 C.3    63  SER63       0.2020
     66  C        -28.8470   36.3920   14.3240 C.2    63  SER63       0.2618
     67  O        -29.7500   36.3910   15.1320 O.2    63  SER63      -0.2717
     68  CB       -28.7740   38.5200   12.9390 C.3    63  SER63       0.2103
     69  OG       -27.4410   38.8290   13.4090 O.3    63  SER63      -0.2182
     70  N        -27.6320   35.9670   14.6140 N.am   64  ILE64      -0.1979
     71  CA       -27.3510   35.6470   16.0140 C.3    64  ILE64       0.1595
     72  C        -27.0410   36.9600   16.7100 C.2    64  ILE64       0.2287
     73  O        -25.8830   37.4410   16.6520 O.2    64  ILE64      -0.2864
     74  CB       -26.1550   34.7190   16.0810 C.3    64  ILE64       0.0276
     75  CG1      -26.5240   33.3670   15.4030 C.3    64  ILE64       0.0022
     76  CG2      -25.7190   34.4110   17.5810 C.3    64  ILE64       0.0022
     77  CD1      -25.3230   32.3640   15.2410 C.3    64  ILE64       0.0001
     78  N        -28.3560   27.5130   14.7810 N.3   106  VAL106     -0.1231
     79  CA       -27.7520   27.8070   13.5070 C.3   106  VAL106      0.1692
     80  C        -26.7340   26.7290   13.2050 C.2   106  VAL106      0.2593
     81  O        -25.8580   26.4390   14.0820 O.2   106  VAL106     -0.2718
     82  CB       -27.1420   29.2220   13.5010 C.3   106  VAL106      0.0266
     83  CG1      -26.6110   29.5690   12.0240 C.3   106  VAL106      0.0020
     84  CG2      -28.2160   30.2310   13.9830 C.3   106  VAL106      0.0020
     85  N        -26.8450   26.1250   12.0200 N.am  107  GLY107     -0.1942
     86  CA       -25.8340   25.2180   11.5210 C.3   107  GLY107      0.2014
     87  C        -25.0080   25.8420   10.4130 C.2   107  GLY107      0.2638
     88  O        -25.5350   26.4150    9.4560 O.2   107  GLY107     -0.2714
     89  N        -23.6970   25.6530   10.5230 N.am  108  PHE108     -0.1973
     90  CA       -22.7350   26.1920    9.5460 C.3   108  PHE108      0.1639
     91  C        -21.4700   25.3540    9.6090 C.2   108  PHE108      0.2290
     92  O        -21.0230   24.9500   10.7200 O.2   108  PHE108     -0.2864
     93  CB       -22.4250   27.6690    9.7590 C.3   108  PHE108      0.0560
     94  CG       -21.4690   28.1760    8.7630 C.ar  108  PHE108     -0.0200
     95  CD1      -21.8070   28.1520    7.4050 C.ar  108  PHE108     -0.0042
     96  CD2      -20.1810   28.5880    9.1280 C.ar  108  PHE108     -0.0042
     97  CE1      -20.9310   28.5590    6.4510 C.ar  108  PHE108     -0.0003
     98  CE2      -19.2640   28.9620    8.1330 C.ar  108  PHE108     -0.0003
     99  CZ       -19.6340   29.0040    6.8290 C.ar  108  PHE108     -0.0000
    100  N        -23.3830   26.6470   15.3780 N.3   113  VAL113     -0.1245
    101  CA       -22.5050   27.7740   15.8000 C.3   113  VAL113      0.1561
    102  C        -22.0770   27.6000   17.2820 C.2   113  VAL113      0.2260
    103  O        -20.9290   27.9460   17.6520 O.2   113  VAL113     -0.2867
    104  CB       -23.1900   29.1000   15.5140 C.3   113  VAL113      0.0252
    105  CG1      -22.3310   30.3390   16.0660 C.3   113  VAL113      0.0019
    106  CG2      -23.4300   29.2140   13.9740 C.3   113  VAL113      0.0019
@<TRIPOS>BOND
     1    61    60    1
     2    61    62    2
     3    60    63    1
     4    60    59    1
     5    54    53    2
     6    53    59   am
     7    53    52    1
     8    57    55    1
     9    36    33    1
    10    36    37    1
    11    33    32    1
    12    33    34    1
    13    55    52    1
    14    55    56    1
    15    52    51    1
    16    35    34    2
    17    34    40   am
    18    51    42   am
    19    39    37   am
    20    37    38    2
    21    10     9    1
    22    10    11    2
    23    97    99   ar
    24    97    95   ar
    25    58    56    1
    26    40    41    1
    27     9    12    1
    28     9     8    1
    29    99    98   ar
    30     4     3    2
    31    12    13    1
    32    42    41    1
    33    42    43    2
    34    13    14    1
    35    95    94   ar
    36    27    28    2
    37    27    26    1
    38    49    48    1
    39    41    44    1
    40     8     3   am
    41     3     2    1
    42    98    96   ar
    43    26    29    1
    44    26    25    1
    45    94    96   ar
    46    94    93    1
    47    48    50    1
    48    48    47    2
    49     5     2    1
    50     5     6    1
    51    29    30    1
    52    19    18    2
    53    14    15    1
    54    44    45    1
    55     2     1    1
    56    46    45    1
    57    46    47    1
    58    88    87    2
    59     1     7    1
    60    90    91    1
    61    90    93    1
    62    90    89    1
    63    91    92    2
    64    25    18   am
    65    25    31    1
    66    18    17    1
    67     6     7    1
    68    30    31    2
    69    87    89   am
    70    87    86    1
    71    20    17    1
    72    20    21    1
    73    17    16    1
    74    86    85    1
    75    21    22    1
    76    85    80   am
    77    83    82    1
    78    64    65    1
    79    22    23    1
    80    65    68    1
    81    65    66    1
    82    68    69    1
    83    80    79    1
    84    80    81    2
    85    82    79    1
    86    82    84    1
    87    79    78    1
    88   106   104    1
    89    23    24    1
    90    66    70   am
    91    66    67    2
    92    70    71    1
    93    77    75    1
    94   100   101    1
    95    75    74    1
    96   104   101    1
    97   104   105    1
    98   101   102    1
    99    71    74    1
   100    71    72    1
   101    74    76    1
   102    73    72    2
   103   102   103    2
