@<TRIPOS>MOLECULE
tmp/3rf5A00.pdb
 106 103 0 0 0
SMALL
GASTEIGER

@<TRIPOS>ATOM
      1  N         25.5330  -22.5360   29.0310 N.3     1  PRO1       -0.2102
      2  CA        26.9010  -22.9140   28.7360 C.3     1  PRO1        0.1504
      3  C         27.3860  -22.3600   27.3950 C.2     1  PRO1        0.2575
      4  O         26.5810  -22.0650   26.4920 O.2     1  PRO1       -0.2718
      5  CB        26.8370  -24.4480   28.6880 C.3     1  PRO1        0.0282
      6  CG        25.8290  -24.7720   29.7750 C.3     1  PRO1        0.0208
      7  CD        24.8270  -23.5750   29.8260 C.3     1  PRO1        0.0893
      8  N         28.6950  -22.1860   27.2780 N.am    2  MET2       -0.1980
      9  CA        29.2700  -21.5640   26.0880 C.3     2  MET2        0.1605
     10  C         30.5230  -22.3770   25.9020 C.2     2  MET2        0.2287
     11  O         31.4110  -22.3950   26.8130 O.2     2  MET2       -0.2864
     12  CB        29.6770  -20.0930   26.3320 C.3     2  MET2        0.0413
     13  CG        28.5140  -19.0920   26.4970 C.3     2  MET2        0.0598
     14  SD        27.6370  -19.2090   28.1050 S.3     2  MET2       -0.1393
     15  CE        28.7220  -18.2790   29.1690 C.3     2  MET2        0.0692
     16  N         21.0690  -28.2700   31.7600 N.3    32  LYS32      -0.1231
     17  CA        20.8720  -26.9010   31.2940 C.3    32  LYS32       0.1678
     18  C         19.9650  -26.9080   30.0930 C.2    32  LYS32       0.2434
     19  O         20.0110  -27.8380   29.3180 O.2    32  LYS32      -0.2733
     20  CB        22.2230  -26.2800   30.9160 C.3    32  LYS32       0.0284
     21  CG        23.1330  -26.0090   32.1190 C.3    32  LYS32       0.0035
     22  CD        22.8090  -24.7030   32.8420 C.3    32  LYS32       0.0206
     23  CE        23.7930  -24.4460   34.0520 C.3    32  LYS32       0.1093
     24  NZ        23.6080  -22.9820   34.4130 N.3    32  LYS32      -0.1314
     25  N         19.1500  -25.8600   29.9290 N.am   33  PRO33      -0.2729
     26  CA        18.2590  -25.7940   28.8070 C.3    33  PRO33       0.1401
     27  C         18.9990  -25.5770   27.4750 C.2    33  PRO33       0.2269
     28  O         19.9540  -24.7910   27.4070 O.2    33  PRO33      -0.2865
     29  CB        17.3190  -24.6190   29.1400 C.3    33  PRO33       0.0296
     30  CG        18.0160  -23.8190   30.1790 C.3    33  PRO33       0.0237
     31  CD        19.0730  -24.6820   30.8100 C.3    33  PRO33       0.0939
     32  N         18.1900  -23.7820   24.9390 N.3    35  ASN35      -0.1225
     33  CA        18.2660  -22.3680   24.5180 C.3    35  ASN35       0.1785
     34  C         19.2770  -21.4990   25.2810 C.2    35  ASN35       0.2597
     35  O         19.2960  -20.2780   25.1020 O.2    35  ASN35      -0.2718
     36  CB        16.8830  -21.6800   24.4830 C.3    35  ASN35       0.1169
     37  CG        16.2520  -21.4810   25.8940 C.2    35  ASN35       0.2627
     38  OD1       16.8200  -21.8520   26.9060 O.2    35  ASN35      -0.2716
     39  ND2       15.0520  -20.8740   25.9370 N.am   35  ASN35      -0.0877
     40  N         20.0760  -22.1050   26.1510 N.am   36  ARG36      -0.1966
     41  CA        21.1480  -21.3900   26.8570 C.3    36  ARG36       0.1729
     42  C         22.4890  -22.0520   26.5650 C.2    36  ARG36       0.2616
     43  O         23.4100  -22.0260   27.4170 O.2    36  ARG36      -0.2715
     44  CB        20.9230  -21.4160   28.3800 C.3    36  ARG36       0.0348
     45  CG        19.6680  -20.6500   28.9470 C.3    36  ARG36       0.0492
     46  CD        19.6180  -19.1310   28.8490 C.3    36  ARG36       0.2205
     47  NE        18.9110  -18.8770   27.6330 N.pl3  36  ARG36      -0.0865
     48  CZ        17.7490  -18.2520   27.4650 C.cat  36  ARG36       0.5346
     49  NH1       17.1060  -17.6470   28.4230 N.pl3  36  ARG36       0.1354
     50  NH2       17.2760  -18.2020   26.2510 N.pl3  36  ARG36       0.1354
     51  N         22.5980  -22.7140   25.4010 N.am   37  ILE37      -0.1963
     52  CA        23.8060  -23.4320   25.0710 C.3    37  ILE37       0.1727
     53  C         24.3280  -22.9260   23.7470 C.2    37  ILE37       0.2616
     54  O         23.6290  -23.0420   22.7300 O.2    37  ILE37      -0.2715
     55  CB        23.6620  -24.9770   25.0900 C.3    37  ILE37       0.0290
     56  CG1       23.4420  -25.4550   26.5290 C.3    37  ILE37       0.0022
     57  CG2       24.9330  -25.7070   24.4960 C.3    37  ILE37       0.0023
     58  CD1       22.8970  -26.9190   26.6650 C.3    37  ILE37       0.0001
     59  N         25.5640  -22.3970   23.7570 N.am   38  ALA38      -0.1977
     60  CA        26.2270  -21.8890   22.5040 C.3    38  ALA38       0.1597
     61  C         27.4260  -22.7260   22.2470 C.2    38  ALA38       0.2287
     62  O         28.1210  -23.1080   23.2010 O.2    38  ALA38      -0.2864
     63  CB        26.6460  -20.3650   22.6270 C.3    38  ALA38       0.0319
     64  N         30.2080  -22.2440   32.0670 N.3    63  SER63      -0.1202
     65  CA        28.8250  -22.3980   32.4800 C.3    63  SER63       0.2020
     66  C         28.6310  -21.7070   33.8440 C.2    63  SER63       0.2618
     67  O         29.5630  -21.5900   34.6100 O.2    63  SER63      -0.2717
     68  CB        28.4700  -23.8860   32.5920 C.3    63  SER63       0.2103
     69  OG        27.1750  -24.0670   33.1560 O.3    63  SER63      -0.2182
     70  N         27.4090  -21.2910   34.1370 N.am   64  ILE64      -0.1979
     71  CA        27.1150  -20.7370   35.4540 C.3    64  ILE64       0.1595
     72  C         26.7130  -21.9570   36.2680 C.2    64  ILE64       0.2287
     73  O         25.5390  -22.3910   36.2480 O.2    64  ILE64      -0.2864
     74  CB        25.9600  -19.7260   35.4180 C.3    64  ILE64       0.0276
     75  CG1       26.3770  -18.5050   34.5970 C.3    64  ILE64       0.0022
     76  CG2       25.5220  -19.3030   36.8990 C.3    64  ILE64       0.0022
     77  CD1       25.1690  -17.5000   34.3550 C.3    64  ILE64       0.0001
     78  N         28.0370  -12.8830   33.2020 N.3   106  VAL106     -0.1231
     79  CA        27.4660  -13.3280   31.9430 C.3   106  VAL106      0.1692
     80  C         26.4110  -12.3340   31.4780 C.2   106  VAL106      0.2593
     81  O         25.5330  -11.9630   32.2540 O.2   106  VAL106     -0.2718
     82  CB        26.8370  -14.7410   32.0510 C.3   106  VAL106      0.0266
     83  CG1       26.1850  -15.1330   30.6840 C.3   106  VAL106      0.0020
     84  CG2       27.8890  -15.7880   32.5100 C.3   106  VAL106      0.0020
     85  N         26.4950  -11.9250   30.2080 N.am  107  GLY107     -0.1942
     86  CA        25.5370  -10.9960   29.5680 C.3   107  GLY107      0.2014
     87  C         24.7020  -11.7700   28.5620 C.2   107  GLY107      0.2638
     88  O         25.2220  -12.4820   27.7020 O.2   107  GLY107     -0.2714
     89  N         23.3870  -11.6710   28.7100 N.am  108  PHE108     -0.1973
     90  CA        22.4460  -12.2650   27.7740 C.3   108  PHE108      0.1639
     91  C         21.1720  -11.4120   27.7100 C.2   108  PHE108      0.2290
     92  O         20.6740  -10.8420   28.7330 O.2   108  PHE108     -0.2864
     93  CB        22.1270  -13.7210   28.1010 C.3   108  PHE108      0.0560
     94  CG        21.1360  -14.3160   27.1440 C.ar  108  PHE108     -0.0200
     95  CD1       21.4780  -14.4710   25.7790 C.ar  108  PHE108     -0.0042
     96  CD2       19.8360  -14.6870   27.5750 C.ar  108  PHE108     -0.0042
     97  CE1       20.5400  -14.9950   24.8480 C.ar  108  PHE108     -0.0003
     98  CE2       18.8600  -15.1920   26.6350 C.ar  108  PHE108     -0.0003
     99  CZ        19.2290  -15.3470   25.2780 C.ar  108  PHE108     -0.0000
    100  N         22.9010  -12.0050   33.5360 N.3   113  VAL113     -0.1245
    101  CA        22.0480  -13.0930   34.0160 C.3   113  VAL113      0.1561
    102  C         21.6320  -12.7610   35.4900 C.2   113  VAL113      0.2260
    103  O         20.4990  -12.9980   35.8830 O.2   113  VAL113     -0.2867
    104  CB        22.7780  -14.4850   33.8880 C.3   113  VAL113      0.0252
    105  CG1       21.9420  -15.6180   34.6510 C.3   113  VAL113      0.0019
    106  CG2       22.9970  -14.8450   32.3180 C.3   113  VAL113      0.0019
@<TRIPOS>BOND
     1    61    60    1
     2    61    62    2
     3    60    63    1
     4    60    59    1
     5    54    53    2
     6    53    59   am
     7    53    52    1
     8    36    33    1
     9    36    37    1
    10    57    55    1
    11    33    32    1
    12    33    34    1
    13    97    99   ar
    14    97    95   ar
    15    52    55    1
    16    52    51    1
    17    55    56    1
    18    35    34    2
    19    99    98   ar
    20    34    40   am
    21    51    42   am
    22    95    94   ar
    23    37    39   am
    24    37    38    2
    25    10     9    1
    26    10    11    2
    27     9    12    1
    28     9     8    1
    29    40    41    1
    30    50    48    1
    31    12    13    1
    32     4     3    2
    33    13    14    1
    34    56    58    1
    35    42    41    1
    36    42    43    2
    37    98    96   ar
    38    41    44    1
    39    94    96   ar
    40    94    93    1
    41     8     3   am
    42     3     2    1
    43    28    27    2
    44    48    47    2
    45    48    49    1
    46    27    26    1
    47    47    46    1
    48    88    87    2
    49    91    90    1
    50    91    92    2
    51    90    93    1
    52    90    89    1
    53    14    15    1
    54    44    45    1
    55    87    89   am
    56    87    86    1
    57     5     2    1
    58     5     6    1
    59     2     1    1
    60    26    29    1
    61    26    25    1
    62    46    45    1
    63     1     7    1
    64    29    30    1
    65    19    18    2
    66    86    85    1
    67     6     7    1
    68    25    18   am
    69    25    31    1
    70    18    17    1
    71    30    31    1
    72    85    80   am
    73    83    82    1
    74    20    17    1
    75    20    21    1
    76    17    16    1
    77    80    79    1
    78    80    81    2
    79    79    82    1
    80    79    78    1
    81    82    84    1
    82    64    65    1
    83    21    22    1
    84   106   104    1
    85    65    68    1
    86    65    66    1
    87    68    69    1
    88    22    23    1
    89   100   101    1
    90    66    70   am
    91    66    67    2
    92   104   101    1
    93   104   105    1
    94   101   102    1
    95    23    24    1
    96    70    71    1
    97    77    75    1
    98    75    74    1
    99    74    71    1
   100    74    76    1
   101    71    72    1
   102   102   103    2
   103    73    72    2
