@<TRIPOS>MOLECULE
tmp/3rf6B01.pdb
 107 99 0 0 0
SMALL
GASTEIGER

@<TRIPOS>ATOM
      1  N         -6.9980    2.7000  -17.8840 N.3    19  ALA19      -0.1231
      2  CA        -7.2990    2.0820  -16.5930 C.3    19  ALA19       0.1694
      3  C         -7.3760    0.5590  -16.8270 C.2    19  ALA19       0.2592
      4  O         -7.4900    0.0940  -17.9680 O.2    19  ALA19      -0.2718
      5  CB        -8.6290    2.6000  -16.0670 C.3    19  ALA19       0.0304
      6  N         -7.3610   -0.2000  -15.7470 N.am   20  ILE20      -0.1966
      7  CA        -7.3540   -1.6820  -15.8880 C.3    20  ILE20       0.1727
      8  C         -8.6790   -2.2120  -15.3830 C.2    20  ILE20       0.2616
      9  O         -9.4180   -2.7790  -16.1710 O.2    20  ILE20      -0.2715
     10  CB        -6.1980   -2.2980  -15.0970 C.3    20  ILE20       0.0290
     11  CG1       -4.8740   -1.7860  -15.6650 C.3    20  ILE20       0.0022
     12  CG2       -6.2810   -3.8990  -15.1380 C.3    20  ILE20       0.0023
     13  CD1       -3.6680   -2.1750  -14.7580 C.3    20  ILE20       0.0001
     14  N         -9.0180   -2.0030  -14.0990 N.am   21  ASP21      -0.1971
     15  CA       -10.3170   -2.4980  -13.5990 C.3    21  ASP21       0.1709
     16  C        -11.4970   -1.8360  -14.3070 C.2    21  ASP21       0.2293
     17  O        -11.5760   -0.6070  -14.3890 O.2    21  ASP21      -0.2864
     18  CB       -10.4530   -2.2760  -12.0990 C.3    21  ASP21       0.1436
     19  CG        -9.3270   -2.9630  -11.3260 C.2    21  ASP21       0.3671
     20  OD1       -9.3230   -4.1980  -11.3310 O.co2  21  ASP21      -0.2456
     21  OD2       -8.4560   -2.2560  -10.7640 O.co2  21  ASP21      -0.2456
     22  N         -3.3580    2.8790  -13.4330 N.3    52  THR52      -0.1203
     23  CA        -4.3790    2.2010  -12.6720 C.3    52  THR52       0.1994
     24  C         -4.2900    2.6310  -11.2100 C.2    52  THR52       0.2618
     25  O         -3.1980    2.9410  -10.6960 O.2    52  THR52      -0.2717
     26  CB        -4.1820    0.6670  -12.7170 C.3    52  THR52       0.1784
     27  OG1       -5.0970    0.0180  -11.8500 O.3    52  THR52      -0.2211
     28  CG2       -2.8230    0.2790  -12.2470 C.3    52  THR52       0.0376
     29  N         -5.4570    2.7600  -10.5920 N.am   53  ASN53      -0.1960
     30  CA        -5.4810    3.0100   -9.1480 C.3    53  ASN53       0.1819
     31  C         -5.5110    1.6710   -8.3440 C.2    53  ASN53       0.2621
     32  O         -5.6160    1.6630   -7.1140 O.2    53  ASN53      -0.2715
     33  CB        -6.6790    3.8910   -8.7970 C.3    53  ASN53       0.1195
     34  CG        -6.3830    5.3490   -8.9270 C.2    53  ASN53       0.2630
     35  OD1       -5.3220    5.7690   -9.4200 O.2    53  ASN53      -0.2716
     36  ND2       -7.3440    6.1430   -8.4920 N.am   53  ASN53      -0.0877
     37  N         -5.3150    0.5570   -9.0590 N.am   54  GLY54      -0.1954
     38  CA        -5.1430   -0.7450   -8.4200 C.3    54  GLY54       0.1869
     39  C         -3.6950   -0.8370   -7.9590 C.2    54  GLY54       0.2309
     40  O         -2.9010    0.0570   -8.1570 O.2    54  GLY54      -0.2863
     41  N         -5.9620   -1.4390   -0.8250 N.3   163  ASP163     -0.1239
     42  CA        -6.9810   -1.6940    0.2220 C.3   163  ASP163      0.1674
     43  C         -6.6080   -2.9080    1.0350 C.2   163  ASP163      0.2266
     44  O         -6.3750   -3.9570    0.4490 O.2   163  ASP163     -0.2867
     45  CB        -8.3270   -2.0270   -0.3980 C.3   163  ASP163      0.1410
     46  CG        -8.7810   -0.9800   -1.3750 C.2   163  ASP163      0.3668
     47  OD1       -9.4900   -0.0840   -0.8940 O.co2 163  ASP163     -0.2456
     48  OD2       -8.4710   -1.0970   -2.6020 O.co2 163  ASP163     -0.2456
     49  N         -5.2570    6.1670   -3.5590 N.3   204  ASN204     -0.1240
     50  CA        -6.4110    5.9810   -4.4200 C.3   204  ASN204      0.1653
     51  C         -7.6430    6.5320   -3.7210 C.2   204  ASN204      0.2266
     52  O         -7.9930    6.0250   -2.6660 O.2   204  ASN204     -0.2867
     53  CB        -6.5410    4.4500   -4.6230 C.3   204  ASN204      0.1155
     54  CG        -7.7960    4.0390   -5.3270 C.2   204  ASN204      0.2627
     55  OD1       -8.4690    4.8340   -5.9860 O.2   204  ASN204     -0.2716
     56  ND2       -8.0980    2.7050   -5.2620 N.am  204  ASN204     -0.0877
     57  N        -10.7300    6.4200   -5.0770 N.3   206  ASP206     -0.1239
     58  CA       -11.9080    5.8770   -5.7510 C.3   206  ASP206      0.1674
     59  C        -12.9380    5.4090   -4.7240 C.2   206  ASP206      0.2266
     60  O        -12.7170    4.4240   -3.9980 O.2   206  ASP206     -0.2867
     61  CB       -11.5640    4.6390   -6.5950 C.3   206  ASP206      0.1410
     62  CG       -10.7870    4.9820   -7.8740 C.2   206  ASP206      0.3668
     63  OD1      -10.3500    6.1430   -8.0840 O.co2 206  ASP206     -0.2456
     64  OD2      -10.5930    4.0530   -8.6870 O.co2 206  ASP206     -0.2456
     65  N        -15.4170    0.9120   -7.4560 N.3   209  TRP209     -0.1241
     66  CA       -14.6960    0.3070   -8.5640 C.3   209  TRP209      0.1605
     67  C        -15.4370   -0.9430   -9.0200 C.2   209  TRP209      0.2264
     68  O        -16.3640   -1.4210   -8.3250 O.2   209  TRP209     -0.2867
     69  CB       -13.2860   -0.0380   -8.1510 C.3   209  TRP209      0.0550
     70  CG       -13.1670   -1.0950   -7.0580 C.ar  209  TRP209      0.0003
     71  CD1      -13.4980   -0.9470   -5.7400 C.ar  209  TRP209      0.0946
     72  CD2      -12.6050   -2.4090   -7.1940 C.ar  209  TRP209      0.0152
     73  NE1      -13.2370   -2.1330   -5.0530 N.ar  209  TRP209     -0.2442
     74  CE2      -12.6740   -3.0250   -5.9360 C.ar  209  TRP209      0.0810
     75  CE3      -12.0700   -3.1270   -8.2710 C.ar  209  TRP209      0.0012
     76  CZ2      -12.2080   -4.3390   -5.7160 C.ar  209  TRP209      0.0191
     77  CZ3      -11.6450   -4.4460   -8.0570 C.ar  209  TRP209      0.0001
     78  CH2      -11.6920   -5.0110   -6.7740 C.ar  209  TRP209      0.0015
     79  N        -14.0750    1.1270   -2.8180 N.3   219  GLY219     -0.1225
     80  CA       -12.6380    1.0120   -2.9420 C.3   219  GLY219      0.1811
     81  C        -11.9060    1.8310   -1.8790 C.2   219  GLY219      0.2280
     82  O        -12.4580    2.2090   -0.8440 O.2   219  GLY219     -0.2866
     83  N         -5.0610    8.6300   -9.5400 N.3   246  LYS246     -0.1245
     84  CA        -6.0510    9.4010  -10.3130 C.3   246  LYS246      0.1561
     85  C         -7.1270    9.8890   -9.3250 C.2   246  LYS246      0.2260
     86  O         -7.5140    9.1370   -8.4510 O.2   246  LYS246     -0.2867
     87  CB        -6.6980    8.5260  -11.3920 C.3   246  LYS246      0.0271
     88  CG        -5.7220    7.9580  -12.4360 C.3   246  LYS246      0.0035
     89  CD        -6.4320    6.9440  -13.3740 C.3   246  LYS246      0.0206
     90  CE        -6.6910    5.6450  -12.5840 C.3   246  LYS246      0.1093
     91  NZ        -7.3110    4.6570  -13.5540 N.3   246  LYS246     -0.1314
     92  N        -13.3130    3.9140  -16.8460 N.3   298  ASP298     -0.1239
     93  CA       -14.7080    3.5700  -16.5850 C.3   298  ASP298      0.1674
     94  C        -15.2880    4.4310  -15.4930 C.2   298  ASP298      0.2266
     95  O        -16.4760    4.3360  -15.2120 O.2   298  ASP298     -0.2867
     96  CB       -14.8580    2.1030  -16.1330 C.3   298  ASP298      0.1410
     97  CG       -14.1000    1.8230  -14.8470 C.2   298  ASP298      0.3668
     98  OD1      -12.9770    2.3640  -14.6760 O.co2 298  ASP298     -0.2456
     99  OD2      -14.6260    1.0570  -13.9920 O.co2 298  ASP298     -0.2456
    100  N        -10.9090    8.5960  -13.6030 N.3   303  ASP303     -0.1239
    101  CA       -10.2770    8.6440  -14.9120 C.3   303  ASP303      0.1674
    102  C        -10.5880    9.8880  -15.7030 C.2   303  ASP303      0.2266
    103  O         -9.6850   10.5020  -16.2910 O.2   303  ASP303     -0.2867
    104  CB       -10.7830    7.4730  -15.7380 C.3   303  ASP303      0.1410
    105  CG       -10.4680    6.1500  -15.0610 C.2   303  ASP303      0.3668
    106  OD1       -9.2670    5.9460  -14.7810 O.co2 303  ASP303     -0.2456
    107  OD2      -11.4010    5.3710  -14.7950 O.co2 303  ASP303     -0.2456
@<TRIPOS>BOND
     1     4     3    2
     2     1     2    1
     3    92    93    1
     4     3     2    1
     5     3     6   am
     6     2     5    1
     7    93    96    1
     8    93    94    1
     9   103   102    2
    10     9     8    2
    11    96    97    1
    12     7     6    1
    13     7     8    1
    14     7    10    1
    15   104   105    1
    16   104   101    1
    17   102   101    1
    18    11    10    1
    19    11    13    1
    20    94    95    2
    21     8    14   am
    22    12    10    1
    23   105   107   ar
    24   105   106   ar
    25   101   100    1
    26    97    98   ar
    27    97    99   ar
    28    17    16    2
    29    16    15    1
    30    14    15    1
    31    15    18    1
    32    91    90    1
    33    22    23    1
    34    89    90    1
    35    89    88    1
    36    26    23    1
    37    26    28    1
    38    26    27    1
    39    23    24    1
    40    88    87    1
    41    18    19    1
    42    87    84    1
    43    20    19   ar
    44    19    21   ar
    45    24    25    2
    46    24    29   am
    47    29    30    1
    48    84    83    1
    49    84    85    1
    50    35    34    2
    51    85    86    2
    52    30    33    1
    53    30    31    1
    54    37    38    1
    55    37    31   am
    56    67    66    1
    57    67    68    2
    58    34    33    1
    59    34    36   am
    60    64    62   ar
    61    66    69    1
    62    66    65    1
    63    38    39    1
    64    31    32    2
    65    75    77   ar
    66    75    72   ar
    67    40    39    2
    68    69    70    1
    69    63    62   ar
    70    77    78   ar
    71    62    61    1
    72    72    70   ar
    73    72    74   ar
    74    70    71   ar
    75    78    76   ar
    76    61    58    1
    77    55    54    2
    78    74    76   ar
    79    74    73   ar
    80    58    57    1
    81    58    59    1
    82    71    73   ar
    83    54    56   am
    84    54    53    1
    85    59    60    2
    86    53    50    1
    87    50    51    1
    88    50    49    1
    89    51    52    2
    90    80    79    1
    91    80    81    1
    92    48    46   ar
    93    81    82    2
    94    46    47   ar
    95    46    45    1
    96    41    42    1
    97    45    42    1
    98    42    43    1
    99    44    43    2
