@<TRIPOS>MOLECULE
tmp/3rfaA00.pdb
 208 202 0 0 0
SMALL
GASTEIGER

@<TRIPOS>ATOM
      1  N        -18.8170   -3.5340  -24.5330 N.3   109  CYS109     -0.1235
      2  CA       -19.2430   -2.1660  -24.2480 C.3   109  CYS109      0.1677
      3  C        -18.4810   -1.1720  -25.1170 C.2   109  CYS109      0.2270
      4  O        -17.2880   -1.3510  -25.3900 O.2   109  CYS109     -0.2867
      5  CB       -19.0670   -1.8180  -22.7650 C.3   109  CYS109      0.0956
      6  SG       -19.7960   -0.2150  -22.3060 S.3   109  CYS109     -0.0801
      7  N        -18.1340    2.0940  -24.3480 N.3   111  LEU111     -0.1245
      8  CA       -17.7920    3.2970  -23.5900 C.3   111  LEU111      0.1561
      9  C        -16.3160    3.4780  -23.2250 C.2   111  LEU111      0.2260
     10  O        -15.8980    4.5700  -22.8420 O.2   111  LEU111     -0.2867
     11  CB       -18.7290    3.4650  -22.3890 C.3   111  LEU111      0.0270
     12  CG       -19.8910    4.4380  -22.6510 C.3   111  LEU111      0.0019
     13  CD1      -20.2720    4.5920  -24.1350 C.3   111  LEU111      0.0001
     14  CD2      -21.1110    4.0820  -21.8250 C.3   111  LEU111      0.0001
     15  N        -14.0470    2.6780  -20.8660 N.3   113  CYS113     -0.1235
     16  CA       -13.4270    2.9950  -19.5750 C.3   113  CYS113      0.1677
     17  C        -12.1010    2.2420  -19.4810 C.2   113  CYS113      0.2270
     18  O        -12.0380    1.0490  -19.7820 O.2   113  CYS113     -0.2867
     19  CB       -14.3470    2.6250  -18.4060 C.3   113  CYS113      0.0956
     20  SG       -15.9680    3.4460  -18.4420 S.3   113  CYS113     -0.0801
     21  N        -10.0990    1.2760  -17.1050 N.3   115  PHE115     -0.1227
     22  CA        -9.8740    0.3290  -16.0190 C.3   115  PHE115      0.1736
     23  C        -10.7880   -0.8960  -16.1700 C.2   115  PHE115      0.2596
     24  O        -10.7780   -1.7940  -15.3220 O.2   115  PHE115     -0.2718
     25  CB       -10.1630    1.0210  -14.6830 C.3   115  PHE115      0.0547
     26  CG       -11.5730    1.5290  -14.5740 C.ar  115  PHE115     -0.0202
     27  CD1      -12.5840    0.7070  -14.0930 C.ar  115  PHE115     -0.0042
     28  CD2      -11.8980    2.8130  -14.9960 C.ar  115  PHE115     -0.0042
     29  CE1      -13.8910    1.1610  -14.0150 C.ar  115  PHE115     -0.0003
     30  CE2      -13.2100    3.2750  -14.9220 C.ar  115  PHE115     -0.0003
     31  CZ       -14.2060    2.4450  -14.4310 C.ar  115  PHE115     -0.0000
     32  N        -11.5840   -0.9060  -17.2400 N.am  116  CYS116     -0.1956
     33  CA       -12.6110   -1.9290  -17.4760 C.3   116  CYS116      0.1843
     34  C        -12.1710   -2.8700  -18.5980 C.2   116  CYS116      0.2626
     35  O        -11.8330   -2.4190  -19.6950 O.2   116  CYS116     -0.2714
     36  CB       -13.9460   -1.2530  -17.8250 C.3   116  CYS116      0.0997
     37  SG       -15.3700   -2.3490  -18.1220 S.3   116  CYS116     -0.0797
     38  N        -12.1600   -4.1710  -18.3150 N.am  117  SER117     -0.1936
     39  CA       -11.7160   -5.1740  -19.2910 C.3   117  SER117      0.2055
     40  C        -12.7130   -5.3360  -20.4390 C.2   117  SER117      0.2643
     41  O        -12.3200   -5.5960  -21.5810 O.2   117  SER117     -0.2714
     42  CB       -11.4760   -6.5230  -18.6150 C.3   117  SER117      0.2130
     43  OG       -12.6700   -7.0110  -18.0330 O.3   117  SER117     -0.2179
     44  N        -13.9980   -5.1740  -20.1220 N.am  118  THR118     -0.1950
     45  CA       -15.0790   -5.2410  -21.1110 C.3   118  THR118      0.1897
     46  C        -14.9160   -4.1740  -22.2100 C.2   118  THR118      0.2313
     47  O        -15.4470   -4.3170  -23.3110 O.2   118  THR118     -0.2863
     48  CB       -16.4670   -5.1000  -20.4290 C.3   118  THR118      0.1794
     49  OG1      -16.5250   -5.9330  -19.2610 O.3   118  THR118     -0.2208
     50  CG2      -17.5860   -5.5000  -21.3710 C.3   118  THR118      0.0378
     51  N        -27.6330   -4.5690  -12.2140 N.3   159  MET159     -0.1230
     52  CA       -27.2650   -4.5450  -13.6240 C.3   159  MET159      0.1702
     53  C        -25.8320   -4.0410  -13.7490 C.2   159  MET159      0.2592
     54  O        -25.5970   -2.9370  -14.2370 O.2   159  MET159     -0.2718
     55  CB       -28.2210   -3.6400  -14.4040 C.3   159  MET159      0.0401
     56  CG       -29.6940   -3.9860  -14.2210 C.3   159  MET159      0.0596
     57  SD       -30.0610   -5.7130  -14.6300 S.3   159  MET159     -0.1393
     58  CE       -29.6490   -5.7690  -16.3660 C.3   159  MET159      0.0692
     59  N        -24.8790   -4.8480  -13.2890 N.am  160  MET160     -0.1965
     60  CA       -23.4830   -4.4120  -13.1820 C.3   160  MET160      0.1736
     61  C        -22.5050   -5.3490  -13.8860 C.2   160  MET160      0.2617
     62  O        -21.2940   -5.2670  -13.6730 O.2   160  MET160     -0.2715
     63  CB       -23.0900   -4.2420  -11.7110 C.3   160  MET160      0.0427
     64  CG       -23.6910   -3.0050  -11.0460 C.3   160  MET160      0.0599
     65  SD       -23.3760   -2.8470   -9.2690 S.3   160  MET160     -0.1393
     66  CE       -21.5880   -2.9250   -9.2040 C.3   160  MET160      0.0692
     67  N        -23.0370   -6.2410  -14.7170 N.am  161  GLY161     -0.1940
     68  CA       -22.2130   -7.0770  -15.5900 C.3   161  GLY161      0.2014
     69  C        -21.7450   -6.2900  -16.8020 C.2   161  GLY161      0.2639
     70  O        -21.7360   -5.0650  -16.7830 O.2   161  GLY161     -0.2714
     71  N        -21.3730   -7.0040  -17.8600 N.am  162  MET162     -0.1963
     72  CA       -20.8990   -6.3970  -19.0980 C.3   162  MET162      0.1736
     73  C        -21.9000   -5.4120  -19.6930 C.2   162  MET162      0.2617
     74  O        -23.1030   -5.6890  -19.7410 O.2   162  MET162     -0.2715
     75  CB       -20.5880   -7.4900  -20.1250 C.3   162  MET162      0.0427
     76  CG       -19.4440   -8.4070  -19.7120 C.3   162  MET162      0.0599
     77  SD       -19.2490   -9.8580  -20.7760 S.3   162  MET162     -0.1393
     78  CE       -18.9400   -9.1010  -22.3670 C.3   162  MET162      0.0692
     79  N        -21.3910   -4.2620  -20.1260 N.am  163  GLY163     -0.1940
     80  CA       -22.1680   -3.3220  -20.9250 C.3   163  GLY163      0.2014
     81  C        -22.7880   -2.1720  -20.1640 C.2   163  GLY163      0.2639
     82  O        -22.8890   -2.2010  -18.9320 O.2   163  GLY163     -0.2714
     83  N        -23.1920   -1.1490  -20.9110 N.am  164  GLU164     -0.1963
     84  CA       -23.8860   -0.0030  -20.3470 C.3   164  GLU164      0.1718
     85  C        -25.3950   -0.2000  -20.5230 C.2   164  GLU164      0.2458
     86  O        -25.8990   -0.1690  -21.6460 O.2   164  GLU164     -0.2730
     87  CB       -23.3900    1.3080  -20.9850 C.3   164  GLU164      0.0428
     88  CG       -24.1740    2.5640  -20.5890 C.3   164  GLU164      0.1163
     89  CD       -24.3280    2.7430  -19.0830 C.2   164  GLU164      0.3649
     90  OE1      -23.3080    2.7410  -18.3520 O.co2 164  GLU164     -0.2457
     91  OE2      -25.4850    2.8860  -18.6300 O.co2 164  GLU164     -0.2457
     92  N        -26.1150   -0.4330  -19.4090 N.am  165  PRO165     -0.2727
     93  CA       -27.5520   -0.7070  -19.4620 C.3   165  PRO165      0.1402
     94  C        -28.3680    0.4190  -20.1050 C.2   165  PRO165      0.2269
     95  O        -29.3780    0.1450  -20.7560 O.2   165  PRO165     -0.2865
     96  CB       -27.9330   -0.8840  -17.9860 C.3   165  PRO165      0.0296
     97  CG       -26.6750   -1.3430  -17.3290 C.3   165  PRO165      0.0237
     98  CD       -25.5800   -0.5900  -18.0420 C.3   165  PRO165      0.0939
     99  N        -27.0820    0.2880  -12.8290 N.3   195  SER195     -0.1202
    100  CA       -25.8220    1.0210  -12.7120 C.3   195  SER195      0.2020
    101  C        -25.4570    1.6320  -14.0660 C.2   195  SER195      0.2619
    102  O        -25.5510    0.9560  -15.0930 O.2   195  SER195     -0.2717
    103  CB       -24.7230    0.0610  -12.2580 C.3   195  SER195      0.2103
    104  OG       -23.4780    0.7080  -12.0890 O.3   195  SER195     -0.2182
    105  N        -25.0460    2.9010  -14.0670 N.am  196  THR196     -0.1938
    106  CA       -24.6820    3.6070  -15.3000 C.3   196  THR196      0.2028
    107  C        -23.4380    4.4870  -15.1410 C.2   196  THR196      0.2642
    108  O        -23.2160    5.0770  -14.0800 O.2   196  THR196     -0.2714
    109  CB       -25.8460    4.4860  -15.8350 C.3   196  THR196      0.1808
    110  OG1      -25.4440    5.1200  -17.0560 O.3   196  THR196     -0.2208
    111  CG2      -26.2460    5.5620  -14.8310 C.3   196  THR196      0.0379
    112  N        -22.6480    4.5860  -16.2070 N.am  197  SER197     -0.1949
    113  CA       -21.5170    5.5110  -16.2380 C.3   197  SER197      0.1924
    114  C        -21.9620    6.9000  -16.7170 C.2   197  SER197      0.2314
    115  O        -21.1660    7.8330  -16.7500 O.2   197  SER197     -0.2863
    116  CB       -20.3840    4.9660  -17.1080 C.3   197  SER197      0.2116
    117  OG       -20.8200    4.8190  -18.4490 O.3   197  SER197     -0.2180
    118  N        -21.5700    5.0800  -11.7340 N.3   217  SER217     -0.1217
    119  CA       -20.1490    4.8090  -11.7870 C.3   217  SER217      0.1889
    120  C        -19.4280    6.1260  -11.9760 C.2   217  SER217      0.2288
    121  O        -19.3170    6.6220  -13.0970 O.2   217  SER217     -0.2866
    122  CB       -19.8440    3.8490  -12.9350 C.3   217  SER217      0.2089
    123  OG       -20.2670    2.5490  -12.5840 O.3   217  SER217     -0.2183
    124  N        -16.2050    7.3470  -10.1290 N.3   219  HIS219     -0.1241
    125  CA       -14.7640    7.0480  -10.2340 C.3   219  HIS219      0.1621
    126  C        -13.7860    8.2230  -10.1650 C.2   219  HIS219      0.2264
    127  O        -12.5780    8.0190  -10.2740 O.2   219  HIS219     -0.2867
    128  CB       -14.4710    6.1910  -11.4760 C.3   219  HIS219      0.0745
    129  CG       -15.3750    5.0090  -11.6110 C.ar  219  HIS219      0.0817
    130  ND1      -15.6220    4.1440  -10.5670 N.ar  219  HIS219     -0.2268
    131  CD2      -16.0970    4.5520  -12.6610 C.ar  219  HIS219      0.1154
    132  CE1      -16.4680    3.2110  -10.9650 C.ar  219  HIS219      0.1986
    133  NE2      -16.7640    3.4290  -12.2340 N.ar  219  HIS219     -0.2212
    134  N        -20.5320    4.4180   -7.1350 N.3   262  GLU262     -0.1245
    135  CA       -19.4180    3.5000   -7.3260 C.3   262  GLU262      0.1567
    136  C        -18.1470    4.2910   -7.6000 C.2   262  GLU262      0.2260
    137  O        -18.1460    5.2390   -8.3930 O.2   262  GLU262     -0.2867
    138  CB       -19.6910    2.5330   -8.4840 C.3   262  GLU262      0.0388
    139  CG       -21.0270    1.7780   -8.4080 C.3   262  GLU262      0.1160
    140  CD       -21.1390    0.8370   -7.2180 C.2   262  GLU262      0.3649
    141  OE1      -22.1470    0.9260   -6.4910 O.co2 262  GLU262     -0.2457
    142  OE2      -20.2330    0.0100   -7.0010 O.co2 262  GLU262     -0.2457
    143  N        -14.1270    3.2400   -8.2060 N.3   264  VAL264     -0.1245
    144  CA       -13.0030    2.3140   -8.3210 C.3   264  VAL264      0.1561
    145  C        -11.7250    3.0110   -7.8660 C.2   264  VAL264      0.2260
    146  O        -11.4650    4.1510   -8.2450 O.2   264  VAL264     -0.2867
    147  CB       -12.8380    1.7600   -9.7570 C.3   264  VAL264      0.0252
    148  CG1      -11.6320    0.8340   -9.8400 C.3   264  VAL264      0.0019
    149  CG2      -14.0760    0.9810  -10.1740 C.3   264  VAL264      0.0019
    150  N        -14.4010    0.6770   -4.5390 N.3   293  ILE293     -0.1231
    151  CA       -14.1280   -0.6090   -5.1660 C.3   293  ILE293      0.1678
    152  C        -12.6400   -0.7690   -5.4470 C.2   293  ILE293      0.2434
    153  O        -12.1080   -0.1110   -6.3350 O.2   293  ILE293     -0.2733
    154  CB       -14.9130   -0.7680   -6.4900 C.3   293  ILE293      0.0265
    155  CG1      -16.3730   -0.3660   -6.2920 C.3   293  ILE293      0.0019
    156  CG2      -14.8090   -2.2070   -7.0210 C.3   293  ILE293      0.0020
    157  CD1      -16.8600    0.5630   -7.3510 C.3   293  ILE293      0.0001
    158  N        -11.9620   -1.6380   -4.6790 N.am  294  PRO294     -0.2718
    159  CA       -10.5810   -1.9740   -5.0040 C.3   294  PRO294      0.1535
    160  C        -10.5400   -2.5430   -6.4210 C.2   294  PRO294      0.2599
    161  O        -11.3560   -3.4010   -6.7710 O.2   294  PRO294     -0.2715
    162  CB       -10.2330   -3.0530   -3.9760 C.3   294  PRO294      0.0310
    163  CG       -11.1800   -2.8120   -2.8340 C.3   294  PRO294      0.0237
    164  CD       -12.4450   -2.3690   -3.4920 C.3   294  PRO294      0.0939
    165  N         -9.6320   -2.0290   -7.2390 N.am  295  TRP295     -0.1960
    166  CA        -9.5720   -2.4160   -8.6440 C.3   295  TRP295      0.1771
    167  C         -9.0440   -3.8420   -8.7870 C.2   295  TRP295      0.2619
    168  O         -8.0300   -4.1930   -8.1810 O.2   295  TRP295     -0.2715
    169  CB        -8.6940   -1.4360   -9.4220 C.3   295  TRP295      0.0590
    170  CG        -8.5890   -1.7340  -10.8920 C.ar  295  TRP295      0.0006
    171  CD1       -9.5950   -1.6920  -11.8100 C.ar  295  TRP295      0.0946
    172  CD2       -7.4050   -2.1010  -11.6090 C.ar  295  TRP295      0.0152
    173  NE1       -9.1120   -2.0140  -13.0560 N.ar  295  TRP295     -0.2442
    174  CE2       -7.7720   -2.2690  -12.9610 C.ar  295  TRP295      0.0810
    175  CE3       -6.0690   -2.3020  -11.2400 C.ar  295  TRP295      0.0012
    176  CZ2       -6.8520   -2.6340  -13.9490 C.ar  295  TRP295      0.0191
    177  CZ3       -5.1530   -2.6720  -12.2230 C.ar  295  TRP295      0.0001
    178  CH2       -5.5510   -2.8280  -13.5620 C.ar  295  TRP295      0.0015
    179  N         -9.7390   -4.6650   -9.5680 N.am  296  ASN296     -0.1972
    180  CA        -9.2170   -5.9960   -9.8820 C.3   296  ASN296      0.1688
    181  C         -8.5320   -6.0300  -11.2530 C.2   296  ASN296      0.2292
    182  O         -9.1880   -5.8560  -12.2860 O.2   296  ASN296     -0.2864
    183  CB       -10.2560   -7.1160   -9.6860 C.3   296  ASN296      0.1181
    184  CG       -11.6090   -6.7850  -10.2730 C.2   296  ASN296      0.2629
    185  OD1      -12.5790   -6.5690   -9.5400 O.2   296  ASN296     -0.2716
    186  ND2      -11.6930   -6.7610  -11.5990 N.am  296  ASN296     -0.0877
    187  N         -6.3470   -6.7050  -14.7700 N.3   298  PHE298     -0.1241
    188  CA        -6.4350   -7.5820  -15.9330 C.3   298  PHE298      0.1605
    189  C         -5.2840   -7.2220  -16.8790 C.2   298  PHE298      0.2264
    190  O         -4.7210   -6.1310  -16.7640 O.2   298  PHE298     -0.2867
    191  CB        -7.8040   -7.4530  -16.6240 C.3   298  PHE298      0.0534
    192  CG        -8.1220   -6.0640  -17.1080 C.ar  298  PHE298     -0.0203
    193  CD1       -7.7550   -5.6560  -18.3890 C.ar  298  PHE298     -0.0042
    194  CD2       -8.8050   -5.1690  -16.2900 C.ar  298  PHE298     -0.0042
    195  CE1       -8.0500   -4.3730  -18.8410 C.ar  298  PHE298     -0.0003
    196  CE2       -9.1040   -3.8890  -16.7340 C.ar  298  PHE298     -0.0003
    197  CZ        -8.7260   -3.4880  -18.0120 C.ar  298  PHE298     -0.0000
    198  N        -15.9590   -2.3060   -0.8090 N.3   328  ARG328     -0.1245
    199  CA       -16.4860   -3.5740   -1.2890 C.3   328  ARG328      0.1563
    200  C        -15.4470   -4.6780   -1.1740 C.2   328  ARG328      0.2260
    201  O        -14.3480   -4.5700   -1.7230 O.2   328  ARG328     -0.2867
    202  CB       -16.9810   -3.4580   -2.7320 C.3   328  ARG328      0.0307
    203  CG       -17.7430   -4.6900   -3.2080 C.3   328  ARG328      0.0489
    204  CD       -18.8790   -4.3080   -4.1310 C.3   328  ARG328      0.2205
    205  NE       -18.4530   -4.2020   -5.5230 N.pl3 328  ARG328     -0.0865
    206  CZ       -19.0140   -3.3950   -6.4210 C.cat 328  ARG328      0.5346
    207  NH1      -20.0230   -2.5970   -6.0770 N.pl3 328  ARG328      0.1354
    208  NH2      -18.5570   -3.3780   -7.6650 N.pl3 328  ARG328      0.1354
@<TRIPOS>BOND
     1     4     3    2
     2     3     2    1
     3     1     2    1
     4     7     8    1
     5     2     5    1
     6    13    12    1
     7     8     9    1
     8     8    11    1
     9    47    46    2
    10     9    10    2
    11     5     6    1
    12    12    11    1
    13    12    14    1
    14    78    77    1
    15    46    45    1
    16    86    85    2
    17    41    40    2
    18    50    48    1
    19    45    48    1
    20    45    44    1
    21    87    88    1
    22    87    84    1
    23    80    81    1
    24    80    79    1
    25    83    84    1
    26    83    81   am
    27    15    16    1
    28    77    76    1
    29    95    94    2
    30    88    89    1
    31    85    84    1
    32    85    92   am
    33    40    44   am
    34    40    39    1
    35    48    49    1
    36    81    82    2
    37    79    73   am
    38    75    76    1
    39    75    72    1
    40    94    93    1
    41    18    17    2
    42    74    73    2
    43    35    34    2
    44    73    72    1
    45    16    17    1
    46    16    19    1
    47    93    92    1
    48    93    96    1
    49    92    98    1
    50    39    42    1
    51    39    38    1
    52    72    71    1
    53    89    91   ar
    54    89    90   ar
    55   195   193   ar
    56   195   197   ar
    57    42    43    1
    58    34    38   am
    59    34    33    1
    60   117   116    1
    61    20    19    1
    62   193   192   ar
    63    37    36    1
    64    98    97    1
    65   197   196   ar
    66    96    97    1
    67    71    69   am
    68    36    33    1
    69    33    32    1
    70    32    23   am
    71   116   113    1
    72   192   191    1
    73   192   194   ar
    74    21    22    1
    75   110   109    1
    76   189   190    2
    77   189   188    1
    78    69    70    2
    79    69    68    1
    80   115   114    2
    81   196   194   ar
    82   114   113    1
    83   191   188    1
    84    58    57    1
    85   113   112    1
    86   112   107   am
    87    23    22    1
    88    23    24    2
    89    22    25    1
    90   188   187    1
    91   109   106    1
    92   109   111    1
    93    68    67    1
    94   106   107    1
    95   106   105    1
    96   107   108    2
    97   102   101    2
    98    28    30   ar
    99    28    26   ar
   100    30    31   ar
   101    67    61   am
   102    25    26    1
   103    57    56    1
   104    26    27   ar
   105    31    29   ar
   106    55    56    1
   107    55    52    1
   108    54    53    2
   109    27    29   ar
   110   105   101   am
   111   101   100    1
   112   176   178   ar
   113   176   174   ar
   114    61    62    2
   115    61    60    1
   116    53    52    1
   117    53    59   am
   118    52    51    1
   119   178   177   ar
   120    59    60    1
   121    60    63    1
   122   121   120    2
   123   173   174   ar
   124   173   171   ar
   125   174   172   ar
   126   122   123    1
   127   122   119    1
   128    99   100    1
   129   100   103    1
   130   131   133   ar
   131   131   129   ar
   132   182   181    2
   133   103   104    1
   134   133   132   ar
   135   177   175   ar
   136   120   119    1
   137   171   170   ar
   138   119   118    1
   139    63    64    1
   140   129   128    1
   141   129   130   ar
   142   172   175   ar
   143   172   170   ar
   144   186   184   am
   145   128   125    1
   146   181   180    1
   147    64    65    1
   148   132   130   ar
   149   170   169    1
   150   127   126    2
   151   184   183    1
   152   184   185    2
   153   125   126    1
   154   125   124    1
   155   149   147    1
   156   180   183    1
   157   180   179    1
   158   148   147    1
   159   147   144    1
   160   179   167   am
   161   169   166    1
   162    65    66    1
   163   167   166    1
   164   167   168    2
   165   166   165    1
   166   138   139    1
   167   138   135    1
   168   139   140    1
   169   137   136    2
   170   144   143    1
   171   144   145    1
   172   146   145    2
   173   208   206    1
   174   136   135    1
   175   157   155    1
   176   135   134    1
   177   165   160   am
   178   140   142   ar
   179   140   141   ar
   180   156   154    1
   181   161   160    2
   182   154   155    1
   183   154   151    1
   184   206   207    1
   185   206   205    2
   186   160   159    1
   187   153   152    2
   188   205   204    1
   189   152   151    1
   190   152   158   am
   191   151   150    1
   192   159   158    1
   193   159   162    1
   194   158   164    1
   195   204   203    1
   196   162   163    1
   197   164   163    1
   198   203   202    1
   199   202   199    1
   200   201   200    2
   201   199   200    1
   202   199   198    1
