@<TRIPOS>MOLECULE
tmp/3rfbB00.pdb
 121 114 0 0 0
SMALL
GASTEIGER

@<TRIPOS>ATOM
      1  N          8.9580   47.4150  -13.3920 N.3    47  PHE47      -0.1241
      2  CA         8.4000   46.1340  -13.8130 C.3    47  PHE47       0.1605
      3  C          9.4970   45.0830  -13.8780 C.2    47  PHE47       0.2264
      4  O         10.5260   45.2750  -14.5280 O.2    47  PHE47      -0.2867
      5  CB         7.7330   46.2020  -15.1920 C.3    47  PHE47       0.0534
      6  CG         7.1740   44.8730  -15.6550 C.ar   47  PHE47      -0.0203
      7  CD1        5.8090   44.6400  -15.6540 C.ar   47  PHE47      -0.0042
      8  CD2        8.0200   43.8510  -16.0760 C.ar   47  PHE47      -0.0042
      9  CE1        5.2970   43.4090  -16.0690 C.ar   47  PHE47      -0.0003
     10  CE2        7.5210   42.6230  -16.4890 C.ar   47  PHE47      -0.0003
     11  CZ         6.1610   42.4000  -16.4870 C.ar   47  PHE47      -0.0000
     12  N          7.1790   36.5040  -19.1550 N.3    51  TYR51      -0.1241
     13  CA         6.2250   36.4310  -20.2470 C.3    51  TYR51       0.1605
     14  C          6.5630   35.0770  -20.8230 C.2    51  TYR51       0.2264
     15  O          7.6300   34.9170  -21.4050 O.2    51  TYR51      -0.2867
     16  CB         6.5040   37.5200  -21.2780 C.3    51  TYR51       0.0534
     17  CG         5.7220   38.7930  -21.0630 C.ar   51  TYR51      -0.0201
     18  CD1        4.4410   38.9400  -21.5860 C.ar   51  TYR51      -0.0009
     19  CD2        6.2560   39.8470  -20.3340 C.ar   51  TYR51      -0.0009
     20  CE1        3.7180   40.1060  -21.3890 C.ar   51  TYR51       0.0417
     21  CE2        5.5370   41.0150  -20.1300 C.ar   51  TYR51       0.0417
     22  CZ         4.2720   41.1380  -20.6620 C.ar   51  TYR51       0.1957
     23  OH         3.5610   42.3010  -20.4790 O.3    51  TYR51      -0.2866
     24  N         -0.1870   44.9440  -16.5640 N.3    68  SER68      -0.1202
     25  CA         0.6260   44.9850  -17.7750 C.3    68  SER68       0.2020
     26  C          0.0380   44.2940  -18.9990 C.2    68  SER68       0.2619
     27  O         -1.0160   43.6640  -18.9320 O.2    68  SER68      -0.2717
     28  CB         1.9870   44.3560  -17.4830 C.3    68  SER68       0.2103
     29  OG         2.5530   44.9040  -16.3100 O.3    68  SER68      -0.2182
     30  N          0.7560   44.4210  -20.1150 N.am   69  CYS69      -0.1969
     31  CA         0.3810   43.8040  -21.3800 C.3    69  CYS69       0.1712
     32  C          0.0930   42.3350  -21.1360 C.2    69  CYS69       0.2296
     33  O          0.8080   41.6800  -20.3850 O.2    69  CYS69      -0.2864
     34  CB         1.5290   43.9410  -22.3810 C.3    69  CYS69       0.0983
     35  SG         1.4890   45.4560  -23.3930 S.3    69  CYS69      -0.0798
     36  N          1.7390   39.0830  -26.3290 N.3    72  ILE72      -0.1245
     37  CA         2.6870   39.7680  -27.2050 C.3    72  ILE72       0.1561
     38  C          3.1730   38.8370  -28.3120 C.2    72  ILE72       0.2260
     39  O          3.7290   37.7640  -28.0470 O.2    72  ILE72      -0.2867
     40  CB         3.9120   40.2900  -26.4210 C.3    72  ILE72       0.0252
     41  CG1        3.4790   41.4010  -25.4650 C.3    72  ILE72       0.0019
     42  CG2        4.9600   40.8230  -27.3840 C.3    72  ILE72       0.0019
     43  CD1        4.5850   41.9130  -24.5750 C.3    72  ILE72       0.0001
     44  N          7.3570   44.6150  -30.3410 N.3    77  GLY77      -0.1210
     45  CA         7.7670   45.0740  -29.0250 C.3    77  GLY77       0.1956
     46  C          9.1450   44.5860  -28.6140 C.2    77  GLY77       0.2612
     47  O          9.6710   43.6300  -29.1910 O.2    77  GLY77      -0.2717
     48  N          9.7360   45.2390  -27.6150 N.am   78  VAL78      -0.1965
     49  CA        11.0560   44.8510  -27.1330 C.3    78  VAL78       0.1727
     50  C         11.0710   43.3770  -26.7460 C.2    78  VAL78       0.2616
     51  O         12.0380   42.6680  -27.0310 O.2    78  VAL78      -0.2715
     52  CB        11.4790   45.6730  -25.9010 C.3    78  VAL78       0.0290
     53  CG1       12.8650   45.2510  -25.4590 C.3    78  VAL78       0.0023
     54  CG2       11.4570   47.1580  -26.2270 C.3    78  VAL78       0.0023
     55  N          9.9970   42.9280  -26.0930 N.am   79  CYS79      -0.1954
     56  CA         9.8710   41.5350  -25.6620 C.3    79  CYS79       0.1843
     57  C          9.7340   40.6200  -26.8670 C.2    79  CYS79       0.2626
     58  O         10.2620   39.5060  -26.8800 O.2    79  CYS79      -0.2714
     59  CB         8.6470   41.3560  -24.7560 C.3    79  CYS79       0.0997
     60  SG         8.7490   42.1740  -23.1480 S.3    79  CYS79      -0.0797
     61  N          9.0140   41.1040  -27.8760 N.am   80  GLY80      -0.1954
     62  CA         8.8090   40.3320  -29.0890 C.3    80  GLY80       0.1869
     63  C         10.0990   40.1540  -29.8610 C.2    80  GLY80       0.2309
     64  O         10.3460   39.0880  -30.4260 O.2    80  GLY80      -0.2863
     65  N          8.5330   49.5540  -29.6340 N.3   100  TYR100     -0.1227
     66  CA         8.2810   49.3970  -28.2030 C.3   100  TYR100      0.1736
     67  C          6.7920   49.4260  -27.8610 C.2   100  TYR100      0.2595
     68  O          6.1280   50.4500  -28.0360 O.2   100  TYR100     -0.2718
     69  CB         9.0040   50.5020  -27.4270 C.3   100  TYR100      0.0548
     70  CG         8.5680   50.6470  -25.9820 C.ar  100  TYR100     -0.0200
     71  CD1        8.7600   49.6130  -25.0610 C.ar  100  TYR100     -0.0009
     72  CD2        7.9690   51.8250  -25.5340 C.ar  100  TYR100     -0.0009
     73  CE1        8.3650   49.7540  -23.7220 C.ar  100  TYR100      0.0417
     74  CE2        7.5720   51.9770  -24.2030 C.ar  100  TYR100      0.0417
     75  CZ         7.7730   50.9400  -23.3020 C.ar  100  TYR100      0.1957
     76  OH         7.3820   51.0970  -21.9890 O.3   100  TYR100     -0.2866
     77  N          6.2790   48.3010  -27.3630 N.am  101  ILE101     -0.1980
     78  CA         4.8690   48.1860  -26.9790 C.3   101  ILE101      0.1595
     79  C          4.6600   48.7920  -25.5900 C.2   101  ILE101      0.2287
     80  O          4.9300   48.1540  -24.5700 O.2   101  ILE101     -0.2864
     81  CB         4.4100   46.7080  -26.9500 C.3   101  ILE101      0.0276
     82  CG1        4.6630   46.0580  -28.3120 C.3   101  ILE101      0.0022
     83  CG2        2.9280   46.6270  -26.5990 C.3   101  ILE101      0.0022
     84  CD1        4.3830   44.5730  -28.3430 C.3   101  ILE101      0.0001
     85  N          2.8110   49.5990  -22.4920 N.3   103  CYS103     -0.1235
     86  CA         1.6580   49.2070  -21.6930 C.3   103  CYS103      0.1677
     87  C          1.6640   50.0340  -20.4120 C.2   103  CYS103      0.2270
     88  O          1.6570   49.4980  -19.2980 O.2   103  CYS103     -0.2867
     89  CB         1.6960   47.7110  -21.3670 C.3   103  CYS103      0.0956
     90  SG         0.4280   46.7880  -22.2930 S.3   103  CYS103     -0.0801
     91  N          3.0230   52.4020  -17.4920 N.3   105  SER105     -0.1217
     92  CA         4.2260   52.4810  -16.6700 C.3   105  SER105      0.1889
     93  C          5.0200   53.7390  -17.0090 C.2   105  SER105      0.2288
     94  O          4.7840   54.3930  -18.0300 O.2   105  SER105     -0.2866
     95  CB         5.1090   51.2390  -16.8750 C.3   105  SER105      0.2089
     96  OG         5.6510   51.1930  -18.1880 O.3   105  SER105     -0.2183
     97  N         14.5490   49.7390  -20.8530 N.3   110  GLU110     -0.1245
     98  CA        14.1260   48.3620  -20.6490 C.3   110  GLU110      0.1567
     99  C         15.0680   47.3090  -21.2280 C.2   110  GLU110      0.2260
    100  O         15.7430   47.5490  -22.2280 O.2   110  GLU110     -0.2867
    101  CB        12.7420   48.2000  -21.2640 C.3   110  GLU110      0.0388
    102  CG        12.2240   46.7820  -21.3300 C.3   110  GLU110      0.1160
    103  CD        10.9620   46.6790  -22.1620 C.2   110  GLU110      0.3649
    104  OE1       10.2460   45.6660  -22.0360 O.co2 110  GLU110     -0.2457
    105  OE2       10.6900   47.6100  -22.9470 O.co2 110  GLU110     -0.2457
    106  N         11.7990   40.1640  -18.2700 N.3   126  ASP126     -0.1239
    107  CA        11.8100   41.5490  -18.7000 C.3   126  ASP126      0.1674
    108  C         11.8450   42.5160  -17.5270 C.2   126  ASP126      0.2266
    109  O         11.2500   42.2470  -16.4900 O.2   126  ASP126     -0.2867
    110  CB        10.5780   41.7990  -19.5750 C.3   126  ASP126      0.1410
    111  CG        10.3410   43.2550  -19.8370 C.2   126  ASP126      0.3668
    112  OD1       11.2990   43.9450  -20.2340 O.co2 126  ASP126     -0.2456
    113  OD2        9.1970   43.7140  -19.6500 O.co2 126  ASP126     -0.2456
    114  N         11.8060   46.8750  -16.6290 N.3   128  ASP128     -0.1239
    115  CA        11.6400   48.2470  -17.0730 C.3   128  ASP128      0.1674
    116  C         12.1150   49.1190  -15.9230 C.2   128  ASP128      0.2266
    117  O         11.9040   48.7820  -14.7580 O.2   128  ASP128     -0.2867
    118  CB        10.1650   48.5520  -17.3710 C.3   128  ASP128      0.1410
    119  CG         9.6060   47.7010  -18.4920 C.2   128  ASP128      0.3668
    120  OD1       10.1780   47.7170  -19.5990 O.co2 128  ASP128     -0.2456
    121  OD2        8.5910   47.0160  -18.2730 O.co2 128  ASP128     -0.2456
@<TRIPOS>BOND
     1    64    63    2
     2    44    45    1
     3    63    62    1
     4    65    66    1
     5    47    46    2
     6    62    61    1
     7    45    46    1
     8    46    48   am
     9    84    82    1
    10    38    39    2
    11    38    37    1
    12    82    81    1
    13    66    67    1
    14    66    69    1
    15    68    67    2
    16    61    57   am
    17    67    77   am
    18    48    49    1
    19    69    70    1
    20    42    40    1
    21    77    78    1
    22    37    40    1
    23    37    36    1
    24    49    50    1
    25    49    52    1
    26    51    50    2
    27    78    81    1
    28    78    79    1
    29    81    83    1
    30    58    57    2
    31    57    56    1
    32    50    55   am
    33    40    41    1
    34    54    52    1
    35    55    56    1
    36    70    72   ar
    37    70    71   ar
    38    52    53    1
    39    56    59    1
    40    79    80    2
    41    72    74   ar
    42    41    43    1
    43    71    73   ar
    44    59    60    1
    45    74    75   ar
    46    73    75   ar
    47    35    34    1
    48    35    90    1
    49    75    76    1
    50   105   103   ar
    51    85    86    1
    52    34    31    1
    53    90    89    1
    54   100    99    2
    55   103   104   ar
    56   103   102    1
    57    86    89    1
    58    86    87    1
    59    18    20   ar
    60    18    17   ar
    61    15    14    2
    62    20    22   ar
    63    31    32    1
    64    31    30    1
    65   102   101    1
    66    16    17    1
    67    16    13    1
    68   101    98    1
    69    99    98    1
    70    32    33    2
    71    17    19   ar
    72    97    98    1
    73    14    13    1
    74    22    23    1
    75    22    21   ar
    76    87    88    2
    77    19    21   ar
    78    13    12    1
    79   112   111   ar
    80    30    26   am
    81   111   113   ar
    82   111   110    1
    83   120   119   ar
    84   110   107    1
    85    26    27    2
    86    26    25    1
    87   107   106    1
    88   107   108    1
    89   119   121   ar
    90   119   118    1
    91    96    95    1
    92    94    93    2
    93    25    28    1
    94    25    24    1
    95   108   109    2
    96    91    92    1
    97    28    29    1
    98   118   115    1
    99   115   114    1
   100   115   116    1
   101    93    92    1
   102    95    92    1
   103    10    11   ar
   104    10     8   ar
   105    11     9   ar
   106     8     6   ar
   107     9     7   ar
   108   116   117    2
   109     6     7   ar
   110     6     5    1
   111     5     2    1
   112     4     3    2
   113     3     2    1
   114     2     1    1
