@<TRIPOS>MOLECULE
tmp/3rfcA00.pdb
 146 135 0 0 0
SMALL
GASTEIGER

@<TRIPOS>ATOM
      1  N          9.2350    0.4540   31.5100 N.3   138  LYS138     -0.1245
      2  CA        10.6230    0.0640   31.4180 C.3   138  LYS138      0.1561
      3  C         10.8440   -1.4540   31.5510 C.2   138  LYS138      0.2260
      4  O         11.7720   -1.9850   30.9880 O.2   138  LYS138     -0.2867
      5  CB        11.4460    0.8520   32.4680 C.3   138  LYS138      0.0271
      6  CG        11.5400    2.3610   32.1500 C.3   138  LYS138      0.0035
      7  CD        12.2390    3.1610   33.3320 C.3   138  LYS138      0.0206
      8  CE        13.3660    4.0910   32.8190 C.3   138  LYS138      0.1093
      9  NZ        14.5820    3.2660   32.5060 N.3   138  LYS138     -0.1314
     10  N         20.5430   -0.3260   40.8270 N.3   180  PHE180     -0.1241
     11  CA        19.7090    0.8180   40.5290 C.3   180  PHE180      0.1605
     12  C         18.2580    0.3850   40.6320 C.2   180  PHE180      0.2264
     13  O         17.7840   -0.5590   39.9600 O.2   180  PHE180     -0.2867
     14  CB        20.0640    1.3980   39.1590 C.3   180  PHE180      0.0534
     15  CG        21.4670    1.9590   39.0880 C.ar  180  PHE180     -0.0203
     16  CD1       22.5750    1.1100   38.8510 C.ar  180  PHE180     -0.0042
     17  CD2       21.6850    3.3520   39.2400 C.ar  180  PHE180     -0.0042
     18  CE1       23.8780    1.6200   38.7950 C.ar  180  PHE180     -0.0003
     19  CE2       22.9920    3.9070   39.1560 C.ar  180  PHE180     -0.0003
     20  CZ        24.0980    3.0300   38.9460 C.ar  180  PHE180     -0.0000
     21  N         14.3580    1.4290   40.3240 N.3   182  LYS182     -0.1245
     22  CA        13.5990    2.3150   39.3870 C.3   182  LYS182      0.1561
     23  C         12.1540    1.8700   39.4120 C.2   182  LYS182      0.2260
     24  O         11.8800    0.6770   39.3250 O.2   182  LYS182     -0.2867
     25  CB        14.1160    2.1170   37.9530 C.3   182  LYS182      0.0271
     26  CG        15.4770    2.6980   37.6890 C.3   182  LYS182      0.0035
     27  CD        15.8770    2.5660   36.1800 C.3   182  LYS182      0.0206
     28  CE        17.3740    2.7960   36.0240 C.3   182  LYS182      0.1093
     29  NZ        18.0020    2.7610   34.6460 N.3   182  LYS182     -0.1314
     30  N          8.3100    5.0520   33.1240 N.3   186  GLN186     -0.1245
     31  CA         9.3860    5.8890   32.6760 C.3   186  GLN186      0.1566
     32  C          9.3970    7.3430   33.1260 C.2   186  GLN186      0.2260
     33  O         10.4500    7.9120   33.2390 O.2   186  GLN186     -0.2867
     34  CB         9.5930    5.8000   31.1750 C.3   186  GLN186      0.0367
     35  CG        10.3690    6.9340   30.6440 C.3   186  GLN186      0.0905
     36  CD        11.1950    6.5620   29.4510 C.2   186  GLN186      0.2608
     37  OE1       11.0510    5.4960   28.8820 O.2   186  GLN186     -0.2717
     38  NE2       12.1020    7.4400   29.0920 N.am  186  GLN186     -0.0878
     39  N          9.0870   10.4890   35.6980 N.3   188  SER188     -0.1202
     40  CA        10.4260   10.4930   35.1250 C.3   188  SER188      0.2020
     41  C         11.4760   10.8260   36.1720 C.2   188  SER188      0.2619
     42  O         11.3570   11.8160   36.8760 O.2   188  SER188     -0.2717
     43  CB        10.5360   11.4290   33.9290 C.3   188  SER188      0.2103
     44  OG        10.4570   10.7330   32.7040 O.3   188  SER188     -0.2182
     45  N         12.4940    9.9880   36.2590 N.am  189  SER189     -0.1951
     46  CA        13.6610   10.2130   37.0940 C.3   189  SER189      0.1924
     47  C         13.3240   10.2020   38.5940 C.2   189  SER189      0.2314
     48  O         14.1610   10.4160   39.4250 O.2   189  SER189     -0.2863
     49  CB        14.3110   11.5180   36.7210 C.3   189  SER189      0.2116
     50  OG        14.6120   12.2840   37.8610 O.3   189  SER189     -0.2180
     51  N         13.8940    6.9430   41.6740 N.3   192  VAL192     -0.1245
     52  CA        15.1570    6.2210   41.3950 C.3   192  VAL192      0.1561
     53  C         16.0000    6.2190   42.6860 C.2   192  VAL192      0.2260
     54  O         15.7960    7.0720   43.5440 O.2   192  VAL192     -0.2867
     55  CB        15.9730    6.8510   40.1640 C.3   192  VAL192      0.0252
     56  CG1       17.1810    6.0030   39.7900 C.3   192  VAL192      0.0019
     57  CG2       15.1050    6.9330   38.9540 C.3   192  VAL192      0.0019
     58  N         18.1410   -3.1500   38.8060 N.3   218  GLU218     -0.1231
     59  CA        19.0550   -3.2610   37.7270 C.3   218  GLU218      0.1699
     60  C         20.4990   -3.3690   38.1950 C.2   218  GLU218      0.2592
     61  O         20.8780   -2.6450   39.0750 O.2   218  GLU218     -0.2718
     62  CB        18.9360   -1.9690   36.9540 C.3   218  GLU218      0.0402
     63  CG        18.7160   -2.1800   35.5240 C.3   218  GLU218      0.1161
     64  CD        18.3670   -0.8750   34.8120 C.2   218  GLU218      0.3649
     65  OE1       17.2200   -0.7370   34.3590 O.co2 218  GLU218     -0.2457
     66  OE2       19.2370   -0.0090   34.7090 O.co2 218  GLU218     -0.2457
     67  N         21.2900   -4.2310   37.5540 N.am  219  ALA219     -0.1966
     68  CA        22.7450   -4.3050   37.7440 C.3   219  ALA219      0.1728
     69  C         23.3420   -3.0070   37.1940 C.2   219  ALA219      0.2616
     70  O         22.8090   -2.4300   36.2450 O.2   219  ALA219     -0.2715
     71  CB        23.3170   -5.5260   36.9470 C.3   219  ALA219      0.0334
     72  N         24.4650   -2.5780   37.7470 N.am  220  ALA220     -0.1963
     73  CA        25.2420   -1.4710   37.1580 C.3   220  ALA220      0.1728
     74  C         25.7960   -1.7780   35.7350 C.2   220  ALA220      0.2616
     75  O         26.2330   -2.9030   35.4150 O.2   220  ALA220     -0.2715
     76  CB        26.3490   -1.0680   38.0930 C.3   220  ALA220      0.0334
     77  N         25.7800   -0.7560   34.8960 N.am  221  VAL221     -0.1977
     78  CA        26.4880   -0.8270   33.6410 C.3   221  VAL221      0.1596
     79  C         27.6040    0.1960   33.7220 C.2   221  VAL221      0.2287
     80  O         27.3910    1.4060   34.0170 O.2   221  VAL221     -0.2864
     81  CB        25.5650   -0.5580   32.4460 C.3   221  VAL221      0.0276
     82  CG1       26.1930   -1.0810   31.1830 C.3   221  VAL221      0.0022
     83  CG2       24.2500   -1.2580   32.6750 C.3   221  VAL221      0.0022
     84  N         28.1000    7.3390   28.3980 N.3   225  GLU225     -0.1245
     85  CA        26.6900    7.6340   28.1570 C.3   225  GLU225      0.1567
     86  C         26.4970    8.3490   26.8580 C.2   225  GLU225      0.2260
     87  O         26.7660    9.5450   26.7680 O.2   225  GLU225     -0.2867
     88  CB        26.0870    8.3990   29.3430 C.3   225  GLU225      0.0388
     89  CG        25.7560    7.4330   30.4360 C.3   225  GLU225      0.1160
     90  CD        24.9010    8.0010   31.5410 C.2   225  GLU225      0.3649
     91  OE1       23.6680    7.7020   31.5710 O.co2 225  GLU225     -0.2457
     92  OE2       25.4630    8.7300   32.3810 O.co2 225  GLU225     -0.2457
     93  N         27.0350   12.1890   27.1640 N.3   244  VAL244     -0.1245
     94  CA        26.7350   12.8890   28.4150 C.3   244  VAL244      0.1561
     95  C         28.0130   12.8550   29.2370 C.2   244  VAL244      0.2260
     96  O         28.4730   11.7710   29.5830 O.2   244  VAL244     -0.2867
     97  CB        25.5810   12.1970   29.1870 C.3   244  VAL244      0.0252
     98  CG1       25.3620   12.8490   30.5660 C.3   244  VAL244      0.0019
     99  CG2       24.3070   12.2270   28.3800 C.3   244  VAL244      0.0019
    100  N         14.3870    9.4940   21.4720 N.3   280  ARG280     -0.1245
    101  CA        15.8160    9.5580   21.8240 C.3   280  ARG280      0.1563
    102  C         16.2180    8.2070   22.4580 C.2   280  ARG280      0.2260
    103  O         15.5130    7.7450   23.3660 O.2   280  ARG280     -0.2867
    104  CB        16.1120   10.7790   22.7410 C.3   280  ARG280      0.0307
    105  CG        17.5510   10.8690   23.1700 C.3   280  ARG280      0.0489
    106  CD        17.7540   11.8480   24.3910 C.3   280  ARG280      0.2205
    107  NE        17.4910   11.0850   25.6020 N.pl3 280  ARG280     -0.0865
    108  CZ        16.4030   11.2150   26.3640 C.cat 280  ARG280      0.5346
    109  NH1       15.5000   12.1740   26.1370 N.pl3 280  ARG280      0.1354
    110  NH2       16.2510   10.4190   27.4170 N.pl3 280  ARG280      0.1354
    111  N         19.1900    6.1040   24.6220 N.3   282  ASP282     -0.1239
    112  CA        20.3300    6.3750   25.5580 C.3   282  ASP282      0.1674
    113  C         20.9490    5.0280   25.7990 C.2   282  ASP282      0.2266
    114  O         20.2450    4.0820   26.1770 O.2   282  ASP282     -0.2867
    115  CB        19.8220    6.9190   26.8830 C.3   282  ASP282      0.1410
    116  CG        19.0410    8.1920   26.7370 C.2   282  ASP282      0.3668
    117  OD1       19.1380    8.7980   25.6380 O.co2 282  ASP282     -0.2456
    118  OD2       18.2960    8.6060   27.6990 O.co2 282  ASP282     -0.2456
    119  N         24.7650    2.7860   26.9540 N.3   284  PHE284     -0.1241
    120  CA        26.0500    2.7500   27.5920 C.3   284  PHE284      0.1605
    121  C         26.9850    2.1330   26.5770 C.2   284  PHE284      0.2264
    122  O         26.6510    1.1390   25.9230 O.2   284  PHE284     -0.2867
    123  CB        26.0390    1.8470   28.8360 C.3   284  PHE284      0.0534
    124  CG        25.1300    2.3230   29.9700 C.ar  284  PHE284     -0.0203
    125  CD1       25.4850    3.3880   30.7750 C.ar  284  PHE284     -0.0042
    126  CD2       23.9420    1.6370   30.2490 C.ar  284  PHE284     -0.0042
    127  CE1       24.6250    3.7950   31.8320 C.ar  284  PHE284     -0.0003
    128  CE2       23.1120    2.0120   31.3000 C.ar  284  PHE284     -0.0003
    129  CZ        23.4370    3.1010   32.0840 C.ar  284  PHE284     -0.0000
    130  N         20.0890    1.7640   27.6780 N.3   294  ASN294     -0.1225
    131  CA        19.5290    2.2550   28.9510 C.3   294  ASN294      0.1785
    132  C         18.0370    2.5740   28.8420 C.2   294  ASN294      0.2597
    133  O         17.2290    2.0660   29.6380 O.2   294  ASN294     -0.2718
    134  CB        20.2820    3.5380   29.3500 C.3   294  ASN294      0.1169
    135  CG        19.9980    3.9830   30.7560 C.2   294  ASN294      0.2627
    136  OD1       19.5170    3.2090   31.6070 O.2   294  ASN294     -0.2716
    137  ND2       20.3760    5.2500   31.0530 N.am  294  ASN294     -0.0877
    138  N         17.6710    3.4130   27.8490 N.am  295  GLU295     -0.1979
    139  CA        16.3120    3.9580   27.7580 C.3   295  GLU295      0.1602
    140  C         15.9610    4.2530   26.3200 C.2   295  GLU295      0.2287
    141  O         16.8100    4.8180   25.6130 O.2   295  GLU295     -0.2864
    142  CB        16.2860    5.3050   28.4420 C.3   295  GLU295      0.0415
    143  CG        14.9190    5.9510   28.4740 C.3   295  GLU295      0.1163
    144  CD        14.8480    7.1610   29.4410 C.2   295  GLU295      0.3649
    145  OE1       14.2970    8.2010   29.0310 O.co2 295  GLU295     -0.2457
    146  OE2       15.3460    7.0810   30.5860 O.co2 295  GLU295     -0.2457
@<TRIPOS>BOND
     1   100   101    1
     2   101   102    1
     3   101   104    1
     4   102   103    2
     5   104   105    1
     6   105   106    1
     7   106   107    1
     8   111   112    1
     9   112   113    1
    10   112   115    1
    11   107   108    2
    12   141   140    2
    13   117   116   ar
    14   113   114    2
    15   122   121    2
    16   109   108    1
    17   140   139    1
    18   108   110    1
    19   121   120    1
    20   116   115    1
    21   116   118   ar
    22    87    86    2
    23    86    85    1
    24   119   120    1
    25    93    94    1
    26   120   123    1
    27   130   131    1
    28   139   138    1
    29   139   142    1
    30   138   132   am
    31    85    84    1
    32    85    88    1
    33    99    97    1
    34    94    97    1
    35    94    95    1
    36   142   143    1
    37   143   144    1
    38   123   124    1
    39   132   131    1
    40   132   133    2
    41    37    36    2
    42   131   134    1
    43   145   144   ar
    44    38    36   am
    45    97    98    1
    46    95    96    2
    47    88    89    1
    48   134   135    1
    49   144   146   ar
    50    36    35    1
    51   124   126   ar
    52   124   125   ar
    53   126   128   ar
    54    89    90    1
    55    35    34    1
    56   135   137   am
    57   135   136    2
    58   125   127   ar
    59     4     3    2
    60    34    31    1
    61    82    81    1
    62   128   129   ar
    63     2     1    1
    64     2     3    1
    65     2     5    1
    66    90    91   ar
    67    90    92   ar
    68   127   129   ar
    69     6     5    1
    70     6     7    1
    71    81    83    1
    72    81    78    1
    73     9     8    1
    74    31    30    1
    75    31    32    1
    76    44    43    1
    77     8     7    1
    78    32    33    2
    79    78    79    1
    80    78    77    1
    81    79    80    2
    82    43    40    1
    83    65    64   ar
    84    29    28    1
    85    66    64   ar
    86    64    63    1
    87    77    74   am
    88    40    39    1
    89    40    41    1
    90    75    74    2
    91    63    62    1
    92    74    73    1
    93    28    27    1
    94    41    45   am
    95    41    42    2
    96    27    26    1
    97    70    69    2
    98    45    46    1
    99    49    46    1
   100    49    50    1
   101    71    68    1
   102    62    59    1
   103    46    47    1
   104    73    72    1
   105    73    76    1
   106    69    68    1
   107    69    72   am
   108    67    68    1
   109    67    60   am
   110    26    25    1
   111    59    60    1
   112    59    58    1
   113    25    22    1
   114    60    61    2
   115    47    48    2
   116    18    16   ar
   117    18    20   ar
   118    16    15   ar
   119    20    19   ar
   120    57    55    1
   121    15    14    1
   122    15    17   ar
   123    19    17   ar
   124    14    11    1
   125    24    23    2
   126    22    23    1
   127    22    21    1
   128    56    55    1
   129    13    12    2
   130    55    52    1
   131    11    12    1
   132    11    10    1
   133    52    51    1
   134    52    53    1
   135    53    54    2
