@<TRIPOS>MOLECULE
tmp/3rfmA00.pdb
 142 135 0 0 0
SMALL
GASTEIGER

@<TRIPOS>ATOM
      1  N          9.0560  -31.7250  -48.2780 N.3     3  TYR3       -0.1241
      2  CA         9.5080  -31.9470  -46.9090 C.3     3  TYR3        0.1605
      3  C         10.4130  -33.1690  -46.8480 C.2     3  TYR3        0.2264
      4  O         11.4580  -33.1530  -46.1950 O.2     3  TYR3       -0.2867
      5  CB         8.3100  -32.1380  -45.9790 C.3     3  TYR3        0.0534
      6  CG         8.6790  -32.5690  -44.5770 C.ar    3  TYR3       -0.0201
      7  CD1        9.0420  -31.6360  -43.6150 C.ar    3  TYR3       -0.0009
      8  CD2        8.6560  -33.9090  -44.2140 C.ar    3  TYR3       -0.0009
      9  CE1        9.3770  -32.0260  -42.3320 C.ar    3  TYR3        0.0417
     10  CE2        8.9880  -34.3090  -42.9320 C.ar    3  TYR3        0.0417
     11  CZ         9.3480  -33.3630  -41.9950 C.ar    3  TYR3        0.1957
     12  OH         9.6810  -33.7530  -40.7170 O.3     3  TYR3       -0.2866
     13  N         11.4880  -39.6680  -38.0650 N.3    57  ALA57      -0.1245
     14  CA        10.6730  -38.4610  -38.1080 C.3    57  ALA57       0.1562
     15  C          9.8360  -38.4010  -39.3830 C.2    57  ALA57       0.2260
     16  O          8.7000  -37.9300  -39.3660 O.2    57  ALA57      -0.2867
     17  CB        11.5440  -37.2180  -37.9770 C.3    57  ALA57       0.0290
     18  N          6.9820  -41.2170  -38.8810 N.3    60  ILE60      -0.1245
     19  CA         5.9680  -40.8880  -37.8860 C.3    60  ILE60       0.1561
     20  C          5.1210  -39.6860  -38.3060 C.2    60  ILE60       0.2260
     21  O          4.0160  -39.4880  -37.7990 O.2    60  ILE60      -0.2867
     22  CB         6.6010  -40.6110  -36.5060 C.3    60  ILE60       0.0252
     23  CG1        5.5190  -40.5380  -35.4260 C.3    60  ILE60       0.0019
     24  CG2        7.4300  -39.3360  -36.5400 C.3    60  ILE60       0.0019
     25  CD1        6.0620  -40.2910  -34.0380 C.3    60  ILE60       0.0001
     26  N         14.3880  -39.6760  -30.7970 N.3    78  VAL78      -0.1231
     27  CA        14.9230  -38.3370  -31.0150 C.3    78  VAL78       0.1692
     28  C         15.2210  -37.6480  -29.6870 C.2    78  VAL78       0.2591
     29  O         16.1040  -36.7940  -29.6030 O.2    78  VAL78      -0.2718
     30  CB        13.9490  -37.4690  -31.8400 C.3    78  VAL78       0.0266
     31  CG1       12.5970  -37.3740  -31.1460 C.3    78  VAL78       0.0020
     32  CG2       14.5340  -36.0850  -32.0790 C.3    78  VAL78       0.0020
     33  N         14.4820  -38.0270  -28.6500 N.am   79  LEU79      -0.1980
     34  CA        14.6790  -37.4600  -27.3220 C.3    79  LEU79       0.1596
     35  C         15.9990  -37.9320  -26.7250 C.2    79  LEU79       0.2287
     36  O         16.5860  -37.2580  -25.8800 O.2    79  LEU79      -0.2864
     37  CB        13.5200  -37.8410  -26.4010 C.3    79  LEU79       0.0297
     38  CG        12.1240  -37.4500  -26.8850 C.3    79  LEU79       0.0022
     39  CD1       11.0640  -37.9280  -25.9070 C.3    79  LEU79       0.0001
     40  CD2       12.0280  -35.9460  -27.0910 C.3    79  LEU79       0.0001
     41  N          2.8870  -38.9700  -32.9150 N.3   154  PHE154     -0.1227
     42  CA         3.7090  -38.3680  -31.8710 C.3   154  PHE154      0.1736
     43  C          2.8940  -37.7010  -30.7630 C.2   154  PHE154      0.2595
     44  O          3.0570  -38.0200  -29.5860 O.2   154  PHE154     -0.2718
     45  CB         4.6930  -37.3670  -32.4750 C.3   154  PHE154      0.0547
     46  CG         5.6960  -36.8410  -31.4930 C.ar  154  PHE154     -0.0202
     47  CD1        6.7790  -37.6160  -31.1090 C.ar  154  PHE154     -0.0042
     48  CD2        5.5560  -35.5710  -30.9530 C.ar  154  PHE154     -0.0042
     49  CE1        7.7050  -37.1370  -30.2060 C.ar  154  PHE154     -0.0003
     50  CE2        6.4760  -35.0820  -30.0510 C.ar  154  PHE154     -0.0003
     51  CZ         7.5540  -35.8690  -29.6730 C.ar  154  PHE154     -0.0000
     52  N          2.0180  -36.7770  -31.1450 N.am  155  GLU155     -0.1979
     53  CA         1.2380  -36.0170  -30.1720 C.3   155  GLU155      0.1602
     54  C          0.2060  -36.8780  -29.4470 C.2   155  GLU155      0.2287
     55  O         -0.2310  -36.5400  -28.3460 O.2   155  GLU155     -0.2864
     56  CB         0.5480  -34.8260  -30.8440 C.3   155  GLU155      0.0415
     57  CG        -0.5100  -35.2080  -31.8690 C.3   155  GLU155      0.1163
     58  CD         0.0800  -35.8140  -33.1280 C.2   155  GLU155      0.3649
     59  OE1        1.2680  -35.5530  -33.4170 O.co2 155  GLU155     -0.2457
     60  OE2       -0.6470  -36.5440  -33.8340 O.co2 155  GLU155     -0.2457
     61  N          1.9130  -34.6630  -23.1220 N.3   160  MET160     -0.1245
     62  CA         2.3910  -33.2890  -23.2150 C.3   160  MET160      0.1570
     63  C          3.0230  -32.8320  -21.9050 C.2   160  MET160      0.2261
     64  O          3.9970  -32.0800  -21.9060 O.2   160  MET160     -0.2867
     65  CB         1.2520  -32.3470  -23.6110 C.3   160  MET160      0.0387
     66  CG         0.7220  -32.5740  -25.0160 C.3   160  MET160      0.0595
     67  SD         1.9910  -32.3510  -26.2780 S.3   160  MET160     -0.1393
     68  CE         2.4780  -30.6540  -25.9710 C.3   160  MET160      0.0692
     69  N          6.8800  -33.8150  -22.0410 N.3   163  MET163     -0.1245
     70  CA         7.7630  -33.0060  -22.8750 C.3   163  MET163      0.1570
     71  C          7.8580  -31.5590  -22.4050 C.2   163  MET163      0.2261
     72  O          8.7780  -30.8380  -22.7770 O.2   163  MET163     -0.2867
     73  CB         7.3050  -33.0360  -24.3320 C.3   163  MET163      0.0387
     74  CG         7.4190  -34.4090  -24.9960 C.3   163  MET163      0.0595
     75  SD         6.9660  -34.3500  -26.7230 S.3   163  MET163     -0.1393
     76  CE         8.1470  -33.1480  -27.3460 C.3   163  MET163      0.0692
     77  N         16.3490  -25.3760  -31.0000 N.3   232  TRP232     -0.1241
     78  CA        15.4220  -26.2290  -30.2610 C.3   232  TRP232      0.1605
     79  C         14.3680  -25.4330  -29.4970 C.2   232  TRP232      0.2264
     80  O         13.2480  -25.9050  -29.3080 O.2   232  TRP232     -0.2867
     81  CB        16.1770  -27.1630  -29.3130 C.3   232  TRP232      0.0550
     82  CG        16.8840  -28.2790  -30.0160 C.ar  232  TRP232      0.0003
     83  CD1       18.1390  -28.2470  -30.5520 C.ar  232  TRP232      0.0946
     84  CD2       16.3780  -29.5970  -30.2600 C.ar  232  TRP232      0.0152
     85  NE1       18.4460  -29.4630  -31.1150 N.ar  232  TRP232     -0.2442
     86  CE2       17.3810  -30.3090  -30.9490 C.ar  232  TRP232      0.0810
     87  CE3       15.1740  -30.2440  -29.9630 C.ar  232  TRP232      0.0012
     88  CZ2       17.2170  -31.6350  -31.3460 C.ar  232  TRP232      0.0191
     89  CZ3       15.0120  -31.5600  -30.3600 C.ar  232  TRP232      0.0001
     90  CH2       16.0280  -32.2410  -31.0430 C.ar  232  TRP232      0.0015
     91  N         10.9710  -25.0200  -31.2410 N.3   235  LEU235     -0.1231
     92  CA        10.1630  -26.2340  -31.2230 C.3   235  LEU235      0.1693
     93  C          9.5150  -26.4550  -29.8590 C.2   235  LEU235      0.2592
     94  O          8.3890  -26.9420  -29.7670 O.2   235  LEU235     -0.2718
     95  CB        11.0130  -27.4460  -31.6050 C.3   235  LEU235      0.0284
     96  CG        10.2880  -28.7910  -31.6580 C.3   235  LEU235      0.0019
     97  CD1        9.0400  -28.6800  -32.5040 C.3   235  LEU235      0.0001
     98  CD2       11.2030  -29.8660  -32.2060 C.3   235  LEU235      0.0001
     99  N         10.2320  -26.0890  -28.8020 N.am  236  HIS236     -0.1976
    100  CA         9.7120  -26.2140  -27.4470 C.3   236  HIS236      0.1656
    101  C          8.7280  -25.0910  -27.1440 C.2   236  HIS236      0.2291
    102  O          7.7130  -25.3060  -26.4840 O.2   236  HIS236     -0.2864
    103  CB        10.8520  -26.2100  -26.4280 C.3   236  HIS236      0.0771
    104  CG        11.8000  -27.3590  -26.5750 C.ar  236  HIS236      0.0820
    105  ND1       13.1370  -27.1900  -26.8650 N.ar  236  HIS236     -0.2267
    106  CD2       11.6030  -28.6950  -26.4700 C.ar  236  HIS236      0.1154
    107  CE1       13.7240  -28.3710  -26.9300 C.ar  236  HIS236      0.1986
    108  NE2       12.8160  -29.3020  -26.6980 N.ar  236  HIS236     -0.2212
    109  N          5.3780  -25.9760  -28.2130 N.3   239  ASN239     -0.1240
    110  CA         4.7430  -26.9150  -27.2950 C.3   239  ASN239      0.1653
    111  C          4.3260  -26.2620  -25.9810 C.2   239  ASN239      0.2266
    112  O          3.4500  -26.7670  -25.2790 O.2   239  ASN239     -0.2867
    113  CB         5.6550  -28.1130  -27.0290 C.3   239  ASN239      0.1155
    114  CG         5.8250  -28.9970  -28.2510 C.2   239  ASN239      0.2627
    115  OD1        5.3040  -28.6980  -29.3260 O.2   239  ASN239     -0.2716
    116  ND2        6.5580  -30.0930  -28.0900 N.am  239  ASN239     -0.0877
    117  N          4.7390  -26.5080  -37.8680 N.3   256  MET256     -0.1245
    118  CA         5.2080  -27.5750  -36.9970 C.3   256  MET256      0.1570
    119  C          6.4650  -28.2250  -37.5600 C.2   256  MET256      0.2261
    120  O          7.4450  -28.4190  -36.8410 O.2   256  MET256     -0.2867
    121  CB         4.1150  -28.6250  -36.7840 C.3   256  MET256      0.0387
    122  CG         4.5140  -29.7370  -35.8200 C.3   256  MET256      0.0595
    123  SD         4.8920  -29.1290  -34.1670 S.3   256  MET256     -0.1393
    124  CE         3.3170  -28.4110  -33.7010 C.3   256  MET256      0.0692
    125  N         10.5480  -28.6490  -36.4840 N.3   260  ILE260     -0.1245
    126  CA        11.1320  -29.9850  -36.4470 C.3   260  ILE260      0.1561
    127  C         12.3670  -30.0600  -37.3390 C.2   260  ILE260      0.2260
    128  O         13.3800  -30.6520  -36.9660 O.2   260  ILE260     -0.2867
    129  CB        10.1170  -31.0530  -36.8960 C.3   260  ILE260      0.0252
    130  CG1        8.8440  -30.9650  -36.0510 C.3   260  ILE260      0.0019
    131  CG2       10.7230  -32.4400  -36.8000 C.3   260  ILE260      0.0019
    132  CD1        7.7520  -31.9090  -36.4990 C.3   260  ILE260      0.0001
    133  N         16.6350  -30.8090  -36.6240 N.3   264  HIS264     -0.1241
    134  CA        17.4640  -31.7720  -37.3400 C.3   264  HIS264      0.1621
    135  C         18.6300  -31.0810  -38.0360 C.2   264  HIS264      0.2264
    136  O         19.6160  -31.7220  -38.3970 O.2   264  HIS264     -0.2867
    137  CB        16.6360  -32.5570  -38.3600 C.3   264  HIS264      0.0745
    138  CG        15.5070  -33.3320  -37.7560 C.ar  264  HIS264      0.0817
    139  ND1       15.4920  -34.2820  -36.7910 N.ar  264  HIS264     -0.2268
    140  CD2       14.1950  -33.1590  -38.1430 C.ar  264  HIS264      0.1154
    141  CE1       14.1840  -34.6640  -36.6170 C.ar  264  HIS264      0.1986
    142  NE2       13.4210  -33.9720  -37.4450 N.ar  264  HIS264     -0.2212
@<TRIPOS>BOND
     1     1     2    1
     2     2     3    1
     3     2     5    1
     4     3     4    2
     5     5     6    1
     6     6     8   ar
     7     6     7   ar
     8     8    10   ar
     9     7     9   ar
    10    10    11   ar
    11     9    11   ar
    12    11    12    1
    13    15    16    2
    14    15    14    1
    15    18    19    1
    16   136   135    2
    17   137   138    1
    18   137   134    1
    19    20    19    1
    20    20    21    2
    21   140   138   ar
    22   140   142   ar
    23    14    13    1
    24    14    17    1
    25   135   134    1
    26    19    22    1
    27   117   118    1
    28   138   139   ar
    29   119   118    1
    30   119   120    2
    31   142   141   ar
    32   134   133    1
    33   127   128    2
    34   127   126    1
    35   118   121    1
    36   129   131    1
    37   129   126    1
    38   129   130    1
    39   139   141   ar
    40   121   122    1
    41    24    22    1
    42    22    23    1
    43   132   130    1
    44   125   126    1
    45   122   123    1
    46    23    25    1
    47   123   124    1
    48    60    58   ar
    49    59    58   ar
    50    58    57    1
    51    41    42    1
    52    97    96    1
    53    45    42    1
    54    45    46    1
    55    98    96    1
    56    32    30    1
    57    42    43    1
    58    57    56    1
    59    30    31    1
    60    30    27    1
    61    96    95    1
    62    95    92    1
    63    46    47   ar
    64    46    48   ar
    65    88    90   ar
    66    88    86   ar
    67    91    92    1
    68    92    93    1
    69    52    43   am
    70    52    53    1
    71    85    86   ar
    72    85    83   ar
    73    47    49   ar
    74    90    89   ar
    75    27    26    1
    76    27    28    1
    77    77    78    1
    78    48    50   ar
    79    86    84   ar
    80    56    53    1
    81    43    44    2
    82    83    82   ar
    83    89    87   ar
    84    78    79    1
    85    78    81    1
    86    84    82   ar
    87    84    87   ar
    88    49    51   ar
    89    53    54    1
    90    50    51   ar
    91    82    81    1
    92    93    94    2
    93    93    99   am
    94    28    29    2
    95    28    33   am
    96    79    80    2
    97    54    55    2
    98   115   114    2
    99    99   100    1
   100    33    34    1
   101   114   116   am
   102   114   113    1
   103   109   110    1
   104   100   101    1
   105   100   103    1
   106    76    75    1
   107    34    35    1
   108    34    37    1
   109   110   113    1
   110   110   111    1
   111   101   102    2
   112    40    38    1
   113   107   105   ar
   114   107   108   ar
   115    38    37    1
   116    38    39    1
   117   105   104   ar
   118    35    36    2
   119    75    74    1
   120   108   106   ar
   121   104   106   ar
   122   104   103    1
   123    67    68    1
   124    67    66    1
   125   111   112    2
   126    66    65    1
   127    74    73    1
   128    73    70    1
   129    65    62    1
   130    62    61    1
   131    62    63    1
   132    70    71    1
   133    70    69    1
   134    72    71    2
   135    64    63    2
