@<TRIPOS>MOLECULE
tmp/3rfqA00.pdb
 77 73 0 0 0
SMALL
GASTEIGER

@<TRIPOS>ATOM
      1  N         22.8980  -26.5070   -1.7730 N.3    55  ASN55      -0.1240
      2  CA        23.9470  -25.6200   -1.3870 C.3    55  ASN55       0.1653
      3  C         23.8260  -24.2260   -2.0120 C.2    55  ASN55       0.2266
      4  O         23.9520  -23.2750   -1.3430 O.2    55  ASN55      -0.2867
      5  CB        25.2830  -26.2680   -1.6350 C.3    55  ASN55       0.1155
      6  CG        26.3980  -25.5410   -1.0000 C.2    55  ASN55       0.2627
      7  OD1       26.3300  -25.1570    0.1140 O.2    55  ASN55      -0.2716
      8  ND2       27.4230  -25.3200   -1.7410 N.am   55  ASN55      -0.0877
      9  N         21.1240  -22.3780   -0.0730 N.3    58  VAL58      -0.1231
     10  CA        21.6350  -21.8400    1.1700 C.3    58  VAL58       0.1692
     11  C         22.4790  -20.5700    0.9480 C.2    58  VAL58       0.2591
     12  O         22.1760  -19.5150    1.5360 O.2    58  VAL58      -0.2718
     13  CB        22.4120  -22.9010    1.9440 C.3    58  VAL58       0.0266
     14  CG1       22.9870  -22.3180    3.2000 C.3    58  VAL58       0.0020
     15  CG2       21.4650  -24.1010    2.2640 C.3    58  VAL58       0.0020
     16  N         23.5070  -20.6640    0.0980 N.am   59  ILE59      -0.1980
     17  CA        24.3690  -19.5210   -0.2370 C.3    59  ILE59       0.1595
     18  C         23.5540  -18.2900   -0.6760 C.2    59  ILE59       0.2287
     19  O         23.9090  -17.1600   -0.3370 O.2    59  ILE59      -0.2864
     20  CB        25.4220  -19.9040   -1.3080 C.3    59  ILE59       0.0276
     21  CG1       26.3670  -20.9920   -0.7660 C.3    59  ILE59       0.0022
     22  CG2       26.2240  -18.6810   -1.7670 C.3    59  ILE59       0.0022
     23  CD1       27.3260  -21.6010   -1.8340 C.3    59  ILE59       0.0001
     24  N         22.5380  -34.5880    4.0820 N.3    84  ARG84      -0.1231
     25  CA        23.3080  -34.7140    5.3160 C.3    84  ARG84       0.1694
     26  C         24.5330  -33.7830    5.3480 C.2    84  ARG84       0.2592
     27  O         24.7670  -33.1030    6.3520 O.2    84  ARG84      -0.2718
     28  CB        23.7240  -36.1670    5.5700 C.3    84  ARG84       0.0321
     29  CG        24.3140  -36.4240    6.9900 C.3    84  ARG84       0.0489
     30  CD        24.3350  -37.9290    7.3320 C.3    84  ARG84       0.2205
     31  NE        22.9850  -38.5270    7.4720 N.pl3  84  ARG84      -0.0865
     32  CZ        22.4460  -39.4390    6.6440 C.cat  84  ARG84       0.5346
     33  NH1       23.1270  -39.9220    5.6040 N.pl3  84  ARG84       0.1354
     34  NH2       21.2130  -39.8980    6.8630 N.pl3  84  ARG84       0.1354
     35  N         25.3260  -33.7480    4.2970 N.am   85  GLU85      -0.1966
     36  CA        26.5280  -32.9470    4.2500 C.3    85  GLU85       0.1733
     37  C         26.3300  -31.4530    4.3220 C.2    85  GLU85       0.2616
     38  O         27.2060  -30.7730    4.6660 O.2    85  GLU85      -0.2715
     39  CB        27.3880  -33.3220    3.0500 C.3    85  GLU85       0.0429
     40  CG        27.5790  -34.7740    2.8670 C.3    85  GLU85       0.1163
     41  CD        28.2280  -35.4290    4.0500 C.2    85  GLU85       0.3649
     42  OE1       29.1360  -34.8690    4.6070 O.co2  85  GLU85      -0.2457
     43  OE2       27.7940  -36.4920    4.4130 O.co2  85  GLU85      -0.2457
     44  N         25.1680  -30.9480    4.0050 N.am   86  ILE86      -0.1963
     45  CA        25.0140  -29.5090    4.0240 C.3    86  ILE86       0.1727
     46  C         24.4100  -29.0250    5.3430 C.2    86  ILE86       0.2616
     47  O         24.4280  -27.8220    5.6450 O.2    86  ILE86      -0.2715
     48  CB        24.2010  -28.9630    2.8170 C.3    86  ILE86       0.0290
     49  CG1       22.7820  -29.4120    2.8830 C.3    86  ILE86       0.0022
     50  CG2       24.7970  -29.3240    1.4400 C.3    86  ILE86       0.0023
     51  CD1       21.8910  -28.2520    3.0430 C.3    86  ILE86       0.0001
     52  N         23.9140  -29.9490    6.1190 N.am   87  LEU87      -0.1963
     53  CA        23.3260  -29.6290    7.3910 C.3    87  LEU87       0.1728
     54  C         24.3360  -29.3050    8.5060 C.2    87  LEU87       0.2616
     55  O         25.2460  -30.0330    8.7460 O.2    87  LEU87      -0.2715
     56  CB        22.3330  -30.7080    7.8010 C.3    87  LEU87       0.0311
     57  CG        21.0640  -30.8870    6.9770 C.3    87  LEU87       0.0022
     58  CD1       20.2500  -32.0160    7.4610 C.3    87  LEU87       0.0001
     59  CD2       20.2310  -29.6670    6.8070 C.3    87  LEU87       0.0001
     60  N         24.1590  -28.1750    9.1500 N.am   88  ASP88      -0.1971
     61  CA        24.8860  -27.8900   10.3700 C.3    88  ASP88       0.1709
     62  C         24.3070  -28.5410   11.6320 C.2    88  ASP88       0.2293
     63  O         25.0390  -28.9260   12.4840 O.2    88  ASP88      -0.2864
     64  CB        25.0230  -26.4040   10.6440 C.3    88  ASP88       0.1436
     65  CG        25.6880  -25.6460    9.5530 C.2    88  ASP88       0.3671
     66  OD1       26.6100  -26.1140    8.9000 O.co2  88  ASP88      -0.2456
     67  OD2       25.2740  -24.5300    9.3770 O.co2  88  ASP88      -0.2456
     68  N         20.9900  -25.2330    7.8620 N.3   120  SER120     -0.1202
     69  CA        22.2090  -25.0070    7.1120 C.3   120  SER120      0.2020
     70  C         22.4350  -23.5260    6.9860 C.2   120  SER120      0.2619
     71  O         21.6930  -22.8690    6.3450 O.2   120  SER120     -0.2717
     72  CB        22.1030  -25.6350    5.7460 C.3   120  SER120      0.2103
     73  OG        23.3050  -25.6910    5.1030 O.3   120  SER120     -0.2182
     74  N         23.4640  -23.0170    7.6360 N.am  121  GLY121     -0.1956
     75  CA        23.6710  -21.5690    7.7370 C.3   121  GLY121      0.1869
     76  C         22.4960  -20.9840    8.4860 C.2   121  GLY121      0.2309
     77  O         22.2930  -21.2920    9.6500 O.2   121  GLY121     -0.2863
@<TRIPOS>BOND
     1     3     2    1
     2     3     4    2
     3    23    21    1
     4     1     2    1
     5    22    20    1
     6     8     6   am
     7     5     2    1
     8     5     6    1
     9    20    21    1
    10    20    17    1
    11     6     7    2
    12    18    19    2
    13    18    17    1
    14    17    16    1
    15     9    10    1
    16    16    11   am
    17    11    10    1
    18    11    12    2
    19    10    13    1
    20    50    48    1
    21    13    15    1
    22    13    14    1
    23    48    49    1
    24    48    45    1
    25    40    39    1
    26    40    41    1
    27    49    51    1
    28    39    36    1
    29    44    45    1
    30    44    37   am
    31    45    46    1
    32    41    43   ar
    33    41    42   ar
    34    24    25    1
    35    36    35    1
    36    36    37    1
    37    35    26   am
    38    37    38    2
    39    73    72    1
    40    25    26    1
    41    25    28    1
    42    46    47    2
    43    46    52   am
    44    26    27    2
    45    28    29    1
    46    33    32    1
    47    72    69    1
    48    52    53    1
    49    71    70    2
    50    32    34    1
    51    32    31    2
    52    59    57    1
    53    57    58    1
    54    57    56    1
    55    70    69    1
    56    70    74   am
    57    29    30    1
    58    69    68    1
    59    30    31    1
    60    53    56    1
    61    53    54    1
    62    74    75    1
    63    75    76    1
    64    76    77    2
    65    54    55    2
    66    54    60   am
    67    66    65   ar
    68    60    61    1
    69    67    65   ar
    70    65    64    1
    71    61    64    1
    72    61    62    1
    73    62    63    2
