@<TRIPOS>MOLECULE
tmp/3rfrG00.pdb
 139 132 0 0 0
SMALL
GASTEIGER

@<TRIPOS>ATOM
      1  N         47.5460   44.4080    5.3230 N.3    11  ILE11      -0.1245
      2  CA        46.8430   45.2050    6.3320 C.3    11  ILE11       0.1561
      3  C         46.4540   44.3160    7.5000 C.2    11  ILE11       0.2260
      4  O         46.7590   44.6210    8.6520 O.2    11  ILE11      -0.2867
      5  CB        45.5830   45.8960    5.7200 C.3    11  ILE11       0.0252
      6  CG1       46.0140   46.9470    4.6980 C.3    11  ILE11       0.0019
      7  CG2       44.7110   46.5430    6.7940 C.3    11  ILE11       0.0019
      8  CD1       44.8770   47.4260    3.7750 C.3    11  ILE11       0.0001
      9  N         48.3960   44.6680   11.0690 N.3    15  VAL15      -0.1245
     10  CA        47.4630   44.9420   12.1680 C.3    15  VAL15       0.1561
     11  C         47.4350   43.7840   13.2000 C.2    15  VAL15       0.2260
     12  O         47.5340   44.0080   14.4030 O.2    15  VAL15      -0.2867
     13  CB        46.0310   45.4170   11.6450 C.3    15  VAL15       0.0252
     14  CG1       44.9450   45.0550   12.6080 C.3    15  VAL15       0.0019
     15  CG2       46.0000   46.9350   11.3970 C.3    15  VAL15       0.0019
     16  N         49.5080   43.8380   16.9160 N.3    19  PHE19      -0.1241
     17  CA        48.5970   43.7350   18.0380 C.3    19  PHE19       0.1605
     18  C         49.0900   42.7020   19.0600 C.2    19  PHE19       0.2264
     19  O         49.2320   43.0190   20.2380 O.2    19  PHE19      -0.2867
     20  CB        47.1880   43.4320   17.5690 C.3    19  PHE19       0.0534
     21  CG        46.2550   43.1140   18.6760 C.ar   19  PHE19      -0.0203
     22  CD1       45.8140   44.1140   19.5290 C.ar   19  PHE19      -0.0042
     23  CD2       45.8160   41.8070   18.8790 C.ar   19  PHE19      -0.0042
     24  CE1       44.9320   43.8180   20.5810 C.ar   19  PHE19      -0.0003
     25  CE2       44.9300   41.4970   19.9080 C.ar   19  PHE19      -0.0003
     26  CZ        44.4940   42.4980   20.7680 C.ar   19  PHE19      -0.0000
     27  N         52.1260   43.8550   20.9100 N.3    22  ILE22      -0.1231
     28  CA        51.6770   44.7180   22.0100 C.3    22  ILE22       0.1692
     29  C         51.1930   43.8730   23.1790 C.2    22  ILE22       0.2591
     30  O         51.6250   44.0950   24.3140 O.2    22  ILE22      -0.2718
     31  CB        50.5930   45.7560   21.5630 C.3    22  ILE22       0.0266
     32  CG1       51.2160   46.8190   20.6580 C.3    22  ILE22       0.0019
     33  CG2       49.9260   46.4120   22.7850 C.3    22  ILE22       0.0020
     34  CD1       50.2820   47.4140   19.6860 C.3    22  ILE22       0.0001
     35  N         50.3490   42.8800   22.8910 N.am   23  VAL23      -0.1980
     36  CA        49.8970   41.9180   23.9130 C.3    23  VAL23       0.1595
     37  C         51.0510   41.1840   24.6070 C.2    23  VAL23       0.2287
     38  O         51.0160   41.0010   25.8110 O.2    23  VAL23      -0.2864
     39  CB        48.8690   40.9130   23.3630 C.3    23  VAL23       0.0276
     40  CG1       48.4640   39.9650   24.4170 C.3    23  VAL23       0.0022
     41  CG2       47.6170   41.6320   22.8840 C.3    23  VAL23       0.0022
     42  N         52.8350   43.8630   26.7390 N.3    26  TYR26      -0.1241
     43  CA        51.9250   44.0910   27.8560 C.3    26  TYR26       0.1605
     44  C         51.9730   43.0130   28.9330 C.2    26  TYR26       0.2264
     45  O         51.8990   43.3310   30.1160 O.2    26  TYR26      -0.2867
     46  CB        50.4860   44.2230   27.3570 C.3    26  TYR26       0.0534
     47  CG        49.5010   44.5880   28.4390 C.ar   26  TYR26      -0.0201
     48  CD1       48.8940   43.5940   29.2410 C.ar   26  TYR26      -0.0009
     49  CD2       49.1730   45.9260   28.6680 C.ar   26  TYR26      -0.0009
     50  CE1       47.9870   43.9220   30.2430 C.ar   26  TYR26       0.0417
     51  CE2       48.2500   46.2860   29.6700 C.ar   26  TYR26       0.0417
     52  CZ        47.6580   45.2800   30.4580 C.ar   26  TYR26       0.1957
     53  OH        46.7490   45.6340   31.4460 O.3    26  TYR26      -0.2866
     54  N         53.1430   43.6360   32.7400 N.3    30  PHE30      -0.1241
     55  CA        52.1070   43.4550   33.7630 C.3    30  PHE30       0.1605
     56  C         51.8650   42.0150   34.1760 C.2    30  PHE30       0.2264
     57  O         50.9900   41.7330   34.9790 O.2    30  PHE30      -0.2867
     58  CB        50.7870   44.0890   33.3210 C.3    30  PHE30       0.0534
     59  CG        50.8670   45.5700   33.1350 C.ar   30  PHE30      -0.0203
     60  CD1       50.7890   46.4290   34.2260 C.ar   30  PHE30      -0.0042
     61  CD2       51.0390   46.1070   31.8670 C.ar   30  PHE30      -0.0042
     62  CE1       50.8770   47.7980   34.0460 C.ar   30  PHE30      -0.0003
     63  CE2       51.1290   47.4790   31.6850 C.ar   30  PHE30      -0.0003
     64  CZ        51.0450   48.3200   32.7740 C.ar   30  PHE30      -0.0000
     65  N         42.4140   45.9300   37.5310 N.3    45  THR45      -0.1203
     66  CA        42.6460   47.0550   36.6350 C.3    45  THR45       0.1994
     67  C         43.4730   46.6660   35.4000 C.2    45  THR45       0.2617
     68  O         43.3110   47.2880   34.3460 O.2    45  THR45      -0.2717
     69  CB        43.2080   48.3210   37.3560 C.3    45  THR45       0.1784
     70  OG1       44.6370   48.2860   37.3830 O.3    45  THR45      -0.2211
     71  CG2       42.6630   48.4240   38.7680 C.3    45  THR45       0.0376
     72  N         44.3140   45.6340   35.5170 N.am   46  TYR46      -0.1975
     73  CA        45.2000   45.2460   34.4040 C.3    46  TYR46       0.1639
     74  C         44.8600   43.9680   33.6640 C.2    46  TYR46       0.2290
     75  O         45.2800   43.8110   32.5160 O.2    46  TYR46      -0.2864
     76  CB        46.6670   45.2110   34.8450 C.3    46  TYR46       0.0560
     77  CG        47.1640   46.5750   35.2530 C.ar   46  TYR46      -0.0198
     78  CD1       47.6060   46.8230   36.5480 C.ar   46  TYR46      -0.0009
     79  CD2       47.1580   47.6380   34.3470 C.ar   46  TYR46      -0.0009
     80  CE1       48.0410   48.0920   36.9240 C.ar   46  TYR46       0.0417
     81  CE2       47.5910   48.9200   34.7210 C.ar   46  TYR46       0.0417
     82  CZ        48.0290   49.1320   36.0050 C.ar   46  TYR46       0.1957
     83  OH        48.4550   50.3830   36.3670 O.3    46  TYR46      -0.2866
     84  N         40.2150   43.6720   33.2330 N.3    49  SER49      -0.1202
     85  CA        39.7440   44.7690   32.3830 C.3    49  SER49       0.2020
     86  C         39.7820   44.3130   30.9340 C.2    49  SER49       0.2618
     87  O         38.8400   44.5490   30.1630 O.2    49  SER49      -0.2717
     88  CB        40.5950   46.0150   32.5650 C.3    49  SER49       0.2103
     89  OG        41.9570   45.6680   32.6030 O.3    49  SER49      -0.2182
     90  N         40.8690   43.6290   30.5780 N.am   50  ILE50      -0.1979
     91  CA        40.9510   42.9190   29.3000 C.3    50  ILE50       0.1595
     92  C         39.8060   41.9090   29.1100 C.2    50  ILE50       0.2287
     93  O         39.0390   42.0090   28.1410 O.2    50  ILE50      -0.2864
     94  CB        42.3090   42.2380   29.1180 C.3    50  ILE50       0.0276
     95  CG1       43.4070   43.3030   29.1290 C.3    50  ILE50       0.0022
     96  CG2       42.3170   41.4370   27.8400 C.3    50  ILE50       0.0022
     97  CD1       44.8100   42.7550   29.1230 C.3    50  ILE50       0.0001
     98  N         36.2650   43.0360   28.7270 N.3    53  THR53      -0.1203
     99  CA        36.2070   43.8680   27.5490 C.3    53  THR53       0.1994
    100  C         36.2530   43.0540   26.2560 C.2    53  THR53       0.2617
    101  O         35.4250   43.2590   25.3690 O.2    53  THR53      -0.2717
    102  CB        37.2930   44.9320   27.6190 C.3    53  THR53       0.1784
    103  OG1       36.7380   46.0910   28.2360 O.3    53  THR53      -0.2211
    104  CG2       37.7610   45.3290   26.2660 C.3    53  THR53       0.0376
    105  N         37.1870   42.1120   26.1640 N.am   54  GLU54      -0.1979
    106  CA        37.4380   41.4070   24.8990 C.3    54  GLU54       0.1602
    107  C         36.3190   40.4640   24.4310 C.2    54  GLU54       0.2287
    108  O         36.0500   40.3830   23.2370 O.2    54  GLU54      -0.2864
    109  CB        38.7770   40.6720   24.9390 C.3    54  GLU54       0.0415
    110  CG        38.7750   39.3970   25.7750 C.3    54  GLU54       0.1163
    111  CD        40.1680   38.8980   26.0850 C.2    54  GLU54       0.3649
    112  OE1       41.1480   39.4120   25.5000 O.co2  54  GLU54      -0.2457
    113  OE2       40.2820   37.9920   26.9340 O.co2  54  GLU54      -0.2457
    114  N         33.5620   42.4610   22.6700 N.3    57  LEU57      -0.1245
    115  CA        34.2440   42.9680   21.4750 C.3    57  LEU57       0.1561
    116  C         34.4350   41.9120   20.4070 C.2    57  LEU57       0.2260
    117  O         34.1770   42.1690   19.2530 O.2    57  LEU57      -0.2867
    118  CB        35.5960   43.5600   21.8360 C.3    57  LEU57       0.0270
    119  CG        35.9580   44.8510   21.1080 C.3    57  LEU57       0.0019
    120  CD1       36.9390   45.6580   21.9630 C.3    57  LEU57       0.0001
    121  CD2       36.5240   44.6080   19.7300 C.3    57  LEU57       0.0001
    122  N         32.2710   41.7380   16.9060 N.3    61  SER61      -0.1217
    123  CA        33.1190   41.6490   15.7210 C.3    61  SER61       0.1889
    124  C         32.8100   40.4220   14.8760 C.2    61  SER61       0.2288
    125  O         32.9290   40.4540   13.6610 O.2    61  SER61      -0.2866
    126  CB        34.5910   41.6030   16.1140 C.3    61  SER61       0.2089
    127  OG        35.0290   42.8520   16.6100 O.3    61  SER61      -0.2183
    128  N         27.8300   41.3720    7.7950 N.3    68  TYR68      -0.1241
    129  CA        28.2680   42.2700    6.7420 C.3    68  TYR68       0.1605
    130  C         28.5270   41.4870    5.4530 C.2    68  TYR68       0.2264
    131  O         27.9880   41.8410    4.3940 O.2    68  TYR68      -0.2867
    132  CB        29.5170   43.0680    7.1730 C.3    68  TYR68       0.0534
    133  CG        30.2160   43.7400    6.0180 C.ar   68  TYR68      -0.0201
    134  CD1       29.8370   45.0120    5.5910 C.ar   68  TYR68      -0.0009
    135  CD2       31.2230   43.0860    5.3320 C.ar   68  TYR68      -0.0009
    136  CE1       30.4550   45.6210    4.5110 C.ar   68  TYR68       0.0417
    137  CE2       31.8440   43.6710    4.2600 C.ar   68  TYR68       0.0417
    138  CZ        31.4630   44.9440    3.8520 C.ar   68  TYR68       0.1957
    139  OH        32.1010   45.5350    2.7790 O.3    68  TYR68      -0.2866
@<TRIPOS>BOND
     1   139   138    1
     2     8     6    1
     3   138   137   ar
     4   138   136   ar
     5   137   135   ar
     6   131   130    2
     7   136   134   ar
     8     6     5    1
     9     1     2    1
    10   135   133   ar
    11   130   129    1
    12   134   133   ar
    13     5     2    1
    14     5     7    1
    15   133   132    1
    16     2     3    1
    17   129   132    1
    18   129   128    1
    19     3     4    2
    20     9    10    1
    21    15    13    1
    22    13    10    1
    23    13    14    1
    24    10    11    1
    25    11    12    2
    26   125   124    2
    27   124   123    1
    28   123   126    1
    29   123   122    1
    30   126   127    1
    31    16    17    1
    32    20    17    1
    33    20    21    1
    34    17    18    1
    35    21    23   ar
    36    21    22   ar
    37    23    25   ar
    38    18    19    2
    39   117   116    2
    40    22    24   ar
    41    34    32    1
    42   121   119    1
    43    25    26   ar
    44   116   115    1
    45    24    26   ar
    46    32    31    1
    47    27    28    1
    48   119   118    1
    49   119   120    1
    50   115   118    1
    51   115   114    1
    52    31    28    1
    53    31    33    1
    54    28    29    1
    55    41    39    1
    56    35    29   am
    57    35    36    1
    58    29    30    2
    59   108   107    2
    60    39    36    1
    61    39    40    1
    62    36    37    1
    63   107   106    1
    64    37    38    2
    65   106   109    1
    66   106   105    1
    67   109   110    1
    68   101   100    2
    69   112   111   ar
    70   110   111    1
    71   111   113   ar
    72   105   100   am
    73   100    99    1
    74   104   102    1
    75    42    43    1
    76    46    43    1
    77    46    47    1
    78    99   102    1
    79    99    98    1
    80   102   103    1
    81    96    94    1
    82    43    44    1
    83    93    92    2
    84    47    49   ar
    85    47    48   ar
    86    49    51   ar
    87    44    45    2
    88    92    91    1
    89    94    95    1
    90    94    91    1
    91    97    95    1
    92    48    50   ar
    93    91    90    1
    94    51    52   ar
    95    87    86    2
    96    50    52   ar
    97    52    53    1
    98    90    86   am
    99    86    85    1
   100    63    61   ar
   101    63    64   ar
   102    61    59   ar
   103    85    88    1
   104    85    84    1
   105    75    74    2
   106    88    89    1
   107    54    55    1
   108    64    62   ar
   109    59    58    1
   110    59    60   ar
   111    58    55    1
   112    74    73    1
   113    55    56    1
   114    62    60   ar
   115    56    57    2
   116    68    67    2
   117    79    81   ar
   118    79    77   ar
   119    73    76    1
   120    73    72    1
   121    81    82   ar
   122    76    77    1
   123    77    78   ar
   124    67    72   am
   125    67    66    1
   126    82    83    1
   127    82    80   ar
   128    78    80   ar
   129    66    69    1
   130    66    65    1
   131    69    70    1
   132    69    71    1
