@<TRIPOS>MOLECULE
tmp/3rfrH00.pdb
 151 142 0 0 0
SMALL
GASTEIGER

@<TRIPOS>ATOM
      1  N         -8.3010   -4.3970   22.3960 N.3    11  ILE11      -0.1245
      2  CA        -8.1990   -5.7310   22.9880 C.3    11  ILE11       0.1561
      3  C         -6.7670   -5.9950   23.4950 C.2    11  ILE11       0.2260
      4  O         -6.5680   -6.3400   24.6600 O.2    11  ILE11      -0.2867
      5  CB        -8.6210   -6.8300   21.9840 C.3    11  ILE11       0.0252
      6  CG1      -10.0550   -6.6120   21.5060 C.3    11  ILE11       0.0019
      7  CG2       -8.4280   -8.2380   22.5870 C.3    11  ILE11       0.0019
      8  CD1      -10.3970   -7.3920   20.2420 C.3    11  ILE11       0.0001
      9  N         -6.2250   -6.0580   27.5340 N.3    15  VAL15      -0.1231
     10  CA        -5.6780   -7.3360   27.9780 C.3    15  VAL15       0.1692
     11  C         -4.2430   -7.1550   28.5300 C.2    15  VAL15       0.2591
     12  O         -3.9190   -7.6600   29.6140 O.2    15  VAL15      -0.2718
     13  CB        -5.8150   -8.4460   26.8580 C.3    15  VAL15       0.0266
     14  CG1       -4.7230   -9.4830   26.9270 C.3    15  VAL15       0.0020
     15  CG2       -7.1400   -9.1470   26.9540 C.3    15  VAL15       0.0020
     16  N         -3.4000   -6.4070   27.8170 N.am   16  LEU16      -0.1980
     17  CA        -2.0500   -6.1710   28.2920 C.3    16  LEU16       0.1596
     18  C         -1.9600   -5.3250   29.5780 C.2    16  LEU16       0.2287
     19  O         -1.2410   -5.6890   30.5010 O.2    16  LEU16      -0.2864
     20  CB        -1.1870   -5.5620   27.1880 C.3    16  LEU16       0.0297
     21  CG         0.3070   -5.4680   27.5170 C.3    16  LEU16       0.0022
     22  CD1        0.9810   -6.8370   27.3870 C.3    16  LEU16       0.0001
     23  CD2        0.9840   -4.4400   26.6320 C.3    16  LEU16       0.0001
     24  N         -3.3500   -6.9540   32.8070 N.3    19  PHE19      -0.1241
     25  CA        -2.5140   -8.0700   33.2010 C.3    19  PHE19       0.1605
     26  C         -1.3980   -7.5540   34.0910 C.2    19  PHE19       0.2264
     27  O         -1.1710   -8.0820   35.1940 O.2    19  PHE19      -0.2867
     28  CB        -1.9480   -8.8150   31.9980 C.3    19  PHE19       0.0534
     29  CG        -0.8650   -9.7910   32.3550 C.ar   19  PHE19      -0.0203
     30  CD1       -1.1660  -10.9580   33.0350 C.ar   19  PHE19      -0.0042
     31  CD2        0.4730   -9.5350   32.0130 C.ar   19  PHE19      -0.0042
     32  CE1       -0.1600  -11.8610   33.3780 C.ar   19  PHE19      -0.0003
     33  CE2        1.4950  -10.4490   32.3410 C.ar   19  PHE19      -0.0003
     34  CZ         1.1840  -11.6070   33.0230 C.ar   19  PHE19      -0.0000
     35  N         -2.6080   -6.4610   37.4660 N.3    22  ILE22      -0.1231
     36  CA        -2.6840   -7.6690   38.2730 C.3    22  ILE22       0.1692
     37  C         -1.2860   -7.9870   38.7900 C.2    22  ILE22       0.2591
     38  O         -1.0880   -8.0530   39.9920 O.2    22  ILE22      -0.2718
     39  CB        -3.3680   -8.8590   37.5310 C.3    22  ILE22       0.0266
     40  CG1       -4.8720   -8.5770   37.3530 C.3    22  ILE22       0.0019
     41  CG2       -3.1430  -10.1870   38.2920 C.3    22  ILE22       0.0020
     42  CD1       -5.5430   -9.3970   36.2540 C.3    22  ILE22       0.0001
     43  N         -0.3170   -8.1090   37.8940 N.am   23  VAL23      -0.1980
     44  CA         1.0820   -8.3430   38.3060 C.3    23  VAL23       0.1595
     45  C          1.5930   -7.3580   39.3720 C.2    23  VAL23       0.2287
     46  O          2.2140   -7.7830   40.3390 O.2    23  VAL23      -0.2864
     47  CB         2.0430   -8.3690   37.1050 C.3    23  VAL23       0.0276
     48  CG1        3.4760   -8.5590   37.5750 C.3    23  VAL23       0.0022
     49  CG2        1.6580   -9.4870   36.1420 C.3    23  VAL23       0.0022
     50  N         -0.3800   -8.1300   42.5970 N.3    26  TYR26      -0.1241
     51  CA         0.2460   -9.3620   43.0680 C.3    26  TYR26       0.1605
     52  C          1.6000   -9.1220   43.7740 C.2    26  TYR26       0.2264
     53  O          1.8870   -9.7650   44.7920 O.2    26  TYR26      -0.2867
     54  CB         0.4050  -10.3640   41.9160 C.3    26  TYR26       0.0534
     55  CG         0.8940  -11.7300   42.3380 C.ar   26  TYR26      -0.0201
     56  CD1        2.2780  -12.0180   42.4460 C.ar   26  TYR26      -0.0009
     57  CD2       -0.0140  -12.7450   42.6350 C.ar   26  TYR26      -0.0009
     58  CE1        2.7320  -13.2920   42.8370 C.ar   26  TYR26       0.0417
     59  CE2        0.4330  -14.0290   43.0240 C.ar   26  TYR26       0.0417
     60  CZ         1.8000  -14.2890   43.1110 C.ar   26  TYR26       0.1957
     61  OH         2.1960  -15.5410   43.4900 O.3    26  TYR26      -0.2866
     62  N          2.2630  -10.0620   47.6640 N.3    30  PHE30      -0.1241
     63  CA         3.2270  -11.1410   47.9120 C.3    30  PHE30       0.1605
     64  C          4.7130  -10.7570   47.8230 C.2    30  PHE30       0.2264
     65  O          5.5830  -11.6160   47.9530 O.2    30  PHE30      -0.2867
     66  CB         2.9530  -12.3140   46.9750 C.3    30  PHE30       0.0534
     67  CG         1.6050  -12.9290   47.1590 C.ar   30  PHE30      -0.0203
     68  CD1        1.3580  -13.7950   48.2280 C.ar   30  PHE30      -0.0042
     69  CD2        0.5760  -12.6540   46.2670 C.ar   30  PHE30      -0.0042
     70  CE1        0.1000  -14.3790   48.4070 C.ar   30  PHE30      -0.0003
     71  CE2       -0.6840  -13.2330   46.4350 C.ar   30  PHE30      -0.0003
     72  CZ        -0.9190  -14.0960   47.5090 C.ar   30  PHE30      -0.0000
     73  N          6.1950  -21.3320   46.2520 N.3    45  THR45      -0.1203
     74  CA         4.7810  -21.4080   45.8880 C.3    45  THR45       0.1994
     75  C          4.2790  -20.1270   45.2140 C.2    45  THR45       0.2617
     76  O          3.3410  -20.1930   44.4140 O.2    45  THR45      -0.2717
     77  CB         3.8680  -21.8360   47.0690 C.3    45  THR45       0.1784
     78  OG1        3.5650  -20.7020   47.8860 O.3    45  THR45      -0.2211
     79  CG2        4.5400  -22.9170   47.9220 C.3    45  THR45       0.0376
     80  N          4.9150  -18.9830   45.5050 N.am   46  TYR46      -0.1975
     81  CA         4.4330  -17.6890   45.0120 C.3    46  TYR46       0.1639
     82  C          5.3160  -16.9880   44.0020 C.2    46  TYR46       0.2290
     83  O          4.8410  -16.0970   43.3030 O.2    46  TYR46      -0.2864
     84  CB         4.1310  -16.7370   46.1700 C.3    46  TYR46       0.0560
     85  CG         2.9880  -17.1860   47.0500 C.ar   46  TYR46      -0.0198
     86  CD1        3.1850  -17.4320   48.4130 C.ar   46  TYR46      -0.0009
     87  CD2        1.7090  -17.3840   46.5240 C.ar   46  TYR46      -0.0009
     88  CE1        2.1370  -17.8470   49.2280 C.ar   46  TYR46       0.0417
     89  CE2        0.6570  -17.8100   47.3390 C.ar   46  TYR46       0.0417
     90  CZ         0.8890  -18.0270   48.6770 C.ar   46  TYR46       0.1957
     91  OH        -0.1240  -18.4410   49.4630 O.3    46  TYR46      -0.2866
     92  N          6.9890  -20.3590   41.1490 N.3    49  SER49      -0.1202
     93  CA         5.8290  -20.8720   40.4340 C.3    49  SER49       0.2020
     94  C          5.5770  -20.0670   39.1760 C.2    49  SER49       0.2618
     95  O          5.3600  -20.6450   38.1110 O.2    49  SER49      -0.2717
     96  CB         4.6110  -20.7900   41.3320 C.3    49  SER49       0.2103
     97  OG         4.6160  -19.5450   42.0210 O.3    49  SER49      -0.2182
     98  N          5.6240  -18.7370   39.3120 N.am   50  ILE50      -0.1979
     99  CA         5.6010  -17.8150   38.1590 C.3    50  ILE50       0.1595
    100  C          6.7160  -18.0810   37.1380 C.2    50  ILE50       0.2287
    101  O          6.4220  -18.3020   35.9720 O.2    50  ILE50      -0.2864
    102  CB         5.6350  -16.3400   38.5860 C.3    50  ILE50       0.0276
    103  CG1        4.3800  -15.9950   39.3760 C.3    50  ILE50       0.0022
    104  CG2        5.7520  -15.4470   37.3610 C.3    50  ILE50       0.0022
    105  CD1        4.3910  -14.6110   39.9450 C.3    50  ILE50       0.0001
    106  N          6.8540  -21.2800   35.1450 N.3    53  THR53      -0.1203
    107  CA         5.6730  -21.3100   34.3140 C.3    53  THR53       0.1994
    108  C          5.7530  -20.3570   33.1200 C.2    53  THR53       0.2617
    109  O          5.4020  -20.7430   31.9930 O.2    53  THR53      -0.2717
    110  CB         4.4360  -21.0330   35.1630 C.3    53  THR53       0.1784
    111  OG1        3.9500  -22.2790   35.6440 O.3    53  THR53      -0.2211
    112  CG2        3.3360  -20.3370   34.3740 C.3    53  THR53       0.0376
    113  N          6.2280  -19.1330   33.3540 N.am   54  GLU54      -0.1979
    114  CA         6.1700  -18.0970   32.3330 C.3    54  GLU54       0.1602
    115  C          7.1430  -18.3040   31.1800 C.2    54  GLU54       0.2287
    116  O          6.7960  -18.0160   30.0420 O.2    54  GLU54      -0.2864
    117  CB         6.3100  -16.7020   32.9390 C.3    54  GLU54       0.0415
    118  CG         7.7260  -16.3110   33.3020 C.3    54  GLU54       0.1163
    119  CD         7.7950  -15.1090   34.2160 C.2    54  GLU54       0.3649
    120  OE1        6.7420  -14.4570   34.4100 O.co2  54  GLU54      -0.2457
    121  OE2        8.9130  -14.8360   34.7380 O.co2  54  GLU54      -0.2457
    122  N          5.6720  -20.7400   28.6370 N.3    57  LEU57      -0.1245
    123  CA         4.4830  -20.0270   28.1590 C.3    57  LEU57       0.1561
    124  C          4.8430  -18.9220   27.1660 C.2    57  LEU57       0.2260
    125  O          4.1580  -18.7380   26.1590 O.2    57  LEU57      -0.2867
    126  CB         3.7040  -19.4310   29.3290 C.3    57  LEU57       0.0270
    127  CG         2.1830  -19.5220   29.2020 C.3    57  LEU57       0.0019
    128  CD1        1.5590  -19.5050   30.5840 C.3    57  LEU57       0.0001
    129  CD2        1.5870  -18.4180   28.3210 C.3    57  LEU57       0.0001
    130  N          4.2200  -19.2080   23.0800 N.3    61  SER61      -0.1217
    131  CA         3.4580  -18.1070   22.4880 C.3    61  SER61       0.1889
    132  C          4.2710  -17.4070   21.3920 C.2    61  SER61       0.2288
    133  O          3.7100  -16.9080   20.4210 O.2    61  SER61      -0.2866
    134  CB         3.0240  -17.1130   23.5610 C.3    61  SER61       0.2089
    135  OG         2.1240  -17.7310   24.4590 O.3    61  SER61      -0.2183
    136  N          9.6380  -10.7930   37.3880 N.3   133  ILE133     -0.1245
    137  CA         8.7380   -9.9990   36.5670 C.3   133  ILE133      0.1561
    138  C          9.4880   -9.2890   35.4370 C.2   133  ILE133      0.2260
    139  O          9.0400   -9.3300   34.2760 O.2   133  ILE133     -0.2867
    140  CB         7.9200   -8.9970   37.4090 C.3   133  ILE133      0.0252
    141  CG1        7.1090   -9.7380   38.4880 C.3   133  ILE133      0.0019
    142  CG2        6.9980   -8.1580   36.5180 C.3   133  ILE133      0.0019
    143  CD1        6.2360  -10.9110   37.9640 C.3   133  ILE133      0.0001
    144  N          9.6220  -11.9940   32.4920 N.3   137  MET137     -0.1245
    145  CA         8.2500  -11.8330   32.0020 C.3   137  MET137      0.1570
    146  C          8.0310  -10.6180   31.1060 C.2   137  MET137      0.2261
    147  O          7.5950  -10.7250   29.9470 O.2   137  MET137     -0.2867
    148  CB         7.2670  -11.7690   33.1610 C.3   137  MET137      0.0387
    149  CG         5.8250  -11.7680   32.7150 C.3   137  MET137      0.0595
    150  SD         4.7470  -11.3840   34.1080 S.3   137  MET137     -0.1393
    151  CE         4.9500   -9.6200   34.2210 C.3   137  MET137      0.0692
@<TRIPOS>BOND
     1     8     6    1
     2   133   132    2
     3   132   131    1
     4     6     5    1
     5     5     7    1
     6     5     2    1
     7     1     2    1
     8   131   130    1
     9   131   134    1
    10     2     3    1
    11     3     4    2
    12   134   135    1
    13   125   124    2
    14    23    21    1
    15    13    14    1
    16    13    15    1
    17    13    10    1
    18   124   123    1
    19    20    21    1
    20    20    17    1
    21    22    21    1
    22     9    10    1
    23    16    17    1
    24    16    11   am
    25    10    11    1
    26   123   122    1
    27   123   126    1
    28    17    18    1
    29   129   127    1
    30    11    12    2
    31   127   126    1
    32   127   128    1
    33    18    19    2
    34   147   146    2
    35   116   115    2
    36   146   145    1
    37   115   114    1
    38   109   108    2
    39    28    29    1
    40    28    25    1
    41   145   144    1
    42   145   148    1
    43    31    33   ar
    44    31    29   ar
    45   114   117    1
    46   114   113    1
    47    33    34   ar
    48    29    30   ar
    49   149   148    1
    50   149   150    1
    51    24    25    1
    52   117   118    1
    53    34    32   ar
    54    30    32   ar
    55   108   113   am
    56   108   107    1
    57    25    26    1
    58   118   119    1
    59    26    27    2
    60   150   151    1
    61   119   120   ar
    62   119   121   ar
    63   139   138    2
    64   107   106    1
    65   107   110    1
    66   112   110    1
    67   110   111    1
    68   138   137    1
    69   101   100    2
    70    49    47    1
    71    42    40    1
    72   142   140    1
    73   137   136    1
    74   137   140    1
    75    47    48    1
    76    47    44    1
    77   100    99    1
    78    40    39    1
    79   104   102    1
    80   140   141    1
    81    35    36    1
    82    39    36    1
    83    39    41    1
    84    43    44    1
    85    43    37   am
    86   143   141    1
    87    95    94    2
    88    99   102    1
    89    99    98    1
    90    36    37    1
    91    44    45    1
    92   102   103    1
    93    37    38    2
    94    94    98   am
    95    94    93    1
    96    45    46    2
    97   103   105    1
    98    93    92    1
    99    93    96    1
   100    96    97    1
   101    54    55    1
   102    54    51    1
   103    55    56   ar
   104    55    57   ar
   105    56    58   ar
   106    50    51    1
   107    57    59   ar
   108    58    60   ar
   109    59    60   ar
   110    51    52    1
   111    60    61    1
   112    83    82    2
   113    52    53    2
   114    82    81    1
   115    76    75    2
   116    81    80    1
   117    81    84    1
   118    75    80   am
   119    75    74    1
   120    74    73    1
   121    74    77    1
   122    84    85    1
   123    69    71   ar
   124    69    67   ar
   125    71    72   ar
   126    87    85   ar
   127    87    89   ar
   128    66    67    1
   129    66    63    1
   130    85    86   ar
   131    77    78    1
   132    77    79    1
   133    67    68   ar
   134    89    90   ar
   135    72    70   ar
   136    62    63    1
   137    64    63    1
   138    64    65    2
   139    68    70   ar
   140    86    88   ar
   141    90    88   ar
   142    90    91    1
