@<TRIPOS>MOLECULE
tmp/3rfvB01.pdb
 113 108 0 0 0
SMALL
GASTEIGER

@<TRIPOS>ATOM
      1  N         45.0540   87.5210   -3.7450 N.3    13  GLN13      -0.1245
      2  CA        44.9460   86.7230   -2.5230 C.3    13  GLN13       0.1566
      3  C         45.7960   87.2980   -1.4040 C.2    13  GLN13       0.2260
      4  O         45.2870   87.6500   -0.3380 O.2    13  GLN13      -0.2867
      5  CB        45.3930   85.2840   -2.7770 C.3    13  GLN13       0.0367
      6  CG        44.5370   84.5050   -3.7550 C.3    13  GLN13       0.0905
      7  CD        45.2440   83.2530   -4.2670 C.2    13  GLN13       0.2608
      8  OE1       46.4420   83.0530   -4.0230 O.2    13  GLN13      -0.2717
      9  NE2       44.5080   82.4080   -4.9830 N.am   13  GLN13      -0.0878
     10  N         50.9960   86.1690  -11.6270 N.3    74  SER74      -0.1202
     11  CA        51.3850   85.3200  -10.5090 C.3    74  SER74       0.2020
     12  C         51.4400   83.8330  -10.8610 C.2    74  SER74       0.2618
     13  O         51.7660   83.0070  -10.0100 O.2    74  SER74      -0.2717
     14  CB        50.4290   85.5510   -9.3310 C.3    74  SER74       0.2103
     15  OG        49.1440   85.0320   -9.6380 O.3    74  SER74      -0.2182
     16  N         51.1140   83.4920  -12.1050 N.am   75  VAL75      -0.1979
     17  CA        51.2060   82.1050  -12.5710 C.3    75  VAL75       0.1595
     18  C         51.7900   82.0630  -13.9820 C.2    75  VAL75       0.2287
     19  O         52.0490   83.1010  -14.5800 O.2    75  VAL75      -0.2864
     20  CB        49.8300   81.3900  -12.5670 C.3    75  VAL75       0.0276
     21  CG1       49.2390   81.3800  -11.1600 C.3    75  VAL75       0.0022
     22  CG2       48.8720   82.0560  -13.5530 C.3    75  VAL75       0.0022
     23  N         59.7260   84.2660   -6.1710 N.3   110  SER110     -0.1202
     24  CA        59.0190   82.9920   -6.1320 C.3   110  SER110      0.2020
     25  C         59.9550   81.7890   -6.0570 C.2   110  SER110      0.2619
     26  O         61.0720   81.8370   -6.5770 O.2   110  SER110     -0.2717
     27  CB        58.1410   82.8660   -7.3960 C.3   110  SER110      0.2103
     28  OG        57.4710   81.6210   -7.4210 O.3   110  SER110     -0.2182
     29  N         59.4850   80.7050   -5.4420 N.am  111  ASN111     -0.1960
     30  CA        60.1730   79.4190   -5.5390 C.3   111  ASN111      0.1819
     31  C         60.3650   78.9970   -6.9930 C.2   111  ASN111      0.2621
     32  O         61.2540   78.2110   -7.3100 O.2   111  ASN111     -0.2715
     33  CB        59.3890   78.3220   -4.8090 C.3   111  ASN111      0.1195
     34  CG        58.0840   77.9670   -5.5180 C.2   111  ASN111      0.2630
     35  OD1       58.0450   77.0740   -6.3690 O.2   111  ASN111     -0.2716
     36  ND2       57.0120   78.6690   -5.1690 N.am  111  ASN111     -0.0877
     37  N         59.5360   79.5140   -7.8910 N.am  112  HIS112     -0.1973
     38  CA        59.6410   79.0840   -9.2890 C.3   112  HIS112      0.1656
     39  C         60.9040   79.5920   -9.9800 C.2   112  HIS112      0.2291
     40  O         61.2100   79.1830  -11.0980 O.2   112  HIS112     -0.2864
     41  CB        58.3560   79.4000  -10.0600 C.3   112  HIS112      0.0771
     42  CG        57.1730   78.6620   -9.5230 C.ar  112  HIS112      0.0820
     43  ND1       57.0230   77.3020   -9.6740 N.ar  112  HIS112     -0.2267
     44  CD2       56.1180   79.0790   -8.7840 C.ar  112  HIS112      0.1154
     45  CE1       55.9160   76.9140   -9.0660 C.ar  112  HIS112      0.1986
     46  NE2       55.3430   77.9750   -8.5270 N.ar  112  HIS112     -0.2212
     47  N         57.1390   82.5530  -16.1590 N.3   135  TYR135     -0.1241
     48  CA        56.8580   83.2220  -14.8940 C.3   135  TYR135      0.1605
     49  C         58.1020   83.2170  -13.9930 C.2   135  TYR135      0.2264
     50  O         58.5110   84.2590  -13.4750 O.2   135  TYR135     -0.2867
     51  CB        55.6540   82.5770  -14.1880 C.3   135  TYR135      0.0534
     52  CG        55.5190   82.9530  -12.7220 C.ar  135  TYR135     -0.0201
     53  CD1       55.0090   84.1890  -12.3430 C.ar  135  TYR135     -0.0009
     54  CD2       55.8870   82.0580  -11.7140 C.ar  135  TYR135     -0.0009
     55  CE1       54.8860   84.5360  -11.0110 C.ar  135  TYR135      0.0417
     56  CE2       55.7670   82.4010  -10.3640 C.ar  135  TYR135      0.0417
     57  CZ        55.2650   83.6350  -10.0270 C.ar  135  TYR135      0.1957
     58  OH        55.1390   83.9840   -8.7090 O.3   135  TYR135     -0.2866
     59  N         58.8270   83.3400   -2.4030 N.3   162  ILE162     -0.1231
     60  CA        57.6750   82.7890   -1.7010 C.3   162  ILE162      0.1692
     61  C         57.4660   81.3330   -2.0970 C.2   162  ILE162      0.2593
     62  O         57.5300   80.9870   -3.2790 O.2   162  ILE162     -0.2718
     63  CB        56.3900   83.6000   -2.0080 C.3   162  ILE162      0.0266
     64  CG1       56.5240   85.0420   -1.5000 C.3   162  ILE162      0.0019
     65  CG2       55.1650   82.9200   -1.3910 C.3   162  ILE162      0.0020
     66  CD1       55.3780   85.9640   -1.9480 C.3   162  ILE162      0.0001
     67  N         57.2220   80.4840   -1.1070 N.am  163  GLY163     -0.1942
     68  CA        56.8790   79.0950   -1.3600 C.3   163  GLY163      0.2014
     69  C         55.3910   79.0120   -1.6520 C.2   163  GLY163      0.2639
     70  O         54.9620   79.3040   -2.7620 O.2   163  GLY163     -0.2714
     71  N         54.6040   78.6380   -0.6470 N.am  164  SER164     -0.1949
     72  CA        53.1520   78.5860   -0.7860 C.3   164  SER164      0.1924
     73  C         52.5250   79.3640    0.3590 C.2   164  SER164      0.2314
     74  O         52.3540   78.8380    1.4600 O.2   164  SER164     -0.2863
     75  CB        52.6540   77.1410   -0.7690 C.3   164  SER164      0.2116
     76  OG        53.2950   76.3660   -1.7670 O.3   164  SER164     -0.2180
     77  N         49.6210   80.4280    1.9720 N.3   166  THR166     -0.1218
     78  CA        48.2020   80.1170    2.0180 C.3   166  THR166      0.1862
     79  C         47.7640   79.9800    3.4670 C.2   166  THR166      0.2287
     80  O         48.5990   79.8490    4.3640 O.2   166  THR166     -0.2866
     81  CB        47.9220   78.7780    1.3460 C.3   166  THR166      0.1770
     82  OG1       48.5740   77.7460    2.0960 O.3   166  THR166     -0.2211
     83  CG2       48.4360   78.7710   -0.0870 C.3   166  THR166      0.0375
     84  N         53.4600   68.7060   -1.0540 N.3   173  ARG173     -0.1231
     85  CA        54.4990   69.6900   -1.3230 C.3   173  ARG173      0.1694
     86  C         54.4610   70.8250   -0.2970 C.2   173  ARG173      0.2591
     87  O         55.5120   71.3410    0.1120 O.2   173  ARG173     -0.2718
     88  CB        54.3740   70.2310   -2.7540 C.3   173  ARG173      0.0321
     89  CG        55.3110   71.3970   -3.0900 C.3   173  ARG173      0.0489
     90  CD        55.3250   71.6330   -4.6050 C.3   173  ARG173      0.2205
     91  NE        56.0140   72.8540   -5.0040 N.pl3 173  ARG173     -0.0865
     92  CZ        55.4630   74.0650   -4.9850 C.cat 173  ARG173      0.5346
     93  NH1       54.2150   74.2190   -4.5620 N.pl3 173  ARG173      0.1354
     94  NH2       56.1640   75.1260   -5.3770 N.pl3 173  ARG173      0.1354
     95  N         53.2640   71.2080    0.1400 N.am  174  MET174     -0.1979
     96  CA        53.1550   72.3540    1.0470 C.3   174  MET174      0.1605
     97  C         53.6790   72.0320    2.4400 C.2   174  MET174      0.2287
     98  O         53.8830   72.9330    3.2630 O.2   174  MET174     -0.2864
     99  CB        51.7250   72.8960    1.1130 C.3   174  MET174      0.0413
    100  CG        51.2750   73.5930   -0.1840 C.3   174  MET174      0.0598
    101  SD        49.6760   74.4260   -0.0020 S.3   174  MET174     -0.1393
    102  CE        50.0320   75.6680    1.2130 C.3   174  MET174      0.0692
    103  N         54.4960   73.2740  -12.0040 N.3   257  PHE257     -0.1241
    104  CA        54.9480   74.2850  -12.9680 C.3   257  PHE257      0.1605
    105  C         55.9300   73.7030  -13.9840 C.2   257  PHE257      0.2264
    106  O         55.9700   74.1520  -15.1290 O.2   257  PHE257     -0.2867
    107  CB        55.5610   75.5190  -12.2970 C.3   257  PHE257      0.0534
    108  CG        54.5510   76.5270  -11.8150 C.ar  257  PHE257     -0.0203
    109  CD1       54.7290   77.8750  -12.0680 C.ar  257  PHE257     -0.0042
    110  CD2       53.4320   76.1280  -11.1000 C.ar  257  PHE257     -0.0042
    111  CE1       53.8110   78.8090  -11.6150 C.ar  257  PHE257     -0.0003
    112  CE2       52.5020   77.0600  -10.6450 C.ar  257  PHE257     -0.0003
    113  CZ        52.6950   78.3960  -10.8990 C.ar  257  PHE257     -0.0000
@<TRIPOS>BOND
     1    47    48    1
     2   106   105    2
     3    48    51    1
     4    48    49    1
     5    19    18    2
     6    51    52    1
     7    49    50    2
     8   105   104    1
     9    18    17    1
    10    22    20    1
    11   104   107    1
    12   104   103    1
    13    52    53   ar
    14    52    54   ar
    15    17    20    1
    16    17    16    1
    17    20    21    1
    18    53    55   ar
    19   107   108    1
    20    16    12   am
    21   109   108   ar
    22   109   111   ar
    23   108   110   ar
    24    54    56   ar
    25    10    11    1
    26   111   113   ar
    27   110   112   ar
    28    40    39    2
    29    55    57   ar
    30   113   112   ar
    31    12    11    1
    32    12    13    2
    33    11    14    1
    34    56    57   ar
    35    41    42    1
    36    41    38    1
    37    57    58    1
    38    39    38    1
    39    43    42   ar
    40    43    45   ar
    41    15    14    1
    42    42    44   ar
    43    38    37    1
    44    45    46   ar
    45    44    46   ar
    46    37    31   am
    47    28    27    1
    48    27    24    1
    49    32    31    2
    50    31    30    1
    51    26    25    2
    52    35    34    2
    53    23    24    1
    54    24    25    1
    55    25    29   am
    56    30    29    1
    57    30    33    1
    58    34    36   am
    59    34    33    1
    60    94    92    1
    61    91    92    2
    62    91    90    1
    63    92    93    1
    64     9     7   am
    65    90    89    1
    66     7     8    2
    67     7     6    1
    68     6     5    1
    69     1     2    1
    70    62    61    2
    71    89    88    1
    72     5     2    1
    73    70    69    2
    74    88    85    1
    75     2     3    1
    76    59    60    1
    77    61    60    1
    78    61    67   am
    79    63    60    1
    80    63    64    1
    81    63    65    1
    82    66    64    1
    83    76    75    1
    84    69    68    1
    85    69    71   am
    86     3     4    2
    87    68    67    1
    88    85    84    1
    89    85    86    1
    90    72    75    1
    91    72    71    1
    92    72    73    1
    93    86    87    2
    94    86    95   am
    95   100   101    1
    96   100    99    1
    97    83    81    1
    98   101   102    1
    99    95    96    1
   100    73    74    2
   101    96    99    1
   102    96    97    1
   103    81    78    1
   104    81    82    1
   105    77    78    1
   106    78    79    1
   107    97    98    2
   108    79    80    2
