@<TRIPOS>MOLECULE
tmp/3rfxA00.pdb
 150 141 0 0 0
SMALL
GASTEIGER

@<TRIPOS>ATOM
      1  N         67.1740   40.0940   11.1790 N.3     9  GLY9       -0.1225
      2  CA        67.8660   40.1670   12.4650 C.3     9  GLY9        0.1811
      3  C         66.9180   40.2660   13.6470 C.2     9  GLY9        0.2280
      4  O         67.2480   40.8560   14.6900 O.2     9  GLY9       -0.2866
      5  N         65.8940   38.3580   15.9490 N.3    11  ALA11      -0.1231
      6  CA        66.1910   37.7170   17.2330 C.3    11  ALA11       0.1694
      7  C         67.2230   38.5210   18.0040 C.2    11  ALA11       0.2593
      8  O         67.4920   38.2380   19.1710 O.2    11  ALA11      -0.2718
      9  CB        66.6940   36.3010   17.0240 C.3    11  ALA11       0.0304
     10  N         67.8110   39.5140   17.3420 N.am   12  GLY12      -0.1942
     11  CA        68.8530   40.3250   17.9490 C.3    12  GLY12       0.2014
     12  C         68.2530   41.3630   18.8700 C.2    12  GLY12       0.2639
     13  O         67.0360   41.4370   19.0220 O.2    12  GLY12      -0.2714
     14  N         69.1000   42.1850   19.4800 N.am   13  GLN13      -0.1963
     15  CA        68.6090   43.1530   20.4510 C.3    13  GLN13       0.1733
     16  C         67.6860   44.2090   19.8340 C.2    13  GLN13       0.2616
     17  O         66.6060   44.4710   20.3570 O.2    13  GLN13      -0.2715
     18  CB        69.7700   43.8070   21.2040 C.3    13  GLN13       0.0408
     19  CG        69.3650   44.3670   22.5620 C.3    13  GLN13       0.0908
     20  CD        70.5570   44.7470   23.4280 C.2    13  GLN13       0.2608
     21  OE1       71.6460   44.1800   23.2960 O.2    13  GLN13      -0.2717
     22  NE2       70.3510   45.7090   24.3230 N.am   13  GLN13      -0.0878
     23  N         68.1030   44.8130   18.7270 N.am   14  LEU14      -0.1963
     24  CA        67.2550   45.7990   18.0560 C.3    14  LEU14       0.1728
     25  C         66.0310   45.1380   17.4120 C.2    14  LEU14       0.2616
     26  O         64.9340   45.7020   17.4160 O.2    14  LEU14      -0.2715
     27  CB        68.0500   46.5640   16.9960 C.3    14  LEU14       0.0311
     28  CG        68.3300   48.0400   17.2660 C.3    14  LEU14       0.0022
     29  CD1       68.9280   48.2330   18.6560 C.3    14  LEU14       0.0001
     30  CD2       69.2510   48.5980   16.1940 C.3    14  LEU14       0.0001
     31  N         66.2390   43.9470   16.8520 N.am   15  GLY15      -0.1955
     32  CA        65.1680   43.1770   16.2370 C.3    15  GLY15       0.1869
     33  C         64.0180   42.8680   17.1820 C.2    15  GLY15       0.2309
     34  O         62.8510   42.9560   16.7960 O.2    15  GLY15      -0.2863
     35  N         65.5540   35.5440   11.0690 N.3    33  ASP33      -0.1225
     36  CA        66.8770   35.5260   11.6780 C.3    33  ASP33       0.1805
     37  C         67.5150   34.1730   11.4140 C.2    33  ASP33       0.2598
     38  O         66.8180   33.2050   11.1040 O.2    33  ASP33      -0.2718
     39  CB        66.7910   35.7920   13.1850 C.3    33  ASP33       0.1424
     40  CG        68.0950   36.3470   13.7600 C.2    33  ASP33       0.3668
     41  OD1       68.0860   37.5130   14.1900 O.co2  33  ASP33      -0.2456
     42  OD2       69.1210   35.6310   13.7770 O.co2  33  ASP33      -0.2456
     43  N         68.8400   34.1180   11.5040 N.am   34  LEU34      -0.1966
     44  CA        69.5610   32.8550   11.4310 C.3    34  LEU34       0.1728
     45  C         69.2680   32.0540   12.7040 C.2    34  LEU34       0.2616
     46  O         69.1990   30.8220   12.6810 O.2    34  LEU34      -0.2715
     47  CB        71.0620   33.1140   11.3080 C.3    34  LEU34       0.0311
     48  CG        71.9970   31.8990   11.2810 C.3    34  LEU34       0.0022
     49  CD1       71.7670   31.0590   10.0350 C.3    34  LEU34       0.0001
     50  CD2       73.4510   32.3320   11.3650 C.3    34  LEU34       0.0001
     51  N         69.0840   32.7760   13.8060 N.am   35  SER35      -0.1950
     52  CA        68.8020   32.1760   15.1110 C.3    35  SER35       0.1924
     53  C         67.3210   31.8740   15.2910 C.2    35  SER35       0.2314
     54  O         66.4730   32.5030   14.6640 O.2    35  SER35      -0.2863
     55  CB        69.2540   33.1160   16.2310 C.3    35  SER35       0.2116
     56  OG        70.6440   33.3700   16.1530 O.3    35  SER35      -0.2180
     57  N         66.4690   31.6420    8.4310 N.3    49  CYS49      -0.1221
     58  CA        67.3730   31.4390    7.3070 C.3    49  CYS49       0.1808
     59  C         68.6690   32.2300    7.4080 C.2    49  CYS49       0.2601
     60  O         68.7410   33.2660    8.0680 O.2    49  CYS49      -0.2717
     61  CB        66.6700   31.7190    5.9720 C.3    49  CYS49       0.0970
     62  SG        66.5760   33.4560    5.4800 S.3    49  CYS49      -0.0800
     63  N         69.6890   31.7070    6.7450 N.am   50  ASP50      -0.1959
     64  CA        70.9830   32.3490    6.6410 C.3    50  ASP50       0.1840
     65  C         70.9390   33.3440    5.4770 C.2    50  ASP50       0.2621
     66  O         70.5120   32.9930    4.3780 O.2    50  ASP50      -0.2715
     67  CB        72.0360   31.2780    6.3710 C.3    50  ASP50       0.1450
     68  CG        73.4530   31.7920    6.5100 C.2    50  ASP50       0.3671
     69  OD1       73.6620   33.0240    6.4620 O.co2  50  ASP50      -0.2456
     70  OD2       74.3650   30.9490    6.6670 O.co2  50  ASP50      -0.2456
     71  N         71.3640   34.5830    5.7230 N.am   51  LEU51      -0.1977
     72  CA        71.4280   35.5960    4.6620 C.3    51  LEU51       0.1596
     73  C         72.3450   35.1740    3.5200 C.2    51  LEU51       0.2287
     74  O         72.2400   35.6860    2.3980 O.2    51  LEU51      -0.2864
     75  CB        71.8820   36.9450    5.2330 C.3    51  LEU51       0.0297
     76  CG        70.8360   37.6010    6.1390 C.3    51  LEU51       0.0022
     77  CD1       71.4380   38.7080    7.0260 C.3    51  LEU51       0.0001
     78  CD2       69.6780   38.1440    5.3120 C.3    51  LEU51       0.0001
     79  N         67.9910   44.5530    9.7250 N.3    70  LEU70      -0.1231
     80  CA        68.8220   44.6180   10.9340 C.3    70  LEU70       0.1693
     81  C         69.7790   43.4320   11.0230 C.2    70  LEU70       0.2593
     82  O         70.7260   43.4320   11.8190 O.2    70  LEU70      -0.2718
     83  CB        67.9300   44.6590   12.1690 C.3    70  LEU70       0.0284
     84  CG        66.8850   45.7750   12.1800 C.3    70  LEU70       0.0019
     85  CD1       65.9890   45.6860   13.4000 C.3    70  LEU70       0.0001
     86  CD2       67.5590   47.1500   12.0920 C.3    70  LEU70       0.0001
     87  N         69.5330   42.4220   10.1940 N.am   71  GLY71      -0.1942
     88  CA        70.3020   41.1920   10.2350 C.3    71  GLY71       0.2014
     89  C         71.7160   41.3180    9.7140 C.2    71  GLY71       0.2639
     90  O         71.9700   41.9750    8.7110 O.2    71  GLY71      -0.2714
     91  N         72.6470   40.6620   10.3930 N.am   72  GLY72      -0.1939
     92  CA        74.0400   40.7250   10.0090 C.3    72  GLY72       0.2014
     93  C         74.9470   40.8490   11.2180 C.2    72  GLY72       0.2639
     94  O         74.5140   40.6380   12.3580 O.2    72  GLY72      -0.2714
     95  N         76.2040   41.1930   10.9640 N.am   73  ILE73      -0.1963
     96  CA        77.2040   41.3240   12.0160 C.3    73  ILE73       0.1727
     97  C         77.3920   42.7910   12.3870 C.2    73  ILE73       0.2617
     98  O         77.7280   43.6200   11.5380 O.2    73  ILE73      -0.2715
     99  CB        78.5540   40.7370   11.5870 C.3    73  ILE73       0.0290
    100  CG1       78.3900   39.2820   11.1240 C.3    73  ILE73       0.0022
    101  CG2       79.5640   40.8390   12.7260 C.3    73  ILE73       0.0023
    102  CD1       77.9530   38.3410   12.2170 C.3    73  ILE73       0.0001
    103  N         77.1850   43.0960   13.6650 N.am   74  SER74      -0.1936
    104  CA        77.1610   44.4730   14.1520 C.3    74  SER74       0.2055
    105  C         78.4380   44.8580   14.9010 C.2    74  SER74       0.2642
    106  O         78.7470   46.0440   15.0620 O.2    74  SER74      -0.2714
    107  CB        75.9620   44.6480   15.0860 C.3    74  SER74       0.2130
    108  OG        75.9500   43.6230   16.0780 O.3    74  SER74      -0.2179
    109  N         79.1620   43.8530   15.3770 N.am   75  VAL75      -0.1977
    110  CA        80.4020   44.0870   16.1100 C.3    75  VAL75       0.1596
    111  C         81.5660   43.5030   15.3330 C.2    75  VAL75       0.2287
    112  O         81.3630   42.7700   14.3610 O.2    75  VAL75      -0.2864
    113  CB        80.3600   43.4480   17.5030 C.3    75  VAL75       0.0276
    114  CG1       79.1980   44.0140   18.3050 C.3    75  VAL75       0.0022
    115  CG2       80.2560   41.9310   17.3870 C.3    75  VAL75       0.0022
    116  N         82.9580   35.3930    8.9910 N.3    81  GLN81      -0.1245
    117  CA        81.5930   35.6250    9.4430 C.3    81  GLN81       0.1566
    118  C         80.9950   36.9070    8.8470 C.2    81  GLN81       0.2260
    119  O         79.7990   36.9690    8.5680 O.2    81  GLN81      -0.2867
    120  CB        81.5530   35.7070   10.9680 C.3    81  GLN81       0.0367
    121  CG        82.1950   34.5130   11.6590 C.3    81  GLN81       0.0905
    122  CD        82.1910   34.6540   13.1630 C.2    81  GLN81       0.2608
    123  OE1       81.2860   35.2640   13.7400 O.2    81  GLN81      -0.2717
    124  NE2       83.2050   34.0870   13.8120 N.am   81  GLN81      -0.0878
    125  N         79.9900   36.3980    5.1690 N.3    84  GLN84      -0.1231
    126  CA        78.7190   35.6940    5.0280 C.3    84  GLN84       0.1698
    127  C         77.4920   36.5600    5.3130 C.2    84  GLN84       0.2592
    128  O         76.5440   36.5810    4.5260 O.2    84  GLN84      -0.2718
    129  CB        78.6990   34.4400    5.9150 C.3    84  GLN84       0.0381
    130  CG        79.8100   33.4460    5.5890 C.3    84  GLN84       0.0905
    131  CD        79.5540   32.6810    4.3070 C.2    84  GLN84       0.2608
    132  OE1       78.4170   32.3090    4.0130 O.2    84  GLN84      -0.2717
    133  NE2       80.6100   32.4350    3.5400 N.am   84  GLN84      -0.0878
    134  N         77.5040   37.2710    6.4370 N.am   85  GLY85      -0.1957
    135  CA        76.3350   38.0160    6.8730 C.3    85  GLY85       0.1869
    136  C         76.1490   39.3830    6.2180 C.2    85  GLY85       0.2309
    137  O         75.0160   39.8260    6.0040 O.2    85  GLY85      -0.2863
    138  N         70.3780   48.9570    8.1670 N.3   108  ALA108     -0.1245
    139  CA        71.1570   49.2770    9.3640 C.3   108  ALA108      0.1562
    140  C         72.6360   49.3810    9.0100 C.2   108  ALA108      0.2260
    141  O         73.3660   48.3950    9.0740 O.2   108  ALA108     -0.2867
    142  CB        70.9500   48.2120   10.4410 C.3   108  ALA108      0.0290
    143  N         73.7080   53.9270   12.2020 N.3   162  ILE162     -0.1245
    144  CA        73.2840   53.8740   13.6060 C.3   162  ILE162      0.1561
    145  C         74.4190   54.2870   14.5630 C.2   162  ILE162      0.2260
    146  O         75.5530   53.8360   14.4170 O.2   162  ILE162     -0.2867
    147  CB        72.7770   52.4660   13.9630 C.3   162  ILE162      0.0252
    148  CG1       71.5560   52.1240   13.0990 C.3   162  ILE162      0.0019
    149  CG2       72.3950   52.3760   15.4430 C.3   162  ILE162      0.0019
    150  CD1       71.1160   50.6740   13.2050 C.3   162  ILE162      0.0001
@<TRIPOS>BOND
     1    74    73    2
     2    73    72    1
     3   133   131   am
     4   132   131    2
     5   131   130    1
     6    66    65    2
     7   128   127    2
     8    72    75    1
     9    72    71    1
    10   126   125    1
    11   126   127    1
    12   126   129    1
    13    75    76    1
    14    78    76    1
    15   127   134   am
    16    65    71   am
    17    65    64    1
    18    62    61    1
    19   130   129    1
    20    61    58    1
    21   137   136    2
    22    76    77    1
    23   136   135    1
    24    67    68    1
    25    67    64    1
    26   134   135    1
    27    69    68   ar
    28    68    70   ar
    29    64    63    1
    30    63    59   am
    31    58    59    1
    32    58    57    1
    33    59    60    2
    34   138   139    1
    35   119   118    2
    36    90    89    2
    37   118   117    1
    38   116   117    1
    39   140   141    2
    40   140   139    1
    41   139   142    1
    42   117   120    1
    43    89    88    1
    44    89    91   am
    45    79    80    1
    46    92    91    1
    47    92    93    1
    48    49    48    1
    49    87    88    1
    50    87    81   am
    51    80    81    1
    52    80    83    1
    53    95    93   am
    54    95    96    1
    55   120   121    1
    56    81    82    2
    57    35    36    1
    58    38    37    2
    59   100    99    1
    60   100   102    1
    61     1     2    1
    62    93    94    2
    63    48    47    1
    64    48    50    1
    65    47    44    1
    66    37    43   am
    67    37    36    1
    68    44    43    1
    69    44    45    1
    70    98    97    2
    71    99    96    1
    72    99   101    1
    73   121   122    1
    74    36    39    1
    75    96    97    1
    76    86    84    1
    77    83    84    1
    78    84    85    1
    79   143   144    1
    80    97   103   am
    81     2     3    1
    82    46    45    2
    83    45    51   am
    84   148   150    1
    85   148   147    1
    86   122   123    2
    87   122   124   am
    88    39    40    1
    89   144   147    1
    90   144   145    1
    91     3     4    2
    92   103   104    1
    93    40    42   ar
    94    40    41   ar
    95    51    52    1
    96   147   149    1
    97   104   105    1
    98   104   107    1
    99   112   111    2
   100   146   145    2
   101    54    53    2
   102   105   106    2
   103   105   109   am
   104   107   108    1
   105    52    53    1
   106    52    55    1
   107   111   110    1
   108   109   110    1
   109     5     6    1
   110   110   113    1
   111    56    55    1
   112    30    28    1
   113    32    31    1
   114    32    33    1
   115    34    33    2
   116    31    25   am
   117    27    28    1
   118    27    24    1
   119     9     6    1
   120     6     7    1
   121    28    29    1
   122    10    11    1
   123    10     7   am
   124   115   113    1
   125    25    26    2
   126    25    24    1
   127   113   114    1
   128    11    12    1
   129     7     8    2
   130    24    23    1
   131    23    16   am
   132    12    13    2
   133    12    14   am
   134    14    15    1
   135    16    17    2
   136    16    15    1
   137    15    18    1
   138    18    19    1
   139    19    20    1
   140    21    20    2
   141    20    22   am
