@<TRIPOS>MOLECULE
tmp/3rg1F00.pdb
 110 105 0 0 0
SMALL
GASTEIGER

@<TRIPOS>ATOM
      1  N         57.8700   59.8970   76.0890 N.3   378  SER378     -0.1202
      2  CA        57.1250   61.1520   75.8880 C.3   378  SER378      0.2020
      3  C         55.8250   60.9560   75.1070 C.2   378  SER378      0.2618
      4  O         55.6410   59.9700   74.4170 O.2   378  SER378     -0.2717
      5  CB        58.0110   62.1890   75.1930 C.3   378  SER378      0.2103
      6  OG        58.3490   61.7860   73.8850 O.3   378  SER378     -0.2182
      7  N         54.9240   61.9120   75.2330 N.am  379  TYR379     -0.1975
      8  CA        53.6530   61.9060   74.4940 C.3   379  TYR379      0.1639
      9  C         52.8470   60.6170   74.6620 C.2   379  TYR379      0.2290
     10  O         52.3380   60.0540   73.7010 O.2   379  TYR379     -0.2864
     11  CB        53.8900   62.2240   73.0070 C.3   379  TYR379      0.0560
     12  CG        54.3420   63.6400   72.7830 C.ar  379  TYR379     -0.0198
     13  CD1       53.4160   64.6730   72.6490 C.ar  379  TYR379     -0.0009
     14  CD2       55.6910   63.9460   72.7310 C.ar  379  TYR379     -0.0009
     15  CE1       53.8200   65.9770   72.4530 C.ar  379  TYR379      0.0417
     16  CE2       56.1160   65.2460   72.5380 C.ar  379  TYR379      0.0417
     17  CZ        55.1860   66.2690   72.4000 C.ar  379  TYR379      0.1957
     18  OH        55.6350   67.5650   72.2260 O.3   379  TYR379     -0.2866
     19  N         69.8240   59.7710   79.7810 N.3   398  LEU398     -0.1245
     20  CA        68.8380   60.7260   79.3420 C.3   398  LEU398      0.1561
     21  C         67.4540   60.0860   79.4080 C.2   398  LEU398      0.2260
     22  O         67.1920   59.0920   78.7280 O.2   398  LEU398     -0.2867
     23  CB        69.1530   61.1560   77.9110 C.3   398  LEU398      0.0270
     24  CG        68.0530   61.8210   77.0630 C.3   398  LEU398      0.0019
     25  CD1       67.1780   62.7270   77.8590 C.3   398  LEU398      0.0001
     26  CD2       68.6890   62.5690   75.9190 C.3   398  LEU398      0.0001
     27  N         63.3310   61.0430   78.9450 N.3   400  ASP400     -0.1239
     28  CA        62.3890   62.0220   78.4010 C.3   400  ASP400      0.1674
     29  C         60.9550   61.5120   78.5270 C.2   400  ASP400      0.2266
     30  O         60.5990   60.5050   77.9130 O.2   400  ASP400     -0.2867
     31  CB        62.7360   62.2730   76.9270 C.3   400  ASP400      0.1410
     32  CG        61.9180   63.3930   76.2910 C.2   400  ASP400      0.3668
     33  OD1       60.9470   63.8850   76.9120 O.co2 400  ASP400     -0.2456
     34  OD2       62.2560   63.7810   75.1460 O.co2 400  ASP400     -0.2456
     35  N         58.2490   64.0050   78.4090 N.3   402  ALA402     -0.1231
     36  CA        57.5300   65.2510   78.1480 C.3   402  ALA402      0.1694
     37  C         56.1350   64.9710   77.6340 C.2   402  ALA402      0.2592
     38  O         55.9600   64.0980   76.7900 O.2   402  ALA402     -0.2718
     39  CB        58.2940   66.0840   77.1430 C.3   402  ALA402      0.0304
     40  N         55.1540   65.7060   78.1530 N.am  403  PHE403     -0.1976
     41  CA        53.7550   65.5800   77.7480 C.3   403  PHE403      0.1639
     42  C         53.0860   64.2430   78.1160 C.2   403  PHE403      0.2290
     43  O         52.0160   63.9180   77.6090 O.2   403  PHE403     -0.2864
     44  CB        53.5980   65.8930   76.2430 C.3   403  PHE403      0.0560
     45  CG        54.0430   67.2720   75.8890 C.ar  403  PHE403     -0.0200
     46  CD1       53.1530   68.3310   75.9340 C.ar  403  PHE403     -0.0042
     47  CD2       55.3640   67.5280   75.5700 C.ar  403  PHE403     -0.0042
     48  CE1       53.5740   69.6310   75.6450 C.ar  403  PHE403     -0.0003
     49  CE2       55.7820   68.8120   75.2860 C.ar  403  PHE403     -0.0003
     50  CZ        54.8850   69.8660   75.3240 C.ar  403  PHE403     -0.0000
     51  N         70.2730   64.2800   81.9330 N.3   423  VAL423     -0.1231
     52  CA        69.2590   65.0780   81.2720 C.3   423  VAL423      0.1692
     53  C         67.8910   64.4800   81.5530 C.2   423  VAL423      0.2592
     54  O         67.6410   63.3140   81.2420 O.2   423  VAL423     -0.2718
     55  CB        69.5170   65.1740   79.7580 C.3   423  VAL423      0.0266
     56  CG1       68.4120   65.9500   79.1050 C.3   423  VAL423      0.0020
     57  CG2       70.8600   65.8510   79.4720 C.3   423  VAL423      0.0020
     58  N         67.0210   65.2790   82.1560 N.am  424  LEU424     -0.1966
     59  CA        65.6730   64.8470   82.4750 C.3   424  LEU424      0.1728
     60  C         64.6690   65.8780   81.9570 C.2   424  LEU424      0.2616
     61  O         64.7550   67.0580   82.2930 O.2   424  LEU424     -0.2715
     62  CB        65.5240   64.6760   83.9940 C.3   424  LEU424      0.0311
     63  CG        64.2410   63.9970   84.4920 C.3   424  LEU424      0.0022
     64  CD1       64.3850   62.5010   84.3170 C.3   424  LEU424      0.0001
     65  CD2       63.9110   64.3550   85.9410 C.3   424  LEU424      0.0001
     66  N         63.7150   65.4390   81.1470 N.am  425  ASN425     -0.1972
     67  CA        62.6740   66.3280   80.6380 C.3   425  ASN425      0.1688
     68  C         61.3080   65.9400   81.1880 C.2   425  ASN425      0.2292
     69  O         60.7620   64.8880   80.8340 O.2   425  ASN425     -0.2864
     70  CB        62.6750   66.2820   79.1120 C.3   425  ASN425      0.1181
     71  CG        61.7920   67.3290   78.4990 C.2   425  ASN425      0.2629
     72  OD1       60.9100   67.8530   79.1510 O.2   425  ASN425     -0.2716
     73  ND2       62.0090   67.6370   77.2360 N.am  425  ASN425     -0.0877
     74  N         72.5350   67.5540   85.4260 N.3   446  ARG446     -0.1231
     75  CA        73.0520   68.7380   84.7560 C.3   446  ARG446      0.1694
     76  C         71.9220   69.5540   84.0810 C.2   446  ARG446      0.2592
     77  O         71.9720   70.7930   84.0250 O.2   446  ARG446     -0.2718
     78  CB        74.1010   68.2880   83.7360 C.3   446  ARG446      0.0321
     79  CG        74.7750   69.3910   82.9060 C.3   446  ARG446      0.0489
     80  CD        74.8050   69.0070   81.4250 C.3   446  ARG446      0.2205
     81  NE        75.2550   67.6160   81.2600 N.pl3 446  ARG446     -0.0865
     82  CZ        74.8870   66.7790   80.2860 C.cat 446  ARG446      0.5346
     83  NH1       74.0530   67.1460   79.3090 N.pl3 446  ARG446      0.1354
     84  NH2       75.3750   65.5450   80.2970 N.pl3 446  ARG446      0.1354
     85  N         70.8800   68.8670   83.6200 N.am  447  HIS447     -0.1976
     86  CA        69.8990   69.4690   82.7260 C.3   447  HIS447      0.1656
     87  C         68.4850   69.0170   83.1170 C.2   447  HIS447      0.2291
     88  O         68.1340   67.8420   82.9710 O.2   447  HIS447     -0.2864
     89  CB        70.2600   69.0650   81.2870 C.3   447  HIS447      0.0771
     90  CG        69.3540   69.6270   80.2250 C.ar  447  HIS447      0.0820
     91  ND1       68.3480   70.5340   80.4870 N.ar  447  HIS447     -0.2267
     92  CD2       69.3390   69.4290   78.8840 C.ar  447  HIS447      0.1154
     93  CE1       67.7400   70.8480   79.3580 C.ar  447  HIS447      0.1986
     94  NE2       68.3190   70.1900   78.3710 N.ar  447  HIS447     -0.2212
     95  N         64.2590   70.0110   82.7540 N.3   449  ASN449     -0.1240
     96  CA        63.2120   70.7570   82.0790 C.3   449  ASN449      0.1653
     97  C         61.8880   70.5830   82.8240 C.2   449  ASN449      0.2266
     98  O         61.2580   69.5180   82.7240 O.2   449  ASN449     -0.2867
     99  CB        63.0930   70.2390   80.6470 C.3   449  ASN449      0.1155
    100  CG        62.2880   71.1620   79.7370 C.2   449  ASN449      0.2627
    101  OD1       61.2060   71.6530   80.0930 O.2   449  ASN449     -0.2716
    102  ND2       62.8070   71.3660   78.5320 N.am  449  ASN449     -0.0877
    103  N         71.6520   73.7850   83.3740 N.3   474  ILE474     -0.1245
    104  CA        70.4900   74.2590   82.6330 C.3   474  ILE474      0.1561
    105  C         69.2330   73.9970   83.4160 C.2   474  ILE474      0.2260
    106  O         68.9870   72.8580   83.8230 O.2   474  ILE474     -0.2867
    107  CB        70.3160   73.4980   81.3230 C.3   474  ILE474      0.0252
    108  CG1       71.5800   73.5950   80.4550 C.3   474  ILE474      0.0019
    109  CG2       69.0560   74.0070   80.5910 C.3   474  ILE474      0.0019
    110  CD1       71.6610   72.5090   79.3690 C.3   474  ILE474      0.0001
@<TRIPOS>BOND
     1    18    17    1
     2    17    15   ar
     3    17    16   ar
     4    15    13   ar
     5    16    14   ar
     6    13    12   ar
     7    14    12   ar
     8    12    11    1
     9    11     8    1
    10    10     9    2
    11     6     5    1
    12     4     3    2
    13     8     9    1
    14     8     7    1
    15     3     7   am
    16     3     2    1
    17    34    32   ar
    18     5     2    1
    19    49    50   ar
    20    49    47   ar
    21    50    48   ar
    22    47    45   ar
    23    48    46   ar
    24     2     1    1
    25    45    46   ar
    26    45    44    1
    27    26    24    1
    28    44    41    1
    29    32    33   ar
    30    32    31    1
    31    38    37    2
    32    31    28    1
    33    24    25    1
    34    24    23    1
    35    39    36    1
    36    73    71   am
    37    43    42    2
    38    37    36    1
    39    37    40   am
    40    41    42    1
    41    41    40    1
    42    23    20    1
    43    30    29    2
    44    36    35    1
    45    94    92   ar
    46    94    93   ar
    47    28    29    1
    48    28    27    1
    49    71    70    1
    50    71    72    2
    51   102   100   am
    52    22    21    2
    53    92    90   ar
    54    56    55    1
    55    70    67    1
    56    83    82    1
    57    20    21    1
    58    20    19    1
    59    93    91   ar
    60   110   108    1
    61    57    55    1
    62   100   101    2
    63   100    99    1
    64    55    52    1
    65    90    91   ar
    66    90    89    1
    67    82    84    1
    68    82    81    2
    69   108   107    1
    70   109   107    1
    71    67    66    1
    72    67    68    1
    73    99    96    1
    74    69    68    2
    75    66    60   am
    76    54    53    2
    77    81    80    1
    78    52    53    1
    79    52    51    1
    80    89    86    1
    81   107   104    1
    82    80    79    1
    83    53    58   am
    84    60    61    2
    85    60    59    1
    86    96    95    1
    87    96    97    1
    88    58    59    1
    89    59    62    1
    90   104   103    1
    91   104   105    1
    92    98    97    2
    93    86    87    1
    94    86    85    1
    95    79    78    1
    96    88    87    2
    97   105   106    2
    98    85    76   am
    99    78    75    1
   100    62    63    1
   101    77    76    2
   102    76    75    1
   103    64    63    1
   104    63    65    1
   105    75    74    1
