@<TRIPOS>MOLECULE
tmp/3rg1N00.pdb
 137 135 0 0 0
SMALL
GASTEIGER

@<TRIPOS>ATOM
      1  N         64.7370   -5.1970   32.6350 N.3    55  GLN55      -0.1245
      2  CA        63.9250   -5.3310   31.4340 C.3    55  GLN55       0.1566
      3  C         62.7660   -6.3100   31.7000 C.2    55  GLN55       0.2260
      4  O         62.9810   -7.4370   32.1810 O.2    55  GLN55      -0.2867
      5  CB        64.7730   -5.8530   30.2990 C.3    55  GLN55       0.0367
      6  CG        65.9240   -4.9330   29.9490 C.3    55  GLN55       0.0905
      7  CD        66.6700   -5.3920   28.7320 C.2    55  GLN55       0.2608
      8  OE1       67.7470   -5.9470   28.8530 O.2    55  GLN55      -0.2717
      9  NE2       66.0960   -5.1780   27.5490 N.am   55  GLN55      -0.0878
     10  N         58.7110   -7.4460   30.1810 N.3    57  PHE57      -0.1241
     11  CA        57.7090   -7.3420   29.1230 C.3    57  PHE57       0.1605
     12  C         56.4700   -8.1720   29.4600 C.2    57  PHE57       0.2264
     13  O         56.5650   -9.2000   30.1400 O.2    57  PHE57      -0.2867
     14  CB        58.3240   -7.7950   27.8060 C.3    57  PHE57       0.0534
     15  CG        59.6220   -7.1230   27.5010 C.ar   57  PHE57      -0.0203
     16  CD1       59.6420   -5.9200   26.8290 C.ar   57  PHE57      -0.0042
     17  CD2       60.8210   -7.6790   27.9110 C.ar   57  PHE57      -0.0042
     18  CE1       60.8400   -5.2760   26.5590 C.ar   57  PHE57      -0.0003
     19  CE2       62.0230   -7.0480   27.6430 C.ar   57  PHE57      -0.0003
     20  CZ        62.0330   -5.8400   26.9690 C.ar   57  PHE57      -0.0000
     21  N         53.0660  -10.1180   27.8390 N.3    59  ASP59      -0.1239
     22  CA        52.3650  -10.6720   26.6950 C.3    59  ASP59       0.1674
     23  C         50.9650  -11.0180   27.1390 C.2    59  ASP59       0.2266
     24  O         50.7820  -11.6340   28.1920 O.2    59  ASP59      -0.2867
     25  CB        53.0640  -11.9260   26.2000 C.3    59  ASP59       0.1410
     26  CG        54.0920  -11.6270   25.1740 C.2    59  ASP59       0.3668
     27  OD1       54.5750  -12.5700   24.5230 O.co2  59  ASP59      -0.2456
     28  OD2       54.4340  -10.4370   25.0230 O.co2  59  ASP59      -0.2456
     29  N         48.7340   -9.1390   22.1270 N.3    72  PHE72      -0.1227
     30  CA        49.6880   -8.0260   22.1100 C.3    72  PHE72       0.1736
     31  C         50.7880   -8.1750   23.1520 C.2    72  PHE72       0.2596
     32  O         50.6930   -9.0080   24.0430 O.2    72  PHE72      -0.2718
     33  CB        48.9800   -6.6760   22.2460 C.3    72  PHE72       0.0547
     34  CG        48.3830   -6.4600   23.5740 C.ar   72  PHE72      -0.0202
     35  CD1       47.0700   -6.8430   23.8240 C.ar   72  PHE72      -0.0042
     36  CD2       49.1320   -5.8930   24.5960 C.ar   72  PHE72      -0.0042
     37  CE1       46.5000   -6.6660   25.0860 C.ar   72  PHE72      -0.0003
     38  CE2       48.5760   -5.7070   25.8650 C.ar   72  PHE72      -0.0003
     39  CZ        47.2560   -6.1010   26.1150 C.ar   72  PHE72      -0.0000
     40  N         51.8400   -7.3650   22.9800 N.am   73  SER73      -0.1938
     41  CA        52.9850   -7.3100   23.8860 C.3    73  SER73       0.2055
     42  C         53.2440   -5.8640   24.2370 C.2    73  SER73       0.2643
     43  O         53.1550   -5.0210   23.3900 O.2    73  SER73      -0.2714
     44  CB        54.2370   -7.8800   23.2400 C.3    73  SER73       0.2130
     45  OG        54.0530   -9.2100   22.8080 O.3    73  SER73      -0.2179
     46  N         53.5460   -5.5950   25.5000 N.am   74  TYR74      -0.1960
     47  CA        53.7830   -4.2460   25.9990 C.3    74  TYR74       0.1756
     48  C         54.9630   -4.3080   26.9600 C.2    74  TYR74       0.2461
     49  O         55.0400   -5.2210   27.7730 O.2    74  TYR74      -0.2730
     50  CB        52.5360   -3.7250   26.7370 C.3    74  TYR74       0.0574
     51  CG        52.5930   -2.2450   27.1070 C.ar   74  TYR74      -0.0198
     52  CD1       52.6150   -1.2640   26.1180 C.ar   74  TYR74      -0.0009
     53  CD2       52.6070   -1.8300   28.4500 C.ar   74  TYR74      -0.0009
     54  CE1       52.6550    0.0910   26.4380 C.ar   74  TYR74       0.0417
     55  CE2       52.6440   -0.4710   28.7880 C.ar   74  TYR74       0.0417
     56  CZ        52.6720    0.4920   27.7680 C.ar   74  TYR74       0.1957
     57  OH        52.7220    1.8510   28.0690 O.3    74  TYR74      -0.2866
     58  N         55.8890   -3.3430   26.8750 N.am   75  PRO75      -0.2727
     59  CA        56.9870   -3.3700   27.8140 C.3    75  PRO75       0.1402
     60  C         56.6270   -2.6750   29.1020 C.2    75  PRO75       0.2269
     61  O         56.0640   -1.5880   29.0650 O.2    75  PRO75      -0.2865
     62  CB        58.1060   -2.6180   27.0830 C.3    75  PRO75       0.0296
     63  CG        57.4790   -1.8590   26.0530 C.3    75  PRO75       0.0237
     64  CD        56.0480   -2.2720   25.8910 C.3    75  PRO75       0.0939
     65  N         62.0620   -1.0400   30.6370 N.3    78  GLU78      -0.1245
     66  CA        63.0830   -1.0730   29.6090 C.3    78  GLU78       0.1567
     67  C         64.3060   -0.3240   30.1480 C.2    78  GLU78       0.2260
     68  O         64.1540    0.5480   30.9980 O.2    78  GLU78      -0.2867
     69  CB        62.5740   -0.4010   28.3160 C.3    78  GLU78       0.0388
     70  CG        61.2170   -0.8810   27.7830 C.3    78  GLU78       0.1160
     71  CD        60.9560   -0.4480   26.3390 C.2    78  GLU78       0.3649
     72  OE1       60.1730    0.5020   26.1060 O.co2  78  GLU78      -0.2457
     73  OE2       61.5420   -1.0580   25.4260 O.co2  78  GLU78      -0.2457
     74  N         63.7990    3.2140   29.9080 N.3    81  LEU81      -0.1245
     75  CA        62.5050    3.7010   30.4320 C.3    81  LEU81       0.1561
     76  C         61.8630    2.7700   31.4660 C.2    81  LEU81       0.2260
     77  O         61.0140    1.9450   31.1270 O.2    81  LEU81      -0.2867
     78  CB        61.5050    3.9500   29.2930 C.3    81  LEU81       0.0270
     79  CG        60.0690    4.3390   29.6860 C.3    81  LEU81       0.0019
     80  CD1       60.0770    5.4440   30.7200 C.3    81  LEU81       0.0001
     81  CD2       59.2640    4.7600   28.4690 C.3    81  LEU81       0.0001
     82  N         59.1560    2.3180   33.7960 N.3    83  LYS83      -0.1245
     83  CA        57.8590    2.9760   33.9160 C.3    83  LYS83       0.1561
     84  C         57.3860    2.9500   35.3400 C.2    83  LYS83       0.2260
     85  O         56.6000    3.7950   35.7380 O.2    83  LYS83      -0.2867
     86  CB        56.8190    2.3060   33.0120 C.3    83  LYS83       0.0271
     87  CG        57.2120    2.3050   31.5580 C.3    83  LYS83       0.0035
     88  CD        56.0680    1.9840   30.6370 C.3    83  LYS83       0.0206
     89  CE        56.5860    1.7730   29.2410 C.3    83  LYS83       0.1093
     90  NZ        55.5250    1.2030   28.4140 N.3    83  LYS83      -0.1314
     91  N         57.8470  -11.5650   31.3420 N.3   120  TYR120     -0.1227
     92  CA        59.1460  -12.1590   31.0820 C.3   120  TYR120      0.1736
     93  C         60.1950  -11.0960   30.8560 C.2   120  TYR120      0.2595
     94  O         59.8480   -9.9700   30.5280 O.2   120  TYR120     -0.2718
     95  CB        59.0580  -13.0700   29.8550 C.3   120  TYR120      0.0548
     96  CG        58.5230  -12.4060   28.6080 C.ar  120  TYR120     -0.0200
     97  CD1       57.1570  -12.3000   28.3680 C.ar  120  TYR120     -0.0009
     98  CD2       59.3960  -11.8720   27.6630 C.ar  120  TYR120     -0.0009
     99  CE1       56.6780  -11.6740   27.2150 C.ar  120  TYR120      0.0417
    100  CE2       58.9270  -11.2360   26.5120 C.ar  120  TYR120      0.0417
    101  CZ        57.5640  -11.1390   26.2950 C.ar  120  TYR120      0.1957
    102  OH        57.1130  -10.5220   25.1580 O.3   120  TYR120     -0.2866
    103  N         61.4730  -11.4530   31.0100 N.am  121  ASN121     -0.1960
    104  CA        62.5630  -10.4970   30.8180 C.3   121  ASN121      0.1819
    105  C         63.2450  -10.6660   29.4630 C.2   121  ASN121      0.2621
    106  O         62.7850  -11.4220   28.6160 O.2   121  ASN121     -0.2715
    107  CB        63.5710  -10.5740   31.9750 C.3   121  ASN121      0.1195
    108  CG        64.4250  -11.8280   31.9510 C.2   121  ASN121      0.2630
    109  OD1       64.4740  -12.5630   30.9610 O.2   121  ASN121     -0.2716
    110  ND2       65.1170  -12.0710   33.0480 N.am  121  ASN121     -0.0877
    111  N         64.3530   -9.9650   29.2550 N.am  122  GLN122     -0.1963
    112  CA        64.9800   -9.9470   27.9400 C.3   122  GLN122      0.1733
    113  C         65.4300  -11.3330   27.4710 C.2   122  GLN122      0.2616
    114  O         65.5310  -11.5690   26.2650 O.2   122  GLN122     -0.2715
    115  CB        66.1490   -8.9550   27.8980 C.3   122  GLN122      0.0408
    116  CG        67.4380   -9.4040   28.5810 C.3   122  GLN122      0.0908
    117  CD        67.4110   -9.1580   30.0570 C.2   122  GLN122      0.2608
    118  OE1       66.3610   -9.2340   30.7080 O.2   122  GLN122     -0.2717
    119  NE2       68.5700   -8.8390   30.6020 N.am  122  GLN122     -0.0878
    120  N         65.7050  -12.2380   28.4140 N.am  123  ASP123     -0.1957
    121  CA        66.1710  -13.5850   28.0670 C.3   123  ASP123      0.1840
    122  C         65.0270  -14.5440   28.0340 C.2   123  ASP123      0.2622
    123  O         65.2360  -15.7470   28.1240 O.2   123  ASP123     -0.2715
    124  CB        67.2410  -14.0850   29.0470 C.3   123  ASP123      0.1450
    125  CG        68.5120  -13.2330   29.0140 C.2   123  ASP123      0.3671
    126  OD1       69.1110  -13.0150   30.0850 O.co2 123  ASP123     -0.2456
    127  OD2       68.9050  -12.7590   27.9250 O.co2 123  ASP123     -0.2456
    128  N         63.8190  -14.0040   27.8830 N.am  124  HIS124     -0.1973
    129  CA        62.5950  -14.7990   27.8270 C.3   124  HIS124      0.1656
    130  C         62.4430  -15.7000   29.0580 C.2   124  HIS124      0.2291
    131  O         61.8000  -16.7340   28.9760 O.2   124  HIS124     -0.2864
    132  CB        62.5620  -15.6550   26.5560 C.3   124  HIS124      0.0771
    133  CG        62.5600  -14.8740   25.2820 C.ar  124  HIS124      0.0820
    134  ND1       62.9130  -13.5440   25.2150 N.ar  124  HIS124     -0.2267
    135  CD2       62.2930  -15.2550   24.0090 C.ar  124  HIS124      0.1154
    136  CE1       62.8460  -13.1330   23.9600 C.ar  124  HIS124      0.1986
    137  NE2       62.4650  -14.1510   23.2100 N.ar  124  HIS124     -0.2212
@<TRIPOS>BOND
     1    30    29    1
     2    30    33    1
     3    30    31    1
     4    33    34    1
     5    45    44    1
     6    40    31   am
     7    40    41    1
     8    31    32    2
     9   137   136   ar
    10   137   135   ar
    11    44    41    1
    12    43    42    2
    13    34    35   ar
    14    34    36   ar
    15    35    37   ar
    16    41    42    1
    17   136   134   ar
    18   135   133   ar
    19    42    46   am
    20    27    26   ar
    21    36    38   ar
    22    28    26   ar
    23    37    39   ar
    24   102   101    1
    25    26    25    1
    26   134   133   ar
    27   133   132    1
    28    73    71   ar
    29    46    47    1
    30    38    39   ar
    31    64    63    1
    32    64    58    1
    33    47    50    1
    34    47    48    1
    35    63    62    1
    36    72    71   ar
    37    52    54   ar
    38    52    51   ar
    39    25    22    1
    40   114   113    2
    41   101   100   ar
    42   101    99   ar
    43    71    70    1
    44    54    56   ar
    45   100    98   ar
    46   132   129    1
    47    18    16   ar
    48    18    20   ar
    49    22    23    1
    50    22    21    1
    51    50    51    1
    52    16    15   ar
    53    58    48   am
    54    58    59    1
    55    48    49    2
    56    20    19   ar
    57    62    59    1
    58    51    53   ar
    59    23    24    2
    60    99    97   ar
    61   113   112    1
    62   113   120   am
    63    15    14    1
    64    15    17   ar
    65     9     7   am
    66    19    17   ar
    67    98    96   ar
    68    56    57    1
    69    56    55   ar
    70    70    69    1
    71    14    11    1
    72    59    60    1
    73   129   128    1
    74   129   130    1
    75   128   122   am
    76   115   112    1
    77   115   116    1
    78   127   125   ar
    79   112   111    1
    80   122   121    1
    81   122   123    2
    82   121   120    1
    83   121   124    1
    84    69    66    1
    85    97    96   ar
    86    90    89    1
    87    53    55   ar
    88    81    79    1
    89   116   117    1
    90    96    95    1
    91   106   105    2
    92     7     8    2
    93     7     6    1
    94   131   130    2
    95   125   124    1
    96   125   126   ar
    97    61    60    2
    98    11    12    1
    99    11    10    1
   100    89    88    1
   101   111   105   am
   102    78    79    1
   103    78    75    1
   104    12    13    2
   105   105   104    1
   106    66    67    1
   107    66    65    1
   108    79    80    1
   109    95    92    1
   110    74    75    1
   111     6     5    1
   112   117   119   am
   113   117   118    2
   114    67    68    2
   115     5     2    1
   116    75    76    1
   117    94    93    2
   118    88    87    1
   119   104   103    1
   120   104   107    1
   121    93   103   am
   122    93    92    1
   123   109   108    2
   124    92    91    1
   125    77    76    2
   126     2     3    1
   127     2     1    1
   128    87    86    1
   129     3     4    2
   130   108   107    1
   131   108   110   am
   132    86    83    1
   133    82    83    1
   134    83    84    1
   135    84    85    2
