@<TRIPOS>MOLECULE
tmp/3rg1N01.pdb
 243 229 0 0 0
SMALL
GASTEIGER

@<TRIPOS>ATOM
      1  N         51.4000  -16.5900   42.9590 N.3    26  PHE26      -0.1241
      2  CA        51.5110  -15.1840   43.3050 C.3    26  PHE26       0.1605
      3  C         50.1500  -14.6150   43.6190 C.2    26  PHE26       0.2264
      4  O         49.1080  -15.1970   43.2520 O.2    26  PHE26      -0.2867
      5  CB        52.1220  -14.3840   42.1870 C.3    26  PHE26       0.0534
      6  CG        51.2170  -14.2140   41.0220 C.ar   26  PHE26      -0.0203
      7  CD1       50.4310  -13.0950   40.9010 C.ar   26  PHE26      -0.0042
      8  CD2       51.1430  -15.1950   40.0540 C.ar   26  PHE26      -0.0042
      9  CE1       49.6020  -12.9470   39.8340 C.ar   26  PHE26      -0.0003
     10  CE2       50.3160  -15.0510   38.9670 C.ar   26  PHE26      -0.0003
     11  CZ        49.5380  -13.9280   38.8580 C.ar   26  PHE26      -0.0000
     12  N         47.3800  -11.5720   43.4600 N.3    28  PHE28      -0.1241
     13  CA        46.8810  -10.4930   42.6330 C.3    28  PHE28       0.1605
     14  C         45.4250  -10.1830   42.9280 C.2    28  PHE28       0.2264
     15  O         44.6110  -11.0780   43.1850 O.2    28  PHE28      -0.2867
     16  CB        47.0160  -10.8720   41.1700 C.3    28  PHE28       0.0534
     17  CG        46.4550   -9.8500   40.2150 C.ar   28  PHE28      -0.0203
     18  CD1       47.2170   -8.7880   39.8020 C.ar   28  PHE28      -0.0042
     19  CD2       45.1800   -9.9730   39.7200 C.ar   28  PHE28      -0.0042
     20  CE1       46.7090   -7.8590   38.9220 C.ar   28  PHE28      -0.0003
     21  CE2       44.6750   -9.0500   38.8400 C.ar   28  PHE28      -0.0003
     22  CZ        45.4370   -7.9950   38.4430 C.ar   28  PHE28      -0.0000
     23  N         45.8230   -1.8050   40.8470 N.3    43  ILE43      -0.1245
     24  CA        45.9820   -3.2260   41.1800 C.3    43  ILE43       0.1561
     25  C         46.7660   -3.4510   42.4790 C.2    43  ILE43       0.2260
     26  O         47.2600   -2.4910   43.0850 O.2    43  ILE43      -0.2867
     27  CB        46.6480   -4.0180   40.0370 C.3    43  ILE43       0.0252
     28  CG1       48.0610   -3.5380   39.7970 C.3    43  ILE43       0.0019
     29  CG2       45.8650   -3.8770   38.7730 C.3    43  ILE43       0.0019
     30  CD1       48.8150   -4.4270   38.8480 C.3    43  ILE43       0.0001
     31  N         49.5370   -6.6300   44.0690 N.3    45  PHE45      -0.1241
     32  CA        50.3820   -7.6650   43.5420 C.3    45  PHE45       0.1605
     33  C         51.4340   -8.0670   44.5620 C.2    45  PHE45       0.2264
     34  O         52.0580   -7.2080   45.1820 O.2    45  PHE45      -0.2867
     35  CB        51.0700   -7.1400   42.2970 C.3    45  PHE45       0.0534
     36  CG        51.8260   -8.1840   41.5630 C.ar   45  PHE45      -0.0203
     37  CD1       51.1400   -9.1890   40.8650 C.ar   45  PHE45      -0.0042
     38  CD2       53.2140   -8.2010   41.5830 C.ar   45  PHE45      -0.0042
     39  CE1       51.8320  -10.2070   40.1660 C.ar   45  PHE45      -0.0003
     40  CE2       53.9230   -9.2240   40.8940 C.ar   45  PHE45      -0.0003
     41  CZ        53.2210  -10.2240   40.1800 C.ar   45  PHE45      -0.0000
     42  N         54.5900  -11.0780   45.2000 N.3    47  MET47      -0.1245
     43  CA        55.3910  -12.0990   44.5710 C.3    47  MET47       0.1570
     44  C         56.8370  -11.9770   45.0260 C.2    47  MET47       0.2261
     45  O         57.2730  -10.9010   45.4760 O.2    47  MET47      -0.2867
     46  CB        55.3120  -11.9000   43.0580 C.3    47  MET47       0.0387
     47  CG        55.7870  -13.0750   42.2130 C.3    47  MET47       0.0595
     48  SD        56.0540  -12.5600   40.4840 S.3    47  MET47      -0.1393
     49  CE        56.8340  -10.9440   40.6630 C.3    47  MET47       0.0692
     50  N         60.5390  -12.3440   43.2790 N.3    49  LEU49      -0.1245
     51  CA        61.1740  -12.3890   41.9580 C.3    49  LEU49       0.1561
     52  C         62.2100  -13.5070   41.8410 C.2    49  LEU49       0.2260
     53  O         63.0300  -13.7270   42.7340 O.2    49  LEU49      -0.2867
     54  CB        61.8340  -11.0460   41.6470 C.3    49  LEU49       0.0270
     55  CG        60.8610   -9.8740   41.4270 C.3    49  LEU49       0.0019
     56  CD1       61.6050   -8.5380   41.4060 C.3    49  LEU49       0.0001
     57  CD2       60.0430  -10.0270   40.1490 C.3    49  LEU49       0.0001
     58  N         64.5700   -7.7720   36.7870 N.3    53  ILE53      -0.1245
     59  CA        63.5420   -7.1480   35.9690 C.3    53  ILE53       0.1561
     60  C         63.8700   -5.7200   35.5710 C.2    53  ILE53       0.2260
     61  O         62.9730   -4.9020   35.4230 O.2    53  ILE53      -0.2867
     62  CB        62.1520   -7.2330   36.6400 C.3    53  ILE53       0.0252
     63  CG1       62.1220   -6.4960   37.9830 C.3    53  ILE53       0.0019
     64  CG2       61.7760   -8.6750   36.8290 C.3    53  ILE53       0.0019
     65  CD1       60.6980   -6.2280   38.4980 C.3    53  ILE53       0.0001
     66  N         61.5380   -5.8870   31.4070 N.3    56  LEU56      -0.1245
     67  CA        60.3680   -6.6830   31.7300 C.3    56  LEU56       0.1561
     68  C         59.2900   -6.3870   30.7350 C.2    56  LEU56       0.2260
     69  O         58.9570   -5.2300   30.5090 O.2    56  LEU56      -0.2867
     70  CB        59.8560   -6.3510   33.1300 C.3    56  LEU56       0.0270
     71  CG        58.6150   -7.1060   33.6750 C.3    56  LEU56       0.0019
     72  CD1       58.8740   -8.5930   33.8180 C.3    56  LEU56       0.0001
     73  CD2       58.1970   -6.5300   35.0250 C.3    56  LEU56       0.0001
     74  N         55.3170   -7.6910   28.9990 N.3    58  LEU58      -0.1245
     75  CA        54.0370   -8.3680   29.1970 C.3    58  LEU58       0.1561
     76  C         53.4570   -8.8540   27.8780 C.2    58  LEU58       0.2260
     77  O         53.3470   -8.0990   26.9230 O.2    58  LEU58      -0.2867
     78  CB        53.0220   -7.4210   29.8440 C.3    58  LEU58       0.0270
     79  CG        51.6070   -7.9920   30.0770 C.3    58  LEU58       0.0019
     80  CD1       51.6840   -9.1340   31.0800 C.3    58  LEU58       0.0001
     81  CD2       50.6400   -6.9040   30.5360 C.3    58  LEU58       0.0001
     82  N         49.9810  -10.6060   26.3450 N.3    60  VAL60      -0.1245
     83  CA        48.5850  -10.8800   26.6330 C.3    60  VAL60       0.1561
     84  C         47.9590  -11.5620   25.4220 C.2    60  VAL60       0.2260
     85  O         48.0640  -11.0700   24.3020 O.2    60  VAL60      -0.2867
     86  CB        47.8100   -9.5780   26.9660 C.3    60  VAL60       0.0252
     87  CG1       46.3500   -9.8810   27.2800 C.3    60  VAL60       0.0019
     88  CG2       48.4500   -8.8670   28.1560 C.3    60  VAL60       0.0019
     89  N         42.6490  -11.6930   20.3020 N.3    70  LEU70      -0.1245
     90  CA        43.6520  -10.6240   20.2420 C.3    70  LEU70       0.1561
     91  C         44.9500  -11.0470   20.9530 C.2    70  LEU70       0.2260
     92  O         44.9200  -11.7320   21.9790 O.2    70  LEU70      -0.2867
     93  CB        43.0910   -9.3320   20.8540 C.3    70  LEU70       0.0270
     94  CG        43.9550   -8.0810   20.7990 C.3    70  LEU70       0.0019
     95  CD1       44.0420   -7.5390   19.3780 C.3    70  LEU70       0.0001
     96  CD2       43.4080   -7.0090   21.7390 C.3    70  LEU70       0.0001
     97  N         48.7340   -9.1390   22.1270 N.3    72  PHE72      -0.1241
     98  CA        49.6880   -8.0260   22.1100 C.3    72  PHE72       0.1605
     99  C         50.7880   -8.1750   23.1520 C.2    72  PHE72       0.2264
    100  O         50.6930   -9.0080   24.0430 O.2    72  PHE72      -0.2867
    101  CB        48.9800   -6.6760   22.2460 C.3    72  PHE72       0.0534
    102  CG        48.3830   -6.4600   23.5740 C.ar   72  PHE72      -0.0203
    103  CD1       47.0700   -6.8430   23.8240 C.ar   72  PHE72      -0.0042
    104  CD2       49.1320   -5.8930   24.5960 C.ar   72  PHE72      -0.0042
    105  CE1       46.5000   -6.6660   25.0860 C.ar   72  PHE72      -0.0003
    106  CE2       48.5760   -5.7070   25.8650 C.ar   72  PHE72      -0.0003
    107  CZ        47.2560   -6.1010   26.1150 C.ar   72  PHE72      -0.0000
    108  N         53.5460   -5.5950   25.5000 N.3    74  TYR74      -0.1241
    109  CA        53.7830   -4.2460   25.9990 C.3    74  TYR74       0.1605
    110  C         54.9630   -4.3080   26.9600 C.2    74  TYR74       0.2264
    111  O         55.0400   -5.2210   27.7730 O.2    74  TYR74      -0.2867
    112  CB        52.5360   -3.7250   26.7370 C.3    74  TYR74       0.0534
    113  CG        52.5930   -2.2450   27.1070 C.ar   74  TYR74      -0.0201
    114  CD1       52.6150   -1.2640   26.1180 C.ar   74  TYR74      -0.0009
    115  CD2       52.6070   -1.8300   28.4500 C.ar   74  TYR74      -0.0009
    116  CE1       52.6550    0.0910   26.4380 C.ar   74  TYR74       0.0417
    117  CE2       52.6440   -0.4710   28.7880 C.ar   74  TYR74       0.0417
    118  CZ        52.6720    0.4920   27.7680 C.ar   74  TYR74       0.1957
    119  OH        52.7220    1.8510   28.0690 O.3    74  TYR74      -0.2866
    120  N         56.9490   -3.3110   30.2260 N.3    76  VAL76      -0.1245
    121  CA        56.7140   -2.7410   31.5430 C.3    76  VAL76       0.1561
    122  C         57.9620   -2.0100   32.0140 C.2    76  VAL76       0.2260
    123  O         57.8680   -0.9090   32.5540 O.2    76  VAL76      -0.2867
    124  CB        56.3470   -3.8180   32.5740 C.3    76  VAL76       0.0252
    125  CG1       56.1830   -3.2010   33.9360 C.3    76  VAL76       0.0019
    126  CG2       55.0790   -4.5330   32.1700 C.3    76  VAL76       0.0019
    127  N         57.8780    1.9840   36.1010 N.3    84  PHE84      -0.1241
    128  CA        57.3770    1.7370   37.4340 C.3    84  PHE84       0.1605
    129  C         58.5080    1.7940   38.4430 C.2    84  PHE84       0.2264
    130  O         59.6760    1.6190   38.0920 O.2    84  PHE84      -0.2867
    131  CB        56.6890    0.3860   37.4550 C.3    84  PHE84       0.0534
    132  CG        55.3630    0.3760   36.7540 C.ar   84  PHE84      -0.0203
    133  CD1       54.1960    0.6400   37.4580 C.ar   84  PHE84      -0.0042
    134  CD2       55.2780    0.0790   35.4120 C.ar   84  PHE84      -0.0042
    135  CE1       52.9700    0.6070   36.8430 C.ar   84  PHE84      -0.0003
    136  CE2       54.0580    0.0430   34.7830 C.ar   84  PHE84      -0.0003
    137  CZ        52.8910    0.3020   35.5100 C.ar   84  PHE84      -0.0000
    138  N         59.1960   -0.2650   40.7270 N.3    86  PHE86      -0.1241
    139  CA        59.7950   -1.5840   40.9320 C.3    86  PHE86       0.1605
    140  C         60.7530   -2.0370   39.8260 C.2    86  PHE86       0.2264
    141  O         61.3930   -3.0700   39.9510 O.2    86  PHE86      -0.2867
    142  CB        58.7200   -2.6500   41.2010 C.3    86  PHE86       0.0534
    143  CG        57.6370   -2.7050   40.1820 C.ar   86  PHE86      -0.0203
    144  CD1       56.3970   -2.1430   40.4430 C.ar   86  PHE86      -0.0042
    145  CD2       57.8340   -3.3480   38.9700 C.ar   86  PHE86      -0.0042
    146  CE1       55.3590   -2.2050   39.4990 C.ar   86  PHE86      -0.0003
    147  CE2       56.8060   -3.4120   38.0080 C.ar   86  PHE86      -0.0003
    148  CZ        55.5720   -2.8350   38.2740 C.ar   86  PHE86      -0.0000
    149  N         58.2700   -8.5250   46.3330 N.3    95  ILE95      -0.1245
    150  CA        57.5880   -7.2860   45.9220 C.3    95  ILE95       0.1561
    151  C         56.1630   -7.2230   46.4710 C.2    95  ILE95       0.2260
    152  O         55.4410   -8.2320   46.4510 O.2    95  ILE95      -0.2867
    153  CB        57.4810   -7.2000   44.4000 C.3    95  ILE95       0.0252
    154  CG1       58.8410   -7.0600   43.7640 C.3    95  ILE95       0.0019
    155  CG2       56.6670   -6.0210   43.9550 C.3    95  ILE95       0.0019
    156  CD1       58.7340   -7.1420   42.2790 C.3    95  ILE95       0.0001
    157  N         53.2770   -4.4590   45.3240 N.3    97  TYR97      -0.1241
    158  CA        52.8760   -3.2590   44.5990 C.3    97  TYR97       0.1605
    159  C         51.3760   -3.0210   44.7290 C.2    97  TYR97       0.2264
    160  O         50.5730   -3.8840   44.3740 O.2    97  TYR97      -0.2867
    161  CB        53.2140   -3.3830   43.1140 C.3    97  TYR97       0.0534
    162  CG        52.7700   -2.1900   42.3080 C.ar   97  TYR97      -0.0201
    163  CD1       51.5810   -2.2120   41.5790 C.ar   97  TYR97      -0.0009
    164  CD2       53.5240   -1.0370   42.2880 C.ar   97  TYR97      -0.0009
    165  CE1       51.1680   -1.1090   40.8370 C.ar   97  TYR97       0.0417
    166  CE2       53.1280    0.0750   41.5540 C.ar   97  TYR97       0.0417
    167  CZ        51.9480    0.0390   40.8410 C.ar   97  TYR97       0.1957
    168  OH        51.5620    1.1430   40.1260 O.3    97  TYR97      -0.2866
    169  N         48.1910    0.9300   37.0570 N.3   101  ILE101     -0.1231
    170  CA        48.8570    0.4950   35.8510 C.3   101  ILE101      0.1692
    171  C         48.4460    1.5020   34.8130 C.2   101  ILE101      0.2592
    172  O         47.4160    2.1610   34.9870 O.2   101  ILE101     -0.2718
    173  CB        48.4870   -0.9540   35.4800 C.3   101  ILE101      0.0266
    174  CG1       47.0150   -1.0920   35.1040 C.3   101  ILE101      0.0019
    175  CG2       48.7950   -1.8620   36.6400 C.3   101  ILE101      0.0020
    176  CD1       46.6170   -2.5000   34.8050 C.3   101  ILE101      0.0001
    177  N         49.2510    1.6480   33.7590 N.am  102  ASN102     -0.1960
    178  CA        49.0770    2.7800   32.8230 C.3   102  ASN102      0.1819
    179  C         48.1240    2.4750   31.6760 C.2   102  ASN102      0.2621
    180  O         48.3680    2.8760   30.5390 O.2   102  ASN102     -0.2715
    181  CB        50.4350    3.3230   32.2900 C.3   102  ASN102      0.1195
    182  CG        51.3070    2.2460   31.5840 C.2   102  ASN102      0.2630
    183  OD1       51.9830    1.4340   32.2280 O.2   102  ASN102     -0.2716
    184  ND2       51.3310    2.2930   30.2570 N.am  102  ASN102     -0.0877
    185  N         47.0240    1.7940   31.9770 N.am  103  ASN103     -0.1959
    186  CA        46.1030    1.3560   30.9280 C.3   103  ASN103      0.1804
    187  C         45.1830    2.4650   30.4450 C.2   103  ASN103      0.2463
    188  O         44.9330    3.4230   31.1740 O.2   103  ASN103     -0.2730
    189  CB        45.2580    0.1530   31.3760 C.3   103  ASN103      0.1195
    190  CG        44.3970    0.4610   32.5600 C.2   103  ASN103      0.2630
    191  OD1       44.8080    0.2440   33.6870 O.2   103  ASN103     -0.2716
    192  ND2       43.2070    0.9940   32.3190 N.am  103  ASN103     -0.0877
    193  N         44.6890    2.3260   29.2040 N.am  104  PRO104     -0.2727
    194  CA        43.6180    3.1150   28.6050 C.3   104  PRO104      0.1402
    195  C         42.2580    2.4180   28.8020 C.2   104  PRO104      0.2269
    196  O         42.2360    1.2280   29.0920 O.2   104  PRO104     -0.2865
    197  CB        44.0170    3.1440   27.1390 C.3   104  PRO104      0.0296
    198  CG        44.6530    1.8210   26.9230 C.3   104  PRO104      0.0237
    199  CD        45.3010    1.4190   28.2130 C.3   104  PRO104      0.0939
    200  N         39.1600    0.6350   28.0980 N.3   106  PHE106     -0.1241
    201  CA        38.2170   -0.2150   27.3770 C.3   106  PHE106      0.1605
    202  C         36.9380   -0.2980   28.1990 C.2   106  PHE106      0.2264
    203  O         36.9650   -0.1070   29.4110 O.2   106  PHE106     -0.2867
    204  CB        38.7930   -1.6220   27.1280 C.3   106  PHE106      0.0534
    205  CG        40.0010   -1.6920   26.1770 C.ar  106  PHE106     -0.0203
    206  CD1       40.2130   -0.6860   25.2580 C.ar  106  PHE106     -0.0042
    207  CD2       40.8280   -2.8110   26.2360 C.ar  106  PHE106     -0.0042
    208  CE1       41.2810   -0.8230   24.3950 C.ar  106  PHE106     -0.0003
    209  CE2       41.8860   -2.9340   25.3680 C.ar  106  PHE106     -0.0003
    210  CZ        42.0980   -1.9230   24.4460 C.ar  106  PHE106     -0.0000
    211  N         48.2100  -14.2900   30.5000 N.3   117  LEU117     -0.1245
    212  CA        49.1470  -13.1790   30.7140 C.3   117  LEU117      0.1561
    213  C         50.5300  -13.7490   31.0450 C.2   117  LEU117      0.2260
    214  O         50.6300  -14.7280   31.7920 O.2   117  LEU117     -0.2867
    215  CB        48.6380  -12.3040   31.8700 C.3   117  LEU117      0.0270
    216  CG        47.2940  -11.6000   31.6350 C.3   117  LEU117      0.0019
    217  CD1       46.5160  -11.4860   32.9030 C.3   117  LEU117      0.0001
    218  CD2       47.4820  -10.2310   31.0220 C.3   117  LEU117      0.0001
    219  N         54.5510  -12.4580   32.0800 N.3   119  LEU119     -0.1245
    220  CA        55.6080  -11.4870   32.3170 C.3   119  LEU119      0.1561
    221  C         56.9640  -12.1650   32.1380 C.2   119  LEU119      0.2260
    222  O         57.2060  -13.2140   32.7330 O.2   119  LEU119     -0.2867
    223  CB        55.5050  -10.9070   33.7310 C.3   119  LEU119      0.0270
    224  CG        54.5430   -9.7290   33.9260 C.3   119  LEU119      0.0019
    225  CD1       54.5180   -9.3450   35.3710 C.3   119  LEU119      0.0001
    226  CD2       54.9280   -8.5280   33.0510 C.3   119  LEU119      0.0001
    227  N         58.9910  -14.4480   34.5980 N.3   127  VAL127     -0.1231
    228  CA        58.8530  -13.7380   35.8540 C.3   127  VAL127      0.1692
    229  C         57.5140  -14.0860   36.4830 C.2   127  VAL127      0.2591
    230  O         57.4150  -14.2290   37.6940 O.2   127  VAL127     -0.2718
    231  CB        58.9090  -12.2210   35.6290 C.3   127  VAL127      0.0266
    232  CG1       58.6260  -11.4620   36.9210 C.3   127  VAL127      0.0020
    233  CG2       60.2720  -11.8260   35.0430 C.3   127  VAL127      0.0020
    234  N         56.4780  -14.1860   35.6580 N.am  128  ALA128     -0.1980
    235  CA        55.1310  -14.5190   36.1440 C.3   128  ALA128      0.1597
    236  C         54.2010  -14.9650   35.0050 C.2   128  ALA128      0.2287
    237  O         54.3520  -14.5380   33.8770 O.2   128  ALA128     -0.2864
    238  CB        54.5220  -13.3230   36.8910 C.3   128  ALA128      0.0319
    239  N         49.9130  -16.0590   34.3350 N.3   130  ALA130     -0.1245
    240  CA        48.5470  -16.2500   34.8390 C.3   130  ALA130      0.1562
    241  C         47.6200  -16.7900   33.7390 C.2   130  ALA130      0.2260
    242  O         47.5600  -16.2460   32.6320 O.2   130  ALA130     -0.2867
    243  CB        48.0000  -14.9410   35.4070 C.3   130  ALA130      0.0290
@<TRIPOS>BOND
     1    95    94    1
     2    90    89    1
     3    90    93    1
     4    90    91    1
     5    94    93    1
     6    94    96    1
     7    91    92    2
     8    98    97    1
     9    98   101    1
    10    98    99    1
    11   101   102    1
    12    99   100    2
    13   102   103   ar
    14   102   104   ar
    15   103   105   ar
    16    85    84    2
    17   208   210   ar
    18   208   206   ar
    19   210   209   ar
    20   104   106   ar
    21   105   107   ar
    22   206   205   ar
    23   209   207   ar
    24    84    83    1
    25   108   109    1
    26   106   107   ar
    27   109   112    1
    28   109   110    1
    29   114   116   ar
    30   114   113   ar
    31   205   207   ar
    32   205   204    1
    33    82    83    1
    34   116   118   ar
    35    83    86    1
    36   112   113    1
    37    77    76    2
    38   198   197    1
    39   198   199    1
    40   110   111    2
    41    86    87    1
    42    86    88    1
    43   113   115   ar
    44   204   201    1
    45   197   194    1
    46   201   200    1
    47   201   202    1
    48   118   119    1
    49   118   117   ar
    50    76    75    1
    51   202   203    2
    52   199   193    1
    53   115   117   ar
    54   194   195    1
    55   194   193    1
    56   195   196    2
    57    74    75    1
    58    75    78    1
    59   193   187   am
    60    78    79    1
    61    79    81    1
    62    79    80    1
    63   120   121    1
    64   184   182   am
    65   187   186    1
    66   187   188    2
    67   211   212    1
    68    69    68    2
    69   180   179    2
    70   212   213    1
    71   212   215    1
    72    68    67    1
    73   186   189    1
    74   186   185    1
    75   218   216    1
    76   213   214    2
    77   189   190    1
    78    66    67    1
    79   121   122    1
    80   121   124    1
    81   182   183    2
    82   182   181    1
    83   216   215    1
    84   216   217    1
    85   179   185   am
    86   179   178    1
    87    67    70    1
    88   122   123    2
    89   219   220    1
    90   221   220    1
    91   221   222    2
    92   126   124    1
    93   181   178    1
    94   220   223    1
    95   192   190   am
    96   190   191    2
    97   124   125    1
    98   242   241    2
    99   178   177    1
   100   226   224    1
   101    70    71    1
   102    71    72    1
   103    71    73    1
   104   223   224    1
   105   241   240    1
   106   177   171   am
   107   237   236    2
   108   224   225    1
   109   239   240    1
   110   227   228    1
   111   136   134   ar
   112   136   137   ar
   113   176   174    1
   114   171   172    2
   115   171   170    1
   116   240   243    1
   117   236   235    1
   118   233   231    1
   119   174   173    1
   120   134   132   ar
   121    61    60    2
   122   173   170    1
   123   173   175    1
   124   137   135   ar
   125    60    59    1
   126   231   228    1
   127   231   232    1
   128   234   235    1
   129   234   229   am
   130   170   169    1
   131   228   229    1
   132    59    62    1
   133    59    58    1
   134   127   128    1
   135   235   238    1
   136   229   230    2
   137    62    64    1
   138    62    63    1
   139   132   131    1
   140   132   133   ar
   141   135   133   ar
   142   128   131    1
   143   128   129    1
   144    63    65    1
   145   147   148   ar
   146   147   145   ar
   147   130   129    2
   148   148   146   ar
   149    22    21   ar
   150    22    20   ar
   151    29    27    1
   152    21    19   ar
   153    30    28    1
   154    11    10   ar
   155    11     9   ar
   156    20    18   ar
   157    10     8   ar
   158   145   143   ar
   159   146   144   ar
   160    19    17   ar
   161    28    27    1
   162    18    17   ar
   163   140   141    2
   164   140   139    1
   165     9     7   ar
   166    27    24    1
   167     8     6   ar
   168   168   167    1
   169    57    55    1
   170    39    41   ar
   171    39    37   ar
   172    41    40   ar
   173   143   144   ar
   174   143   142    1
   175    17    16    1
   176    48    49    1
   177    48    47    1
   178   138   139    1
   179   165   167   ar
   180   165   163   ar
   181   167   166   ar
   182    23    24    1
   183    37    36   ar
   184    40    38   ar
   185     7     6   ar
   186   139   142    1
   187     6     5    1
   188    16    13    1
   189    24    25    1
   190    56    55    1
   191    55    54    1
   192   166   164   ar
   193    36    38   ar
   194    36    35    1
   195   163   162   ar
   196    54    51    1
   197    52    51    1
   198    52    53    2
   199    51    50    1
   200     5     2    1
   201    47    46    1
   202   156   154    1
   203   164   162   ar
   204    35    32    1
   205   162   161    1
   206    25    26    2
   207    13    14    1
   208    13    12    1
   209    14    15    2
   210     1     2    1
   211    46    43    1
   212   161   158    1
   213     4     3    2
   214     2     3    1
   215    32    31    1
   216    32    33    1
   217   154   153    1
   218   155   153    1
   219   160   159    2
   220   153   150    1
   221    33    34    2
   222    43    44    1
   223    43    42    1
   224   158   159    1
   225   158   157    1
   226    44    45    2
   227   150   149    1
   228   150   151    1
   229   152   151    2
