@<TRIPOS>MOLECULE
tmp/3rg1F01.pdb
 107 102 0 0 0
SMALL
GASTEIGER

@<TRIPOS>ATOM
      1  N         58.2330   54.0410   68.1090 N.3   327  LYS327     -0.1231
      2  CA        57.5930   55.3570   68.2090 C.3   327  LYS327      0.1693
      3  C         56.3780   55.4550   67.2970 C.2   327  LYS327      0.2593
      4  O         56.3960   54.9980   66.1580 O.2   327  LYS327     -0.2718
      5  CB        58.6100   56.4640   67.8960 C.3   327  LYS327      0.0285
      6  CG        58.0580   57.7700   67.2920 C.3   327  LYS327      0.0035
      7  CD        59.1440   58.8870   67.3210 C.3   327  LYS327      0.0206
      8  CE        59.4150   59.5540   65.9470 C.3   327  LYS327      0.1093
      9  NZ        60.8560   59.9810   65.7720 N.3   327  LYS327     -0.1314
     10  N         55.3120   56.0360   67.8160 N.am  328  GLY328     -0.1942
     11  CA        54.1480   56.3290   67.0070 C.3   328  GLY328      0.2014
     12  C         53.2210   55.1640   66.7460 C.2   328  GLY328      0.2639
     13  O         52.5330   55.1410   65.7360 O.2   328  GLY328     -0.2714
     14  N         53.1750   54.2020   67.6590 N.am  329  ASN329     -0.1958
     15  CA        52.2390   53.0800   67.5330 C.3   329  ASN329      0.1819
     16  C         50.7990   53.5630   67.3830 C.2   329  ASN329      0.2621
     17  O         50.3860   54.5180   68.0380 O.2   329  ASN329     -0.2715
     18  CB        52.3250   52.1690   68.7540 C.3   329  ASN329      0.1195
     19  CG        51.8530   50.7630   68.4610 C.2   329  ASN329      0.2630
     20  OD1       52.3800   50.0920   67.5720 O.2   329  ASN329     -0.2716
     21  ND2       50.8570   50.3050   69.2070 N.am  329  ASN329     -0.0877
     22  N         50.0310   52.8970   66.5320 N.am  330  MET330     -0.1977
     23  CA        48.7270   53.4190   66.1180 C.3   330  MET330      0.1605
     24  C         47.5410   52.8640   66.9120 C.2   330  MET330      0.2287
     25  O         46.3850   52.9350   66.4600 O.2   330  MET330     -0.2864
     26  CB        48.5340   53.1920   64.6160 C.3   330  MET330      0.0413
     27  CG        49.5830   53.9050   63.7720 C.3   330  MET330      0.0598
     28  SD        49.1210   54.0410   62.0370 S.3   330  MET330     -0.1393
     29  CE        48.7520   52.3460   61.6060 C.3   330  MET330      0.0692
     30  N         63.0900   53.8130   72.3700 N.3   350  ASP350     -0.1239
     31  CA        62.1520   54.9000   72.1030 C.3   350  ASP350      0.1674
     32  C         60.7270   54.3520   72.0180 C.2   350  ASP350      0.2266
     33  O         60.3690   53.6350   71.0820 O.2   350  ASP350     -0.2867
     34  CB        62.5360   55.6120   70.7990 C.3   350  ASP350      0.1410
     35  CG        61.6420   56.7880   70.4800 C.2   350  ASP350      0.3668
     36  OD1       61.9630   57.5230   69.5380 O.co2 350  ASP350     -0.2456
     37  OD2       60.6170   56.9810   71.1550 O.co2 350  ASP350     -0.2456
     38  N         58.0230   56.5590   72.2970 N.3   352  SER352     -0.1202
     39  CA        57.2710   57.7910   72.3270 C.3   352  SER352      0.2020
     40  C         56.0590   57.7240   71.4160 C.2   352  SER352      0.2618
     41  O         56.0240   56.9430   70.4830 O.2   352  SER352     -0.2717
     42  CB        58.1750   58.9740   71.9880 C.3   352  SER352      0.2103
     43  OG        58.6460   58.9360   70.6570 O.3   352  SER352     -0.2182
     44  N         55.0500   58.5350   71.7170 N.am  353  HIS353     -0.1975
     45  CA        53.8590   58.6890   70.8580 C.3   353  HIS353      0.1656
     46  C         53.0900   57.3980   70.5790 C.2   353  HIS353      0.2291
     47  O         52.3510   57.3290   69.6020 O.2   353  HIS353     -0.2864
     48  CB        54.2550   59.3370   69.5250 C.3   353  HIS353      0.0771
     49  CG        54.1880   60.8290   69.5300 C.ar  353  HIS353      0.0820
     50  ND1       53.0010   61.5130   69.6510 N.ar  353  HIS353     -0.2267
     51  CD2       55.1570   61.7670   69.3890 C.ar  353  HIS353      0.1154
     52  CE1       53.2430   62.8120   69.5960 C.ar  353  HIS353      0.1986
     53  NE2       54.5410   62.9940   69.4380 N.ar  353  HIS353     -0.2212
     54  N         69.2310   55.6400   77.1350 N.3   374  TYR374     -0.1241
     55  CA        68.2390   56.5900   76.6650 C.3   374  TYR374      0.1605
     56  C         66.8560   55.9370   76.6790 C.2   374  TYR374      0.2264
     57  O         66.6510   54.8890   76.0650 O.2   374  TYR374     -0.2867
     58  CB        68.6290   57.0550   75.2600 C.3   374  TYR374      0.0534
     59  CG        67.5420   57.7060   74.4290 C.ar  374  TYR374     -0.0201
     60  CD1       67.2530   57.2390   73.1610 C.ar  374  TYR374     -0.0009
     61  CD2       66.8320   58.7920   74.8940 C.ar  374  TYR374     -0.0009
     62  CE1       66.2710   57.8390   72.3690 C.ar  374  TYR374      0.0417
     63  CE2       65.8430   59.4070   74.1020 C.ar  374  TYR374      0.0417
     64  CZ        65.5690   58.9190   72.8420 C.ar  374  TYR374      0.1957
     65  OH        64.6040   59.5020   72.0620 O.3   374  TYR374     -0.2866
     66  N         62.7560   57.0760   76.1690 N.3   376  ASN376     -0.1240
     67  CA        61.8420   58.1100   75.7400 C.3   376  ASN376      0.1653
     68  C         60.4300   57.5630   75.8640 C.2   376  ASN376      0.2266
     69  O         60.0330   56.6540   75.1140 O.2   376  ASN376     -0.2867
     70  CB        62.1680   58.4960   74.2940 C.3   376  ASN376      0.1155
     71  CG        61.5060   59.7800   73.8490 C.2   376  ASN376      0.2627
     72  OD1       60.4010   60.1240   74.2660 O.2   376  ASN376     -0.2716
     73  ND2       62.1980   60.4960   72.9770 N.am  376  ASN376     -0.0877
     74  N         57.8700   59.8970   76.0890 N.3   378  SER378     -0.1202
     75  CA        57.1250   61.1520   75.8880 C.3   378  SER378      0.2020
     76  C         55.8250   60.9560   75.1070 C.2   378  SER378      0.2618
     77  O         55.6410   59.9700   74.4170 O.2   378  SER378     -0.2717
     78  CB        58.0110   62.1890   75.1930 C.3   378  SER378      0.2103
     79  OG        58.3490   61.7860   73.8850 O.3   378  SER378     -0.2182
     80  N         54.9240   61.9120   75.2330 N.am  379  TYR379     -0.1975
     81  CA        53.6530   61.9060   74.4940 C.3   379  TYR379      0.1639
     82  C         52.8470   60.6170   74.6620 C.2   379  TYR379      0.2290
     83  O         52.3380   60.0540   73.7010 O.2   379  TYR379     -0.2864
     84  CB        53.8900   62.2240   73.0070 C.3   379  TYR379      0.0560
     85  CG        54.3420   63.6400   72.7830 C.ar  379  TYR379     -0.0198
     86  CD1       53.4160   64.6730   72.6490 C.ar  379  TYR379     -0.0009
     87  CD2       55.6910   63.9460   72.7310 C.ar  379  TYR379     -0.0009
     88  CE1       53.8200   65.9770   72.4530 C.ar  379  TYR379      0.0417
     89  CE2       56.1160   65.2460   72.5380 C.ar  379  TYR379      0.0417
     90  CZ        55.1860   66.2690   72.4000 C.ar  379  TYR379      0.1957
     91  OH        55.6350   67.5650   72.2260 O.3   379  TYR379     -0.2866
     92  N         69.8240   59.7710   79.7810 N.3   398  LEU398     -0.1245
     93  CA        68.8380   60.7260   79.3420 C.3   398  LEU398      0.1561
     94  C         67.4540   60.0860   79.4080 C.2   398  LEU398      0.2260
     95  O         67.1920   59.0920   78.7280 O.2   398  LEU398     -0.2867
     96  CB        69.1530   61.1560   77.9110 C.3   398  LEU398      0.0270
     97  CG        68.0530   61.8210   77.0630 C.3   398  LEU398      0.0019
     98  CD1       67.1780   62.7270   77.8590 C.3   398  LEU398      0.0001
     99  CD2       68.6890   62.5690   75.9190 C.3   398  LEU398      0.0001
    100  N         63.3310   61.0430   78.9450 N.3   400  ASP400     -0.1239
    101  CA        62.3890   62.0220   78.4010 C.3   400  ASP400      0.1674
    102  C         60.9550   61.5120   78.5270 C.2   400  ASP400      0.2266
    103  O         60.5990   60.5050   77.9130 O.2   400  ASP400     -0.2867
    104  CB        62.7360   62.2730   76.9270 C.3   400  ASP400      0.1410
    105  CG        61.9180   63.3930   76.2910 C.2   400  ASP400      0.3668
    106  OD1       60.9470   63.8850   76.9120 O.co2 400  ASP400     -0.2456
    107  OD2       62.2560   63.7810   75.1460 O.co2 400  ASP400     -0.2456
@<TRIPOS>BOND
     1    29    28    1
     2    28    27    1
     3    27    26    1
     4    26    23    1
     5    13    12    2
     6     9     8    1
     7     8     7    1
     8    23    22    1
     9    23    24    1
    10     4     3    2
    11    25    24    2
    12    22    16   am
    13    12    11    1
    14    12    14   am
    15    11    10    1
    16     6     7    1
    17     6     5    1
    18     3    10   am
    19     3     2    1
    20    16    15    1
    21    16    17    2
    22    15    14    1
    23    15    18    1
    24    20    19    2
    25     5     2    1
    26     1     2    1
    27    19    18    1
    28    19    21   am
    29    51    53   ar
    30    51    49   ar
    31    53    52   ar
    32    48    49    1
    33    48    45    1
    34    49    50   ar
    35    36    35   ar
    36    52    50   ar
    37    47    46    2
    38    35    34    1
    39    35    37   ar
    40    41    40    2
    41    46    45    1
    42    43    42    1
    43    34    31    1
    44    45    44    1
    45    33    32    2
    46    40    44   am
    47    40    39    1
    48    42    39    1
    49    32    31    1
    50    65    64    1
    51    31    30    1
    52    91    90    1
    53    38    39    1
    54    62    64   ar
    55    62    60   ar
    56    90    88   ar
    57    90    89   ar
    58    88    86   ar
    59    89    87   ar
    60    86    85   ar
    61    87    85   ar
    62    85    84    1
    63    64    63   ar
    64    73    71   am
    65    84    81    1
    66    60    59   ar
    67    83    82    2
    68    71    72    2
    69    71    70    1
    70    79    78    1
    71    63    61   ar
    72    70    67    1
    73    77    76    2
    74    59    61   ar
    75    59    58    1
    76    81    82    1
    77    81    80    1
    78    76    80   am
    79    76    75    1
    80    69    68    2
    81   107   105   ar
    82    78    75    1
    83    58    55    1
    84    67    68    1
    85    67    66    1
    86    75    74    1
    87    99    97    1
    88    57    56    2
    89   105   106   ar
    90   105   104    1
    91    55    56    1
    92    55    54    1
    93   104   101    1
    94    97    98    1
    95    97    96    1
    96    96    93    1
    97   103   102    2
    98   101   102    1
    99   101   100    1
   100    95    94    2
   101    93    94    1
   102    93    92    1
