@<TRIPOS>MOLECULE
tmp/3rg2C00.pdb
 218 205 0 0 0
SMALL
GASTEIGER

@<TRIPOS>ATOM
      1  N        -32.1450  -63.0580  106.5040 N.3   189  LEU189     -0.1245
      2  CA       -30.7990  -63.2390  107.0270 C.3   189  LEU189      0.1561
      3  C        -30.0320  -61.9360  107.2000 C.2   189  LEU189      0.2260
      4  O        -30.0250  -61.0690  106.3170 O.2   189  LEU189     -0.2867
      5  CB       -30.0140  -64.1890  106.1380 C.3   189  LEU189      0.0270
      6  CG       -30.6560  -65.5420  105.8650 C.3   189  LEU189      0.0019
      7  CD1      -29.8210  -66.3130  104.8730 C.3   189  LEU189      0.0001
      8  CD2      -30.7910  -66.3260  107.1320 C.3   189  LEU189      0.0001
      9  N        -26.4990  -60.3840  107.1900 N.3   191  GLY191     -0.1225
     10  CA       -25.0820  -60.4540  106.9070 C.3   191  GLY191      0.1811
     11  C        -24.4970  -60.3290  108.2900 C.2   191  GLY191      0.2280
     12  O        -24.8350  -59.3910  109.0220 O.2   191  GLY191     -0.2866
     13  N        -32.0830  -62.4230   98.6840 N.3   234  HIS234     -0.1226
     14  CA       -31.6660  -61.3450   99.5790 C.3   234  HIS234      0.1752
     15  C        -32.7450  -60.2970   99.6900 C.2   234  HIS234      0.2596
     16  O        -33.5330  -60.1130   98.7720 O.2   234  HIS234     -0.2718
     17  CB       -30.3930  -60.6760   99.0880 C.3   234  HIS234      0.0759
     18  CG       -29.1430  -61.3600   99.5220 C.ar  234  HIS234      0.0818
     19  ND1      -28.3620  -60.8880  100.5490 N.ar  234  HIS234     -0.2268
     20  CD2      -28.5270  -62.4710   99.0600 C.ar  234  HIS234      0.1154
     21  CE1      -27.3190  -61.6830  100.7030 C.ar  234  HIS234      0.1986
     22  NE2      -27.3930  -62.6470   99.8050 N.ar  234  HIS234     -0.2212
     23  N        -32.7690  -59.5900  100.8090 N.am  235  ASN235     -0.1960
     24  CA       -33.8210  -58.6230  101.0350 C.3   235  ASN235      0.1819
     25  C        -33.9430  -57.5760   99.9190 C.2   235  ASN235      0.2621
     26  O        -35.0300  -57.0680   99.6480 O.2   235  ASN235     -0.2715
     27  CB       -33.6400  -57.9640  102.3920 C.3   235  ASN235      0.1195
     28  CG       -34.8710  -57.2750  102.8320 C.2   235  ASN235      0.2630
     29  OD1      -35.9120  -57.9170  102.9170 O.2   235  ASN235     -0.2716
     30  ND2      -34.7940  -55.9540  103.0770 N.am  235  ASN235     -0.0877
     31  N        -32.8220  -57.2780   99.2680 N.am  236  TYR236     -0.1974
     32  CA       -32.7350  -56.2340   98.2410 C.3   236  TYR236      0.1639
     33  C        -33.4870  -56.6310   96.9890 C.2   236  TYR236      0.2290
     34  O        -34.3850  -55.9260   96.5580 O.2   236  TYR236     -0.2864
     35  CB       -31.2670  -56.0030   97.9270 C.3   236  TYR236      0.0560
     36  CG       -30.9210  -54.9720   96.8870 C.ar  236  TYR236     -0.0198
     37  CD1      -29.6660  -55.0080   96.2790 C.ar  236  TYR236     -0.0009
     38  CD2      -31.8030  -53.9560   96.5250 C.ar  236  TYR236     -0.0009
     39  CE1      -29.3000  -54.1000   95.3260 C.ar  236  TYR236      0.0417
     40  CE2      -31.4360  -53.0180   95.5600 C.ar  236  TYR236      0.0417
     41  CZ       -30.1760  -53.1150   94.9660 C.ar  236  TYR236      0.1957
     42  OH       -29.7500  -52.2360   94.0140 O.3   236  TYR236     -0.2866
     43  N        -37.1640  -54.6630   97.7830 N.3   240  SER240     -0.1217
     44  CA       -36.7680  -53.2320   97.7440 C.3   240  SER240      0.1889
     45  C        -36.6210  -52.4780   96.4070 C.2   240  SER240      0.2288
     46  O        -35.5740  -51.9400   96.1140 O.2   240  SER240     -0.2866
     47  CB       -35.4890  -53.0240   98.5590 C.3   240  SER240      0.2089
     48  OG       -35.7540  -53.2210   99.9270 O.3   240  SER240     -0.2183
     49  N        -28.7180  -49.2320   92.5530 N.3   307  VAL307     -0.1231
     50  CA       -27.4120  -49.6700   92.9790 C.3   307  VAL307      0.1692
     51  C        -27.3220  -49.5600   94.4970 C.2   307  VAL307      0.2593
     52  O        -27.5990  -48.5020   95.0580 O.2   307  VAL307     -0.2718
     53  CB       -26.3110  -48.8460   92.2870 C.3   307  VAL307      0.0266
     54  CG1      -24.9200  -49.2710   92.7780 C.3   307  VAL307      0.0020
     55  CG2      -26.4240  -49.0010   90.7790 C.3   307  VAL307      0.0020
     56  N        -26.9650  -50.6590   95.1610 N.am  308  GLY308     -0.1942
     57  CA       -26.8530  -50.6560   96.6080 C.3   308  GLY308      0.2014
     58  C        -26.1170  -51.8510   97.1900 C.2   308  GLY308      0.2639
     59  O        -25.5620  -52.6760   96.4560 O.2   308  GLY308     -0.2714
     60  N        -26.1050  -51.9310   98.5190 N.am  309  GLY309     -0.1939
     61  CA       -25.5070  -53.0510   99.2040 C.3   309  GLY309      0.2014
     62  C        -24.0910  -52.7380   99.6050 C.2   309  GLY309      0.2639
     63  O        -23.5290  -53.3830  100.5110 O.2   309  GLY309     -0.2714
     64  N        -23.5020  -51.7480   98.9410 N.am  310  ALA310     -0.1963
     65  CA       -22.1000  -51.4390   99.1860 C.3   310  ALA310      0.1728
     66  C        -21.7910  -50.0200   98.7730 C.2   310  ALA310      0.2616
     67  O        -22.5450  -49.4420   97.9900 O.2   310  ALA310     -0.2715
     68  CB       -21.1910  -52.4270   98.4470 C.3   310  ALA310      0.0334
     69  N        -20.6840  -49.4710   99.2900 N.am  311  ARG311     -0.1963
     70  CA       -20.2780  -48.0910   99.0080 C.3   311  ARG311      0.1729
     71  C        -20.1910  -47.9500   97.4950 C.2   311  ARG311      0.2616
     72  O        -19.5030  -48.7270   96.8320 O.2   311  ARG311     -0.2715
     73  CB       -18.9120  -47.7850   99.6780 C.3   311  ARG311      0.0348
     74  CG       -18.6970  -46.4020  100.3870 C.3   311  ARG311      0.0492
     75  CD       -17.7150  -46.5060  101.6160 C.3   311  ARG311      0.2205
     76  NE       -18.4020  -47.0520  102.7960 N.pl3 311  ARG311     -0.0865
     77  CZ       -17.8780  -47.7790  103.7960 C.cat 311  ARG311      0.5346
     78  NH1      -16.5970  -48.1290  103.8890 N.pl3 311  ARG311      0.1354
     79  NH2      -18.6850  -48.1810  104.7400 N.pl3 311  ARG311      0.1354
     80  N        -20.9080  -46.9750   96.9520 N.am  312  LEU312     -0.1977
     81  CA       -20.8160  -46.6510   95.5320 C.3   312  LEU312      0.1596
     82  C        -20.1910  -45.2730   95.3220 C.2   312  LEU312      0.2287
     83  O        -20.7880  -44.2500   95.6680 O.2   312  LEU312     -0.2864
     84  CB       -22.1920  -46.6840   94.9010 C.3   312  LEU312      0.0297
     85  CG       -22.2640  -46.1900   93.4590 C.3   312  LEU312      0.0022
     86  CD1      -21.2970  -46.9900   92.5420 C.3   312  LEU312      0.0001
     87  CD2      -23.7370  -46.2500   92.9520 C.3   312  LEU312      0.0001
     88  N        -29.6600  -44.7080   94.2270 N.3   330  GLN330     -0.1231
     89  CA       -28.8840  -45.3610   95.2650 C.3   330  GLN330      0.1698
     90  C        -29.8400  -45.9940   96.2970 C.2   330  GLN330      0.2592
     91  O        -30.8060  -45.3550   96.7490 O.2   330  GLN330     -0.2718
     92  CB       -27.9230  -44.3680   95.9400 C.3   330  GLN330      0.0381
     93  CG       -26.8340  -43.8070   95.0350 C.3   330  GLN330      0.0905
     94  CD       -25.5130  -43.6230   95.7620 C.2   330  GLN330      0.2608
     95  OE1      -25.3710  -44.0170   96.9130 O.2   330  GLN330     -0.2717
     96  NE2      -24.5410  -43.0330   95.0900 N.am  330  GLN330     -0.0878
     97  N        -29.5870  -47.2540   96.6610 N.am  331  VAL331     -0.1966
     98  CA       -30.3830  -47.9260   97.6900 C.3   331  VAL331      0.1727
     99  C        -29.5040  -48.3200   98.8610 C.2   331  VAL331      0.2616
    100  O        -28.5450  -49.0810   98.6990 O.2   331  VAL331     -0.2715
    101  CB       -31.0620  -49.1790   97.1460 C.3   331  VAL331      0.0290
    102  CG1      -32.0380  -49.6990   98.1610 C.3   331  VAL331      0.0023
    103  CG2      -31.7570  -48.8560   95.8320 C.3   331  VAL331      0.0023
    104  N        -29.8010  -47.7730  100.0330 N.am  332  PHE332     -0.1960
    105  CA       -29.0450  -48.1240  101.2320 C.3   332  PHE332      0.1771
    106  C        -30.0360  -48.6720  102.2300 C.2   332  PHE332      0.2620
    107  O        -30.7780  -47.9150  102.8430 O.2   332  PHE332     -0.2715
    108  CB       -28.3440  -46.8700  101.7480 C.3   332  PHE332      0.0574
    109  CG       -27.8290  -46.9520  103.1480 C.ar  332  PHE332     -0.0200
    110  CD1      -27.2880  -48.1100  103.6540 C.ar  332  PHE332     -0.0042
    111  CD2      -27.8240  -45.8190  103.9450 C.ar  332  PHE332     -0.0042
    112  CE1      -26.7690  -48.1380  104.9600 C.ar  332  PHE332     -0.0003
    113  CE2      -27.3260  -45.8370  105.2420 C.ar  332  PHE332     -0.0003
    114  CZ       -26.8040  -46.9920  105.7480 C.ar  332  PHE332     -0.0000
    115  N        -30.0040  -49.9880  102.4230 N.am  333  GLY333     -0.1940
    116  CA       -30.9590  -50.6730  103.2660 C.3   333  GLY333      0.2014
    117  C        -30.3170  -51.8570  103.9530 C.2   333  GLY333      0.2639
    118  O        -29.2340  -52.2590  103.5890 O.2   333  GLY333     -0.2714
    119  N        -30.9940  -52.4000  104.9580 N.am  334  MET334     -0.1963
    120  CA       -30.5270  -53.5560  105.6920 C.3   334  MET334      0.1736
    121  C        -31.6580  -54.5700  105.8170 C.2   334  MET334      0.2616
    122  O        -32.8250  -54.2110  105.7510 O.2   334  MET334     -0.2715
    123  CB       -30.0630  -53.1160  107.0570 C.3   334  MET334      0.0427
    124  CG       -31.0020  -52.1610  107.6690 C.3   334  MET334      0.0599
    125  SD       -30.0970  -50.9930  108.6400 S.3   334  MET334     -0.1393
    126  CE       -29.7730  -49.6870  107.4340 C.3   334  MET334      0.0692
    127  N        -31.3180  -55.8420  105.9860 N.am  335  ALA335     -0.1963
    128  CA       -32.3340  -56.8880  105.9960 C.3   335  ALA335      0.1728
    129  C        -33.2110  -56.7330  107.2170 C.2   335  ALA335      0.2616
    130  O        -34.2460  -57.3760  107.3330 O.2   335  ALA335     -0.2715
    131  CB       -31.6890  -58.2540  105.9850 C.3   335  ALA335      0.0334
    132  N        -32.7730  -55.8700  108.1240 N.am  336  GLU336     -0.1977
    133  CA       -33.4280  -55.6650  109.4020 C.3   336  GLU336      0.1602
    134  C        -34.5480  -54.6150  109.3340 C.2   336  GLU336      0.2287
    135  O        -35.3430  -54.4970  110.2570 O.2   336  GLU336     -0.2864
    136  CB       -32.3880  -55.2690  110.4730 C.3   336  GLU336      0.0415
    137  CG       -31.4340  -56.4050  110.9600 C.3   336  GLU336      0.1163
    138  CD       -30.0240  -56.4300  110.2940 C.2   336  GLU336      0.3649
    139  OE1      -29.8220  -55.8240  109.2130 O.co2 336  GLU336     -0.2457
    140  OE2      -29.1110  -57.0810  110.8590 O.co2 336  GLU336     -0.2457
    141  N        -34.9580  -49.0830  104.6710 N.3   339  VAL339     -0.1245
    142  CA       -34.3290  -48.8140  103.3890 C.3   339  VAL339      0.1561
    143  C        -34.3260  -47.3060  103.0970 C.2   339  VAL339      0.2260
    144  O        -35.3360  -46.6400  103.2440 O.2   339  VAL339     -0.2867
    145  CB       -35.0300  -49.6040  102.2740 C.3   339  VAL339      0.0252
    146  CG1      -34.4940  -49.2360  100.8630 C.3   339  VAL339      0.0019
    147  CG2      -34.9030  -51.0850  102.5760 C.3   339  VAL339      0.0019
    148  N        -26.7330  -41.1420   99.7880 N.3   355  GLN355     -0.1245
    149  CA       -27.4260  -42.4180   99.7460 C.3   355  GLN355      0.1566
    150  C        -28.9440  -42.2800   99.8580 C.2   355  GLN355      0.2260
    151  O        -29.6530  -43.2640  100.0450 O.2   355  GLN355     -0.2867
    152  CB       -26.8830  -43.3590  100.8050 C.3   355  GLN355      0.0367
    153  CG       -25.7290  -44.2070  100.3240 C.3   355  GLN355      0.0905
    154  CD       -24.4590  -43.4140  100.1150 C.2   355  GLN355      0.2608
    155  OE1      -23.8600  -43.4540   99.0370 O.2   355  GLN355     -0.2717
    156  NE2      -24.0220  -42.7080  101.1560 N.am  355  GLN355     -0.0878
    157  N        -27.1920  -50.2370  113.2540 N.3   413  SER413     -0.1217
    158  CA       -26.7940  -51.0300  112.1010 C.3   413  SER413      0.1889
    159  C        -25.2930  -51.2600  112.0770 C.2   413  SER413      0.2288
    160  O        -24.7990  -52.1470  111.3720 O.2   413  SER413     -0.2866
    161  CB       -27.2410  -50.3660  110.7990 C.3   413  SER413      0.2089
    162  OG       -26.3320  -49.3500  110.4070 O.3   413  SER413     -0.2183
    163  N        -23.3040  -48.9510  111.1190 N.3   415  ASP415     -0.1239
    164  CA       -22.8280  -48.0810  110.0560 C.3   415  ASP415      0.1674
    165  C        -22.4850  -46.7060  110.5830 C.2   415  ASP415      0.2266
    166  O        -23.1390  -46.2040  111.4900 O.2   415  ASP415     -0.2867
    167  CB       -23.8850  -47.9640  108.9730 C.3   415  ASP415      0.1410
    168  CG       -23.9580  -49.2000  108.1130 C.2   415  ASP415      0.3668
    169  OD1      -25.0670  -49.7410  107.9030 O.co2 415  ASP415     -0.2456
    170  OD2      -22.8880  -49.6310  107.6380 O.co2 415  ASP415     -0.2456
    171  N        -23.0330  -42.6520  103.6710 N.3   427  VAL427     -0.1245
    172  CA       -22.3660  -43.7010  104.4240 C.3   427  VAL427      0.1561
    173  C        -20.8710  -43.4210  104.4720 C.2   427  VAL427      0.2260
    174  O        -20.1930  -43.4320  103.4470 O.2   427  VAL427     -0.2867
    175  CB       -22.6150  -45.0640  103.7730 C.3   427  VAL427      0.0252
    176  CG1      -21.8770  -46.1560  104.5090 C.3   427  VAL427      0.0019
    177  CG2      -24.0900  -45.3430  103.7570 C.3   427  VAL427      0.0019
    178  N        -17.8490  -47.8850  108.8290 N.3   430  ARG430     -0.1245
    179  CA       -18.3830  -49.1040  109.4180 C.3   430  ARG430      0.1563
    180  C        -17.7840  -49.3600  110.8010 C.2   430  ARG430      0.2260
    181  O        -16.6370  -49.0050  111.0750 O.2   430  ARG430     -0.2867
    182  CB       -18.1500  -50.2930  108.4770 C.3   430  ARG430      0.0307
    183  CG       -18.9340  -51.5410  108.8320 C.3   430  ARG430      0.0489
    184  CD       -18.8770  -52.5320  107.6790 C.3   430  ARG430      0.2205
    185  NE       -19.2210  -51.8980  106.4090 N.pl3 430  ARG430     -0.0865
    186  CZ       -18.5500  -52.0870  105.2810 C.cat 430  ARG430      0.5346
    187  NH1      -18.9370  -51.4650  104.1700 N.pl3 430  ARG430      0.1354
    188  NH2      -17.4930  -52.8980  105.2760 N.pl3 430  ARG430      0.1354
    189  N        -17.4540  -56.6240  109.9950 N.3   434  GLN434     -0.1245
    190  CA       -18.2000  -57.2320  108.8960 C.3   434  GLN434      0.1566
    191  C        -17.5060  -56.7850  107.6170 C.2   434  GLN434      0.2260
    192  O        -17.1370  -55.6150  107.4660 O.2   434  GLN434     -0.2867
    193  CB       -19.6800  -56.7570  108.9140 C.3   434  GLN434      0.0367
    194  CG       -20.6110  -57.3570  107.8560 C.3   434  GLN434      0.0905
    195  CD       -21.8620  -56.5020  107.5590 C.2   434  GLN434      0.2608
    196  OE1      -22.9550  -56.7930  108.0620 O.2   434  GLN434     -0.2717
    197  NE2      -21.7080  -55.4650  106.7150 N.am  434  GLN434     -0.0878
    198  N        -17.7100  -56.3930  103.4280 N.3   436  ASN436     -0.1240
    199  CA       -18.7490  -56.2890  102.4220 C.3   436  ASN436      0.1653
    200  C        -18.1230  -56.5610  101.0680 C.2   436  ASN436      0.2266
    201  O        -17.5070  -55.6920  100.4630 O.2   436  ASN436     -0.2867
    202  CB       -19.3300  -54.8810  102.4800 C.3   436  ASN436      0.1155
    203  CG       -20.6900  -54.7690  101.8450 C.2   436  ASN436      0.2627
    204  OD1      -20.9190  -55.2260  100.7150 O.2   436  ASN436     -0.2716
    205  ND2      -21.6110  -54.1340  102.5630 N.am  436  ASN436     -0.0877
    206  N        -20.9320  -56.8310   97.8870 N.3   439  GLY439     -0.1225
    207  CA       -22.2290  -56.7130   98.5300 C.3   439  GLY439      0.1811
    208  C        -22.7540  -57.9690   99.2360 C.2   439  GLY439      0.2280
    209  O        -23.9320  -58.0560   99.5730 O.2   439  GLY439     -0.2866
    210  N        -22.3750  -59.7820  102.6760 N.3   441  LYS441     -0.1245
    211  CA       -21.7810  -59.5770  103.9900 C.3   441  LYS441      0.1561
    212  C        -21.0290  -60.8370  104.4860 C.2   441  LYS441      0.2260
    213  O        -21.4690  -61.9700  104.2630 O.2   441  LYS441     -0.2867
    214  CB       -22.8590  -59.1270  104.9780 C.3   441  LYS441      0.0271
    215  CG       -23.4300  -57.7520  104.6310 C.3   441  LYS441      0.0035
    216  CD       -24.8020  -57.5760  105.2500 C.3   441  LYS441      0.0206
    217  CE       -25.4410  -56.2960  104.7100 C.3   441  LYS441      0.1093
    218  NZ       -26.6590  -55.9450  105.4960 N.3   441  LYS441     -0.1314
@<TRIPOS>BOND
     1    55    53    1
     2    53    54    1
     3    53    50    1
     4    86    85    1
     5    49    50    1
     6    87    85    1
     7    50    51    1
     8    85    84    1
     9    42    41    1
    10    88    89    1
    11    51    52    2
    12    51    56   am
    13    84    81    1
    14    41    39   ar
    15    41    40   ar
    16    93    94    1
    17    93    92    1
    18    96    94   am
    19    56    57    1
    20    89    92    1
    21    89    90    1
    22    82    81    1
    23    82    83    2
    24    39    37   ar
    25    81    80    1
    26    40    38   ar
    27    94    95    2
    28   103   101    1
    29    46    45    2
    30    37    36   ar
    31    90    97   am
    32    90    91    2
    33    45    44    1
    34    59    58    2
    35    38    36   ar
    36    34    33    2
    37    57    58    1
    38    97    98    1
    39    72    71    2
    40    36    35    1
    41    80    71   am
    42    33    32    1
    43   101    98    1
    44   101   102    1
    45    58    60   am
    46    71    70    1
    47    98    99    1
    48    44    43    1
    49    44    47    1
    50   206   207    1
    51    35    32    1
    52    67    66    2
    53    32    31    1
    54    68    65    1
    55    60    61    1
    56   207   208    1
    57    47    48    1
    58    13    14    1
    59   100    99    2
    60    16    15    2
    61    66    65    1
    62    66    69   am
    63    99   104   am
    64    64    65    1
    65    64    62   am
    66    70    69    1
    67    70    73    1
    68   155   154    2
    69    20    18   ar
    70    20    22   ar
    71    17    18    1
    72    17    14    1
    73    61    62    1
    74   208   209    2
    75    31    25   am
    76    18    19   ar
    77    14    15    1
    78    62    63    2
    79    26    25    2
    80    73    74    1
    81    15    23   am
    82   149   148    1
    83   149   150    1
    84   149   152    1
    85    22    21   ar
    86   150   151    2
    87    25    24    1
    88   104   105    1
    89   154   153    1
    90   154   156   am
    91   153   152    1
    92    74    75    1
    93   201   200    2
    94    19    21   ar
    95   204   203    2
    96    23    24    1
    97   146   145    1
    98    24    27    1
    99   200   199    1
   100   105   108    1
   101   105   106    1
   102    75    76    1
   103   108   109    1
   104   203   202    1
   105   203   205   am
   106   106   115   am
   107   106   107    2
   108   145   147    1
   109   145   142    1
   110    27    28    1
   111   199   202    1
   112   199   198    1
   113   115   116    1
   114   210   211    1
   115    76    77    2
   116    28    29    2
   117    28    30   am
   118   143   144    2
   119   143   142    1
   120   109   110   ar
   121   109   111   ar
   122   116   117    1
   123   142   141    1
   124   174   173    2
   125   118   117    2
   126   110   112   ar
   127   171   172    1
   128   177   175    1
   129   175   172    1
   130   175   176    1
   131    77    78    1
   132    77    79    1
   133   111   113   ar
   134   117   119   am
   135   211   212    1
   136   211   214    1
   137   187   186    1
   138   213   212    2
   139   172   173    1
   140   215   214    1
   141   215   216    1
   142   217   216    1
   143   217   218    1
   144     7     6    1
   145   119   120    1
   146   112   114   ar
   147   113   114   ar
   148   188   186    1
   149   186   185    2
   150   120   121    1
   151   120   123    1
   152   122   121    2
   153   121   127   am
   154     6     5    1
   155     6     8    1
   156   131   128    1
   157   127   128    1
   158   128   129    1
   159     5     2    1
   160     4     3    2
   161   185   184    1
   162     1     2    1
   163   197   195   am
   164    10     9    1
   165    10    11    1
   166     2     3    1
   167   123   124    1
   168   129   130    2
   169   129   132   am
   170   126   125    1
   171   192   191    2
   172   195   194    1
   173   195   196    2
   174   191   190    1
   175   170   168   ar
   176   124   125    1
   177   184   183    1
   178   194   193    1
   179   169   168   ar
   180   168   167    1
   181   132   133    1
   182    11    12    2
   183   182   183    1
   184   182   179    1
   185   178   179    1
   186   190   193    1
   187   190   189    1
   188   167   164    1
   189   139   138   ar
   190   134   133    1
   191   134   135    2
   192   133   136    1
   193   179   180    1
   194   164   165    1
   195   164   163    1
   196   138   140   ar
   197   138   137    1
   198   162   161    1
   199   136   137    1
   200   165   166    2
   201   161   158    1
   202   180   181    2
   203   160   159    2
   204   159   158    1
   205   158   157    1
