@<TRIPOS>MOLECULE
tmp/3rg2C01.pdb
 148 144 0 0 0
SMALL
GASTEIGER

@<TRIPOS>ATOM
      1  N        -29.1340  -60.3730   90.7640 N.3   230  ILE230     -0.1231
      2  CA       -28.3780  -60.6070   91.9800 C.3   230  ILE230      0.1678
      3  C        -29.1320  -61.6830   92.7400 C.2   230  ILE230      0.2434
      4  O        -30.2640  -61.9980   92.3960 O.2   230  ILE230     -0.2733
      5  CB       -28.1800  -59.3250   92.7950 C.3   230  ILE230      0.0265
      6  CG1      -29.5100  -58.6970   93.2050 C.3   230  ILE230      0.0019
      7  CG2      -27.3990  -58.3280   91.9940 C.3   230  ILE230      0.0020
      8  CD1      -29.3590  -57.3600   93.9380 C.3   230  ILE230      0.0001
      9  N        -28.5160  -62.2740   93.7640 N.am  231  PRO231     -0.2729
     10  CA       -29.2140  -63.3820   94.4250 C.3   231  PRO231      0.1401
     11  C        -30.6520  -63.0260   94.8470 C.2   231  PRO231      0.2269
     12  O        -30.9080  -62.0340   95.5490 O.2   231  PRO231     -0.2865
     13  CB       -28.3530  -63.6350   95.6440 C.3   231  PRO231      0.0296
     14  CG       -26.9900  -63.1250   95.2530 C.3   231  PRO231      0.0237
     15  CD       -27.2140  -61.9720   94.3800 C.3   231  PRO231      0.0939
     16  N        -32.0830  -62.4230   98.6840 N.3   234  HIS234     -0.1226
     17  CA       -31.6660  -61.3450   99.5790 C.3   234  HIS234      0.1752
     18  C        -32.7450  -60.2970   99.6900 C.2   234  HIS234      0.2596
     19  O        -33.5330  -60.1130   98.7720 O.2   234  HIS234     -0.2718
     20  CB       -30.3930  -60.6760   99.0880 C.3   234  HIS234      0.0759
     21  CG       -29.1430  -61.3600   99.5220 C.ar  234  HIS234      0.0818
     22  ND1      -28.3620  -60.8880  100.5490 N.ar  234  HIS234     -0.2268
     23  CD2      -28.5270  -62.4710   99.0600 C.ar  234  HIS234      0.1154
     24  CE1      -27.3190  -61.6830  100.7030 C.ar  234  HIS234      0.1986
     25  NE2      -27.3930  -62.6470   99.8050 N.ar  234  HIS234     -0.2212
     26  N        -32.7690  -59.5900  100.8090 N.am  235  ASN235     -0.1960
     27  CA       -33.8210  -58.6230  101.0350 C.3   235  ASN235      0.1819
     28  C        -33.9430  -57.5760   99.9190 C.2   235  ASN235      0.2621
     29  O        -35.0300  -57.0680   99.6480 O.2   235  ASN235     -0.2715
     30  CB       -33.6400  -57.9640  102.3920 C.3   235  ASN235      0.1195
     31  CG       -34.8710  -57.2750  102.8320 C.2   235  ASN235      0.2630
     32  OD1      -35.9120  -57.9170  102.9170 O.2   235  ASN235     -0.2716
     33  ND2      -34.7940  -55.9540  103.0770 N.am  235  ASN235     -0.0877
     34  N        -32.8220  -57.2780   99.2680 N.am  236  TYR236     -0.1974
     35  CA       -32.7350  -56.2340   98.2410 C.3   236  TYR236      0.1639
     36  C        -33.4870  -56.6310   96.9890 C.2   236  TYR236      0.2290
     37  O        -34.3850  -55.9260   96.5580 O.2   236  TYR236     -0.2864
     38  CB       -31.2670  -56.0030   97.9270 C.3   236  TYR236      0.0560
     39  CG       -30.9210  -54.9720   96.8870 C.ar  236  TYR236     -0.0198
     40  CD1      -29.6660  -55.0080   96.2790 C.ar  236  TYR236     -0.0009
     41  CD2      -31.8030  -53.9560   96.5250 C.ar  236  TYR236     -0.0009
     42  CE1      -29.3000  -54.1000   95.3260 C.ar  236  TYR236      0.0417
     43  CE2      -31.4360  -53.0180   95.5600 C.ar  236  TYR236      0.0417
     44  CZ       -30.1760  -53.1150   94.9660 C.ar  236  TYR236      0.1957
     45  OH       -29.7500  -52.2360   94.0140 O.3   236  TYR236     -0.2866
     46  N        -25.1640  -61.9430   87.5700 N.3   259  PRO259     -0.2116
     47  CA       -25.2920  -60.6420   86.9200 C.3   259  PRO259      0.1372
     48  C        -24.1830  -60.3530   85.9040 C.2   259  PRO259      0.2244
     49  O        -23.6540  -59.2420   85.8820 O.2   259  PRO259     -0.2868
     50  CB       -25.1920  -59.6740   88.1070 C.3   259  PRO259      0.0268
     51  CG       -24.3910  -60.4320   89.1760 C.3   259  PRO259      0.0207
     52  CD       -24.2680  -61.8780   88.7340 C.3   259  PRO259      0.0892
     53  N        -25.1930  -54.3650   92.4080 N.3   279  VAL279     -0.1245
     54  CA       -24.2590  -53.9720   93.4380 C.3   279  VAL279      0.1561
     55  C        -23.0610  -53.3810   92.7220 C.2   279  VAL279      0.2260
     56  O        -22.7860  -53.7510   91.5830 O.2   279  VAL279     -0.2867
     57  CB       -23.8300  -55.1790   94.2600 C.3   279  VAL279      0.0252
     58  CG1      -24.9660  -55.6390   95.1270 C.3   279  VAL279      0.0019
     59  CG2      -23.3630  -56.3090   93.3450 C.3   279  VAL279      0.0019
     60  N        -19.8810  -53.7010   92.2670 N.3   281  PRO281     -0.2102
     61  CA       -18.9790  -54.4850   91.4080 C.3   281  PRO281      0.1504
     62  C        -19.6090  -54.9160   90.0800 C.2   281  PRO281      0.2575
     63  O        -18.8940  -55.0890   89.1070 O.2   281  PRO281     -0.2718
     64  CB       -18.6410  -55.7100   92.2610 C.3   281  PRO281      0.0282
     65  CG       -18.8270  -55.2310   93.6630 C.3   281  PRO281      0.0208
     66  CD       -20.0020  -54.2910   93.6070 C.3   281  PRO281      0.0893
     67  N        -20.9200  -55.0880   90.0220 N.am  282  ALA282     -0.1980
     68  CA       -21.5450  -55.4870   88.7600 C.3   282  ALA282      0.1597
     69  C        -21.6390  -54.3010   87.8290 C.2   282  ALA282      0.2287
     70  O        -21.4790  -54.4370   86.6230 O.2   282  ALA282     -0.2864
     71  CB       -22.9390  -56.0930   88.9850 C.3   282  ALA282      0.0319
     72  N        -26.1050  -51.9310   98.5190 N.3   309  GLY309     -0.1225
     73  CA       -25.5070  -53.0510   99.2040 C.3   309  GLY309      0.1811
     74  C        -24.0910  -52.7380   99.6050 C.2   309  GLY309      0.2280
     75  O        -23.5290  -53.3830  100.5110 O.2   309  GLY309     -0.2866
     76  N        -30.0040  -49.9880  102.4230 N.3   333  GLY333     -0.1210
     77  CA       -30.9590  -50.6730  103.2660 C.3   333  GLY333      0.1956
     78  C        -30.3170  -51.8570  103.9530 C.2   333  GLY333      0.2612
     79  O        -29.2340  -52.2590  103.5890 O.2   333  GLY333     -0.2717
     80  N        -30.9940  -52.4000  104.9580 N.am  334  MET334     -0.1965
     81  CA       -30.5270  -53.5560  105.6920 C.3   334  MET334      0.1736
     82  C        -31.6580  -54.5700  105.8170 C.2   334  MET334      0.2616
     83  O        -32.8250  -54.2110  105.7510 O.2   334  MET334     -0.2715
     84  CB       -30.0630  -53.1160  107.0570 C.3   334  MET334      0.0427
     85  CG       -31.0020  -52.1610  107.6690 C.3   334  MET334      0.0599
     86  SD       -30.0970  -50.9930  108.6400 S.3   334  MET334     -0.1393
     87  CE       -29.7730  -49.6870  107.4340 C.3   334  MET334      0.0692
     88  N        -31.3180  -55.8420  105.9860 N.am  335  ALA335     -0.1977
     89  CA       -32.3340  -56.8880  105.9960 C.3   335  ALA335      0.1597
     90  C        -33.2110  -56.7330  107.2170 C.2   335  ALA335      0.2287
     91  O        -34.2460  -57.3760  107.3330 O.2   335  ALA335     -0.2864
     92  CB       -31.6890  -58.2540  105.9850 C.3   335  ALA335      0.0319
     93  N        -18.3500  -57.7630  100.5650 N.3   437  ARG437     -0.1231
     94  CA       -17.6040  -58.2570   99.4260 C.3   437  ARG437      0.1694
     95  C        -18.5290  -58.4650   98.2510 C.2   437  ARG437      0.2593
     96  O        -19.2280  -59.4750   98.1650 O.2   437  ARG437     -0.2718
     97  CB       -16.9400  -59.5780   99.8040 C.3   437  ARG437      0.0321
     98  CG       -16.1750  -60.2160   98.6950 C.3   437  ARG437      0.0489
     99  CD       -15.4150  -61.4150   99.1960 C.3   437  ARG437      0.2205
    100  NE       -14.5300  -61.9480   98.1730 N.pl3 437  ARG437     -0.0865
    101  CZ       -14.9710  -62.5860   97.0960 C.cat 437  ARG437      0.5346
    102  NH1      -16.2850  -62.7330   96.9230 N.pl3 437  ARG437      0.1354
    103  NH2      -14.1140  -63.0640   96.1980 N.pl3 437  ARG437      0.1354
    104  N        -18.4620  -57.5440   97.3020 N.am  438  GLY438     -0.1942
    105  CA       -19.3850  -57.5440   96.1890 C.3   438  GLY438      0.2014
    106  C        -20.8060  -57.3850   96.6840 C.2   438  GLY438      0.2639
    107  O        -21.7740  -57.7530   95.9960 O.2   438  GLY438     -0.2714
    108  N        -20.9320  -56.8310   97.8870 N.am  439  GLY439     -0.1939
    109  CA       -22.2290  -56.7130   98.5300 C.3   439  GLY439      0.2014
    110  C        -22.7540  -57.9690   99.2360 C.2   439  GLY439      0.2639
    111  O        -23.9320  -58.0560   99.5730 O.2   439  GLY439     -0.2714
    112  N        -21.9010  -58.9660   99.4340 N.am  440  GLU440     -0.1963
    113  CA       -22.2550  -60.1080  100.2630 C.3   440  GLU440      0.1733
    114  C        -21.5940  -59.8990  101.6130 C.2   440  GLU440      0.2616
    115  O        -20.3800  -59.8490  101.7050 O.2   440  GLU440     -0.2715
    116  CB       -21.7330  -61.4010   99.6600 C.3   440  GLU440      0.0429
    117  CG       -22.5210  -61.8980   98.4750 C.3   440  GLU440      0.1163
    118  CD       -23.7380  -62.6720   98.8950 C.2   440  GLU440      0.3649
    119  OE1      -24.0210  -62.6820  100.1190 O.co2 440  GLU440     -0.2457
    120  OE2      -24.3990  -63.2650   98.0070 O.co2 440  GLU440     -0.2457
    121  N        -22.3750  -59.7820  102.6760 N.am  441  LYS441     -0.1977
    122  CA       -21.7810  -59.5770  103.9900 C.3   441  LYS441      0.1596
    123  C        -21.0290  -60.8370  104.4860 C.2   441  LYS441      0.2287
    124  O        -21.4690  -61.9700  104.2630 O.2   441  LYS441     -0.2864
    125  CB       -22.8590  -59.1270  104.9780 C.3   441  LYS441      0.0298
    126  CG       -23.4300  -57.7520  104.6310 C.3   441  LYS441      0.0038
    127  CD       -24.8020  -57.5760  105.2500 C.3   441  LYS441      0.0206
    128  CE       -25.4410  -56.2960  104.7100 C.3   441  LYS441      0.1093
    129  NZ       -26.6590  -55.9450  105.4960 N.3   441  LYS441     -0.1314
    130  N        -14.1120  -55.6730   93.2010 N.3   470  MET470     -0.1245
    131  CA       -15.0030  -56.1980   94.2390 C.3   470  MET470      0.1570
    132  C        -15.4980  -55.1290   95.2040 C.2   470  MET470      0.2261
    133  O        -16.5740  -55.2400   95.8000 O.2   470  MET470     -0.2867
    134  CB       -14.2910  -57.2860   95.0240 C.3   470  MET470      0.0387
    135  CG       -14.4550  -58.6490   94.4330 C.3   470  MET470      0.0595
    136  SD       -16.1980  -59.1040   94.4190 S.3   470  MET470     -0.1393
    137  CE       -16.0880  -60.7440   93.7090 C.3   470  MET470      0.0692
    138  N        -17.3350  -67.5670   98.9180 N.3   501  PHE501     -0.1241
    139  CA       -16.8750  -66.1720   98.9520 C.3   501  PHE501      0.1605
    140  C        -16.3330  -65.7680  100.3190 C.2   501  PHE501      0.2264
    141  O        -15.7880  -64.6830  100.4980 O.2   501  PHE501     -0.2867
    142  CB       -17.9890  -65.2250   98.5260 C.3   501  PHE501      0.0534
    143  CG       -19.1750  -65.2770   99.4180 C.ar  501  PHE501     -0.0203
    144  CD1      -19.3160  -64.3820  100.4670 C.ar  501  PHE501     -0.0042
    145  CD2      -20.1410  -66.2320   99.2370 C.ar  501  PHE501     -0.0042
    146  CE1      -20.4040  -64.4310  101.3020 C.ar  501  PHE501     -0.0003
    147  CE2      -21.2400  -66.2870  100.0860 C.ar  501  PHE501     -0.0003
    148  CZ       -21.3630  -65.3960  101.1190 C.ar  501  PHE501     -0.0000
@<TRIPOS>BOND
     1    49    48    2
     2    48    47    1
     3    70    69    2
     4    47    46    1
     5    47    50    1
     6    46    52    1
     7    69    68    1
     8    50    51    1
     9    52    51    1
    10    68    71    1
    11    68    67    1
    12    63    62    2
    13    67    62   am
    14    62    61    1
    15     1     2    1
    16    61    64    1
    17    61    60    1
    18    56    55    2
    19     2     3    1
    20     2     5    1
    21     7     5    1
    22    64    65    1
    23    60    66    1
    24     4     3    2
    25    53    54    1
    26    55    54    1
    27     3     9   am
    28     5     6    1
    29   130   131    1
    30     6     8    1
    31    59    57    1
    32    54    57    1
    33    66    65    1
    34   137   136    1
    35     9    15    1
    36     9    10    1
    37    45    44    1
    38   131   134    1
    39   131   132    1
    40    57    58    1
    41    15    14    1
    42   136   135    1
    43    10    11    1
    44    10    13    1
    45   135   134    1
    46    11    12    2
    47    44    42   ar
    48    44    43   ar
    49   132   133    2
    50    14    13    1
    51    42    40   ar
    52    43    41   ar
    53   107   106    2
    54   105   106    1
    55   105   104    1
    56   103   101    1
    57    40    39   ar
    58    41    39   ar
    59    37    36    2
    60   106   108   am
    61    39    38    1
    62   102   101    1
    63    36    35    1
    64   101   100    2
    65   104    95   am
    66   108   109    1
    67    38    35    1
    68   120   118   ar
    69    96    95    2
    70   100    99    1
    71    35    34    1
    72    95    94    1
    73   117   118    1
    74   117   116    1
    75    72    73    1
    76   142   139    1
    77   142   143    1
    78   109   110    1
    79    16    17    1
    80    98    99    1
    81    98    97    1
    82    19    18    2
    83   118   119   ar
    84   138   139    1
    85   139   140    1
    86    23    21   ar
    87    23    25   ar
    88    20    21    1
    89    20    17    1
    90    73    74    1
    91   110   112   am
    92   110   111    2
    93   145   143   ar
    94   145   147   ar
    95    34    28   am
    96   143   144   ar
    97    94    97    1
    98    94    93    1
    99   112   113    1
   100    21    22   ar
   101    17    18    1
   102    74    75    2
   103    29    28    2
   104   116   113    1
   105    18    26   am
   106    25    24   ar
   107    28    27    1
   108   147   148   ar
   109   113   114    1
   110   140   141    2
   111   144   146   ar
   112    22    24   ar
   113    26    27    1
   114    27    30    1
   115   148   146   ar
   116   114   115    2
   117   114   121   am
   118    30    31    1
   119    76    77    1
   120   121   122    1
   121    31    32    2
   122    31    33   am
   123    77    78    1
   124    79    78    2
   125    78    80   am
   126   122   123    1
   127   122   125    1
   128   124   123    2
   129   126   125    1
   130   126   127    1
   131   128   127    1
   132   128   129    1
   133    80    81    1
   134    81    82    1
   135    81    84    1
   136    83    82    2
   137    82    88   am
   138    92    89    1
   139    88    89    1
   140    89    90    1
   141    84    85    1
   142    90    91    2
   143    87    86    1
   144    85    86    1
