@<TRIPOS>MOLECULE
tmp/3rg9B01.pdb
 171 166 0 0 0
SMALL
GASTEIGER

@<TRIPOS>ATOM
      1  N         -0.9530    5.9610   32.4800 N.3    10  VAL10      -0.1231
      2  CA        -2.0970    5.3820   31.7930 C.3    10  VAL10       0.1692
      3  C         -1.8780    5.8800   30.3750 C.2    10  VAL10       0.2592
      4  O         -1.7270    7.0800   30.1470 O.2    10  VAL10      -0.2718
      5  CB        -3.4490    5.8990   32.3440 C.3    10  VAL10       0.0266
      6  CG1       -4.5930    5.1430   31.6820 C.3    10  VAL10       0.0020
      7  CG2       -3.5030    5.7050   33.8540 C.3    10  VAL10       0.0020
      8  N         -1.8330    4.9530   29.4280 N.am   11  VAL11      -0.1966
      9  CA        -1.5650    5.3020   28.0430 C.3    11  VAL11       0.1727
     10  C         -2.1570    4.2730   27.0990 C.2    11  VAL11       0.2616
     11  O         -2.4850    3.1580   27.5140 O.2    11  VAL11      -0.2715
     12  CB        -0.0250    5.3490   27.8060 C.3    11  VAL11       0.0290
     13  CG1        0.5930    4.0070   28.1950 C.3    11  VAL11       0.0023
     14  CG2        0.2970    5.6640   26.3480 C.3    11  VAL11       0.0023
     15  N         -2.3080    4.6660   25.8350 N.am   12  ALA12      -0.1977
     16  CA        -2.7950    3.7750   24.7870 C.3    12  ALA12       0.1597
     17  C         -1.7890    3.9410   23.6500 C.2    12  ALA12       0.2287
     18  O         -1.5480    5.0530   23.2000 O.2    12  ALA12      -0.2864
     19  CB        -4.1950    4.1880   24.3210 C.3    12  ALA12       0.0319
     20  N         -3.7730   14.9270   17.9570 N.3    24  THR24      -0.1203
     21  CA        -4.8260   14.0910   18.5160 C.3    24  THR24       0.1994
     22  C         -4.4750   12.6050   18.4940 C.2    24  THR24       0.2617
     23  O         -3.3570   12.2200   18.1330 O.2    24  THR24      -0.2717
     24  CB        -6.1540   14.3040   17.7510 C.3    24  THR24       0.1784
     25  OG1       -7.2390   13.7600   18.5150 O.3    24  THR24      -0.2211
     26  CG2       -6.1020   13.6190   16.3780 C.3    24  THR24       0.0376
     27  N         -5.4310   11.7820   18.9150 N.am   25  ILE25      -0.1979
     28  CA        -5.2720   10.3330   18.9260 C.3    25  ILE25       0.1595
     29  C         -5.9490    9.8530   17.6430 C.2    25  ILE25       0.2287
     30  O         -7.1250   10.1320   17.4100 O.2    25  ILE25      -0.2864
     31  CB        -5.9450    9.7270   20.1730 C.3    25  ILE25       0.0276
     32  CG1       -5.2260   10.2430   21.4250 C.3    25  ILE25       0.0022
     33  CG2       -5.8900    8.1980   20.1220 C.3    25  ILE25       0.0022
     34  CD1       -6.0460   10.1530   22.6850 C.3    25  ILE25       0.0001
     35  N         -6.9580    6.8060   16.6110 N.3    27  TRP27      -0.1241
     36  CA        -7.9660    5.7500   16.6450 C.3    27  TRP27       0.1605
     37  C         -9.1720    6.0740   17.5140 C.2    27  TRP27       0.2264
     38  O         -9.1150    6.9300   18.4020 O.2    27  TRP27      -0.2867
     39  CB        -7.3370    4.4370   17.1130 C.3    27  TRP27       0.0550
     40  CG        -6.5860    4.5750   18.3990 C.ar   27  TRP27       0.0003
     41  CD1       -7.1130    4.7570   19.6500 C.ar   27  TRP27       0.0946
     42  CD2       -5.1650    4.6030   18.5540 C.ar   27  TRP27       0.0152
     43  NE1       -6.1050    4.8980   20.5710 N.ar   27  TRP27      -0.2442
     44  CE2       -4.8980    4.8090   19.9260 C.ar   27  TRP27       0.0810
     45  CE3       -4.0880    4.4760   17.6660 C.ar   27  TRP27       0.0012
     46  CZ2       -3.5970    4.8920   20.4320 C.ar   27  TRP27       0.0191
     47  CZ3       -2.7950    4.5580   18.1690 C.ar   27  TRP27       0.0001
     48  CH2       -2.5610    4.7650   19.5380 C.ar   27  TRP27       0.0015
     49  N        -11.6330    1.8860   25.4520 N.3    32  ASP32      -0.1225
     50  CA       -10.4610    2.4370   26.1340 C.3    32  ASP32       0.1805
     51  C        -10.8160    3.7750   26.7840 C.2    32  ASP32       0.2597
     52  O        -10.3620    4.0830   27.8830 O.2    32  ASP32      -0.2718
     53  CB        -9.3160    2.6590   25.1460 C.3    32  ASP32       0.1424
     54  CG        -8.1830    3.4600   25.7520 C.2    32  ASP32       0.3668
     55  OD1       -7.4580    2.9140   26.6130 O.co2  32  ASP32      -0.2456
     56  OD2       -8.0330    4.6440   25.3800 O.co2  32  ASP32      -0.2456
     57  N        -11.6220    4.5770   26.0950 N.am   33  MET33      -0.1979
     58  CA       -12.0280    5.8700   26.6320 C.3    33  MET33       0.1605
     59  C        -12.7770    5.6770   27.9490 C.2    33  MET33       0.2287
     60  O        -12.5460    6.4070   28.9170 O.2    33  MET33      -0.2864
     61  CB       -12.9220    6.6070   25.6320 C.3    33  MET33       0.0413
     62  CG       -12.1710    7.2140   24.4460 C.3    33  MET33       0.0598
     63  SD       -11.1840    8.6610   24.9240 S.3    33  MET33      -0.1393
     64  CE       -10.0210    8.7360   23.5840 C.3    33  MET33       0.0692
     65  N        -12.6450    2.9400   29.9390 N.3    35  TYR35      -0.1227
     66  CA       -11.7410    2.3560   30.9230 C.3    35  TYR35       0.1736
     67  C        -10.8560    3.4560   31.4940 C.2    35  TYR35       0.2595
     68  O        -10.6630    3.5420   32.7110 O.2    35  TYR35      -0.2718
     69  CB       -10.8640    1.2650   30.2930 C.3    35  TYR35       0.0548
     70  CG        -9.9870    0.5390   31.2960 C.ar   35  TYR35      -0.0200
     71  CD1       -8.5930    0.6010   31.2140 C.ar   35  TYR35      -0.0009
     72  CD2      -10.5530   -0.1990   32.3370 C.ar   35  TYR35      -0.0009
     73  CE1       -7.7830   -0.0560   32.1470 C.ar   35  TYR35       0.0417
     74  CE2       -9.7570   -0.8560   33.2760 C.ar   35  TYR35       0.0417
     75  CZ        -8.3750   -0.7810   33.1770 C.ar   35  TYR35       0.1957
     76  OH        -7.5950   -1.4120   34.1210 O.3    35  TYR35      -0.2866
     77  N        -10.3260    4.3020   30.6150 N.am   36  PHE36      -0.1976
     78  CA        -9.4710    5.4000   31.0580 C.3    36  PHE36       0.1639
     79  C        -10.1820    6.2660   32.0930 C.2    36  PHE36       0.2290
     80  O         -9.6060    6.6120   33.1240 O.2    36  PHE36      -0.2864
     81  CB        -9.0390    6.2720   29.8710 C.3    36  PHE36       0.0560
     82  CG        -8.4170    7.5880   30.2810 C.ar   36  PHE36      -0.0200
     83  CD1       -9.1970    8.7410   30.3790 C.ar   36  PHE36      -0.0042
     84  CD2       -7.0690    7.6630   30.6250 C.ar   36  PHE36      -0.0042
     85  CE1       -8.6450    9.9450   30.8150 C.ar   36  PHE36      -0.0003
     86  CE2       -6.5070    8.8670   31.0640 C.ar   36  PHE36      -0.0003
     87  CZ        -7.2980   10.0070   31.1590 C.ar   36  PHE36      -0.0000
     88  N         -1.6610   18.0600   25.2920 N.3    64  THR64      -0.1218
     89  CA        -2.6610   17.0340   25.5670 C.3    64  THR64       0.1862
     90  C         -3.9300   17.7130   26.0870 C.2    64  THR64       0.2287
     91  O         -5.0480   17.2850   25.7920 O.2    64  THR64      -0.2866
     92  CB        -2.1350   16.0310   26.6030 C.3    64  THR64       0.1770
     93  OG1       -1.0660   15.2770   26.0170 O.3    64  THR64      -0.2211
     94  CG2       -3.2380   15.0910   27.0610 C.3    64  THR64       0.0375
     95  N         -5.7190   19.0090   23.2610 N.3    67  SER67      -0.1202
     96  CA        -6.3160   17.9390   22.4630 C.3    67  SER67       0.2020
     97  C         -7.6800   17.5110   22.9950 C.2    67  SER67       0.2619
     98  O         -8.4730   16.9000   22.2750 O.2    67  SER67      -0.2717
     99  CB        -5.3890   16.7230   22.4260 C.3    67  SER67       0.2103
    100  OG        -5.4140   16.0250   23.6610 O.3    67  SER67      -0.2182
    101  N         -7.9480   17.8260   24.2570 N.am   68  LEU68      -0.1966
    102  CA        -9.2130   17.4640   24.8800 C.3    68  LEU68       0.1713
    103  C        -10.4040   18.2160   24.2920 C.2    68  LEU68       0.2458
    104  O        -10.4100   19.4430   24.2420 O.2    68  LEU68      -0.2730
    105  CB        -9.1520   17.7360   26.3830 C.3    68  LEU68       0.0310
    106  CG        -8.1260   16.9610   27.2090 C.3    68  LEU68       0.0022
    107  CD1       -8.1750   17.4270   28.6510 C.3    68  LEU68       0.0001
    108  CD2       -8.4240   15.4710   27.1230 C.3    68  LEU68       0.0001
    109  N        -11.4250   17.4860   23.8170 N.am   69  PRO69      -0.2727
    110  CA       -12.5830   18.1920   23.2590 C.3    69  PRO69       0.1402
    111  C        -13.3160   18.9030   24.4010 C.2    69  PRO69       0.2269
    112  O        -13.1030   18.5880   25.5740 O.2    69  PRO69      -0.2865
    113  CB       -13.4130   17.0650   22.6470 C.3    69  PRO69       0.0296
    114  CG       -12.3600   16.0510   22.2500 C.3    69  PRO69       0.0237
    115  CD       -11.4560   16.0550   23.4610 C.3    69  PRO69       0.0939
    116  N        -14.6430   17.0800   27.3960 N.3    72  PHE72      -0.1241
    117  CA       -13.6340   16.4450   28.2380 C.3    72  PHE72       0.1605
    118  C        -12.6610   17.4430   28.8600 C.2    72  PHE72       0.2264
    119  O        -11.6350   17.0490   29.4160 O.2    72  PHE72      -0.2867
    120  CB       -12.8310   15.4360   27.4110 C.3    72  PHE72       0.0534
    121  CG       -13.6570   14.3170   26.8380 C.ar   72  PHE72      -0.0203
    122  CD1      -13.9590   13.1930   27.6010 C.ar   72  PHE72      -0.0042
    123  CD2      -14.1260   14.3840   25.5280 C.ar   72  PHE72      -0.0042
    124  CE1      -14.7170   12.1480   27.0660 C.ar   72  PHE72      -0.0003
    125  CE2      -14.8850   13.3450   24.9850 C.ar   72  PHE72      -0.0003
    126  CZ       -15.1790   12.2260   25.7560 C.ar   72  PHE72      -0.0000
    127  N        -10.9810   17.2200   32.5990 N.3    75  LEU75      -0.1245
    128  CA       -11.4410   15.8600   32.8300 C.3    75  LEU75       0.1561
    129  C        -12.1720   15.8650   34.1740 C.2    75  LEU75       0.2260
    130  O        -11.5600   16.0560   35.2220 O.2    75  LEU75      -0.2867
    131  CB       -10.2420   14.9070   32.8420 C.3    75  LEU75       0.0270
    132  CG        -9.5020   14.8260   31.4970 C.3    75  LEU75       0.0019
    133  CD1       -8.1800   14.0850   31.6680 C.3    75  LEU75       0.0001
    134  CD2      -10.3830   14.1240   30.4660 C.3    75  LEU75       0.0001
    135  N         -0.8960   11.1300   32.2390 N.3   138  ILE138     -0.1245
    136  CA        -1.6750   10.7550   31.0700 C.3   138  ILE138      0.1561
    137  C         -1.2350   11.2790   29.7020 C.2   138  ILE138      0.2260
    138  O         -2.0500   11.3390   28.7790 O.2   138  ILE138     -0.2867
    139  CB        -3.1610   11.1350   31.2810 C.3   138  ILE138      0.0252
    140  CG1       -3.3120   12.6590   31.3490 C.3   138  ILE138      0.0019
    141  CG2       -3.6760   10.4990   32.5740 C.3   138  ILE138      0.0019
    142  CD1       -4.7610   13.1250   31.4400 C.3   138  ILE138      0.0001
    143  N          5.3980   11.4860   28.9390 N.3   144  TYR144     -0.1241
    144  CA         5.6260   10.0490   29.0940 C.3   144  TYR144      0.1605
    145  C          7.1300    9.7620   29.1480 C.2   144  TYR144      0.2264
    146  O          7.5870    8.9100   29.9180 O.2   144  TYR144     -0.2867
    147  CB         5.0230    9.2640   27.9210 C.3   144  TYR144      0.0534
    148  CG         3.5130    9.1270   27.9210 C.ar  144  TYR144     -0.0201
    149  CD1        2.8180    8.8300   29.0920 C.ar  144  TYR144     -0.0009
    150  CD2        2.7880    9.2240   26.7320 C.ar  144  TYR144     -0.0009
    151  CE1        1.4380    8.6270   29.0810 C.ar  144  TYR144      0.0417
    152  CE2        1.4070    9.0210   26.7080 C.ar  144  TYR144      0.0417
    153  CZ         0.7420    8.7210   27.8850 C.ar  144  TYR144      0.1957
    154  OH        -0.6140    8.4920   27.8680 O.3   144  TYR144     -0.2866
    155  N         -0.5710    1.4470   33.0980 N.3   160  HIS160     -0.1241
    156  CA        -1.8180    0.8560   32.6390 C.3   160  HIS160      0.1621
    157  C         -1.8370    1.1820   31.1550 C.2   160  HIS160      0.2264
    158  O         -2.2480    2.2710   30.7500 O.2   160  HIS160     -0.2867
    159  CB        -3.0060    1.5120   33.3490 C.3   160  HIS160      0.0745
    160  CG        -2.9960    1.3200   34.8320 C.ar  160  HIS160      0.0817
    161  ND1       -3.4950    0.1870   35.4400 N.ar  160  HIS160     -0.2268
    162  CD2       -2.4940    2.0910   35.8280 C.ar  160  HIS160      0.1154
    163  CE1       -3.3010    0.2680   36.7440 C.ar  160  HIS160      0.1986
    164  NE2       -2.6940    1.4120   37.0060 N.ar  160  HIS160     -0.2212
    165  N         -2.9670    0.4110   27.1740 N.3   162  THR162     -0.1218
    166  CA        -3.9290   -0.2100   26.2840 C.3   162  THR162      0.1862
    167  C         -3.1150   -0.4690   25.0200 C.2   162  THR162      0.2287
    168  O         -2.6250    0.4710   24.3890 O.2   162  THR162     -0.2866
    169  CB        -5.1070    0.7270   25.9510 C.3   162  THR162      0.1770
    170  OG1       -5.8060    1.0660   27.1530 O.3   162  THR162     -0.2211
    171  CG2       -6.0700    0.0460   24.9960 C.3   162  THR162      0.0375
@<TRIPOS>BOND
     1    26    24    1
     2    35    36    1
     3    36    39    1
     4    36    37    1
     5    39    40    1
     6    30    29    2
     7    37    38    2
     8    29    28    1
     9    45    47   ar
    10    45    42   ar
    11    24    25    1
    12    24    21    1
    13    20    21    1
    14    23    22    2
    15    47    48   ar
    16    40    42   ar
    17    40    41   ar
    18    22    21    1
    19    22    27   am
    20    42    44   ar
    21    27    28    1
    22    28    31    1
    23    48    46   ar
    24    41    43   ar
    25    44    46   ar
    26    44    43   ar
    27    33    31    1
    28    31    32    1
    29    32    34    1
    30   114   113    1
    31   114   115    1
    32    98    97    2
    33    99    96    1
    34    99   100    1
    35    96    97    1
    36    96    95    1
    37   113   110    1
    38    97   101   am
    39    18    17    2
    40   110   109    1
    41   110   111    1
    42   115   109    1
    43    64    63    1
    44    17    16    1
    45   109   103   am
    46   104   103    2
    47   101   102    1
    48   103   102    1
    49    19    16    1
    50   168   167    2
    51   111   112    2
    52    62    63    1
    53    62    61    1
    54    16    15    1
    55   102   105    1
    56   125   123   ar
    57   125   126   ar
    58   171   169    1
    59   167   166    1
    60    53    54    1
    61    53    50    1
    62    88    89    1
    63    56    54   ar
    64    49    50    1
    65   123   121   ar
    66    89    90    1
    67    89    92    1
    68    61    58    1
    69    54    55   ar
    70   126   124   ar
    71    91    90    2
    72    15    10   am
    73   169   166    1
    74   169   170    1
    75    93    92    1
    76    57    58    1
    77    57    51   am
    78    50    51    1
    79   166   165    1
    80    14    12    1
    81   105   106    1
    82    92    94    1
    83    58    59    1
    84   152   150   ar
    85   152   153   ar
    86   150   148   ar
    87    51    52    2
    88   121   120    1
    89   121   122   ar
    90   124   122   ar
    91    10    11    2
    92    10     9    1
    93   108   106    1
    94   106   107    1
    95   116   117    1
    96   120   117    1
    97    12     9    1
    98    12    13    1
    99   154   153    1
   100   153   151   ar
   101   148   147    1
   102   148   149   ar
   103   147   144    1
   104    59    60    2
   105     9     8    1
   106   117   118    1
   107   138   137    2
   108   118   119    2
   109   143   144    1
   110   151   149   ar
   111   144   145    1
   112   145   146    2
   113     8     3   am
   114   137   136    1
   115    81    82    1
   116    81    78    1
   117    65    66    1
   118     4     3    2
   119    82    83   ar
   120    82    84   ar
   121    69    66    1
   122    69    70    1
   123     3     2    1
   124    83    85   ar
   125   134   132    1
   126    77    78    1
   127    77    67   am
   128    84    86   ar
   129   158   157    2
   130    85    87   ar
   131    66    67    1
   132    78    79    1
   133    86    87   ar
   134   136   139    1
   135   136   135    1
   136   157   156    1
   137    71    70   ar
   138    71    73   ar
   139   139   140    1
   140   139   141    1
   141    70    72   ar
   142   140   142    1
   143    67    68    2
   144   132   133    1
   145   132   131    1
   146     6     5    1
   147     2     5    1
   148     2     1    1
   149    79    80    2
   150    73    75   ar
   151    72    74   ar
   152     5     7    1
   153   127   128    1
   154   156   155    1
   155   156   159    1
   156   128   131    1
   157   128   129    1
   158    75    74   ar
   159    75    76    1
   160   159   160    1
   161   129   130    2
   162   160   161   ar
   163   160   162   ar
   164   161   163   ar
   165   162   164   ar
   166   163   164   ar
