@<TRIPOS>MOLECULE
tmp/3rgaA01.pdb
 217 206 0 0 0
SMALL
GASTEIGER

@<TRIPOS>ATOM
      1  N         36.9160   34.9160   13.2340 N.3    75  HIS75      -0.1241
      2  CA        36.3310   33.7680   13.8760 C.3    75  HIS75       0.1621
      3  C         37.3640   32.6930   14.1040 C.2    75  HIS75       0.2264
      4  O         37.0310   31.5240   14.2320 O.2    75  HIS75      -0.2867
      5  CB        35.2140   33.2320   12.9810 C.3    75  HIS75       0.0745
      6  CG        34.2630   32.3240   13.6650 C.ar   75  HIS75       0.0817
      7  ND1       33.6550   32.6240   14.8530 N.ar   75  HIS75      -0.2268
      8  CD2       33.8120   31.0480   13.2980 C.ar   75  HIS75       0.1154
      9  CE1       32.8560   31.5920   15.2010 C.ar   75  HIS75       0.1986
     10  NE2       32.9660   30.6300   14.2500 N.ar   75  HIS75      -0.2212
     11  N         35.0910   45.3610   -6.3780 N.3   147  HIS147     -0.1241
     12  CA        34.3380   44.2020   -5.8580 C.3   147  HIS147      0.1621
     13  C         33.0090   44.6140   -5.2590 C.2   147  HIS147      0.2264
     14  O         31.9800   44.0950   -5.6240 O.2   147  HIS147     -0.2867
     15  CB        35.2160   43.4580   -4.8790 C.3   147  HIS147      0.0745
     16  CG        34.5420   42.3460   -4.1360 C.ar  147  HIS147      0.0817
     17  ND1       34.9760   41.0780   -4.2350 N.ar  147  HIS147     -0.2268
     18  CD2       33.4370   42.3280   -3.2640 C.ar  147  HIS147      0.1154
     19  CE1       34.2200   40.2790   -3.4620 C.ar  147  HIS147      0.1986
     20  NE2       33.2610   41.0460   -2.8550 N.ar  147  HIS147     -0.2212
     21  N         35.7590   33.4580    4.2620 N.3   171  ASP171     -0.1225
     22  CA        34.7780   34.4000    4.7930 C.3   171  ASP171      0.1790
     23  C         33.9180   33.8120    5.8790 C.2   171  ASP171      0.2439
     24  O         33.1050   32.9640    5.5500 O.2   171  ASP171     -0.2733
     25  CB        33.8870   34.8310    3.6230 C.3   171  ASP171      0.1423
     26  CG        32.7610   35.7600    4.0340 C.2   171  ASP171      0.3668
     27  OD1       32.9210   36.4420    5.0520 O.co2 171  ASP171     -0.2456
     28  OD2       31.6720   35.7550    3.3440 O.co2 171  ASP171     -0.2456
     29  N         34.0650   34.2240    7.1490 N.am  172  PRO172     -0.2729
     30  CA        35.0700   35.0810    7.7400 C.3   172  PRO172      0.1401
     31  C         36.3480   34.2930    7.8640 C.2   172  PRO172      0.2269
     32  O         36.3520   33.0450    7.7840 O.2   172  PRO172     -0.2865
     33  CB        34.5060   35.3640    9.1230 C.3   172  PRO172      0.0296
     34  CG        33.7730   34.1850    9.4570 C.3   172  PRO172      0.0237
     35  CD        33.1940   33.6500    8.1860 C.3   172  PRO172      0.0939
     36  N         38.7990   32.2100    9.6890 N.3   174  GLY174     -0.1210
     37  CA        38.4850   31.2380   10.6980 C.3   174  GLY174      0.1956
     38  C         37.3560   30.2900   10.3350 C.2   174  GLY174      0.2613
     39  O         36.7560   29.6290   11.2230 O.2   174  GLY174     -0.2717
     40  N         37.0310   30.2390    9.0640 N.am  175  SER175     -0.1938
     41  CA        36.0390   29.2770    8.5770 C.3   175  SER175      0.2055
     42  C         36.7590   28.2060    7.7700 C.2   175  SER175      0.2643
     43  O         37.2600   27.2270    8.3590 O.2   175  SER175     -0.2714
     44  CB        34.9230   29.9890    7.8320 C.3   175  SER175      0.2130
     45  OG        35.3220   30.7710    6.7220 O.3   175  SER175     -0.2179
     46  N         36.8080   28.3380    6.4480 N.am  176  TRP176     -0.1973
     47  CA        37.5130   27.4180    5.5760 C.3   176  TRP176      0.1640
     48  C         37.7860   28.1630    4.2760 C.2   176  TRP176      0.2290
     49  O         37.1270   29.1660    3.9340 O.2   176  TRP176     -0.2864
     50  CB        36.6600   26.1760    5.2660 C.3   176  TRP176      0.0576
     51  CG        35.2650   26.5540    4.8760 C.ar  176  TRP176      0.0006
     52  CD1       34.7580   26.9070    3.6110 C.ar  176  TRP176      0.0946
     53  CD2       34.1440   26.6710    5.7890 C.ar  176  TRP176      0.0152
     54  NE1       33.4190   27.2390    3.7050 N.ar  176  TRP176     -0.2442
     55  CE2       33.0030   27.1430    4.9930 C.ar  176  TRP176      0.0810
     56  CE3       33.9810   26.4550    7.1400 C.ar  176  TRP176      0.0012
     57  CZ2       31.7380   27.3340    5.5690 C.ar  176  TRP176      0.0191
     58  CZ3       32.7240   26.6840    7.7230 C.ar  176  TRP176      0.0001
     59  CH2       31.6390   27.1290    6.9460 C.ar  176  TRP176      0.0015
     60  N         37.4670   28.4240    0.3150 N.3   178  ARG178     -0.1245
     61  CA        36.7380   27.9730   -0.8710 C.3   178  ARG178      0.1563
     62  C         37.6560   28.2610   -2.0820 C.2   178  ARG178      0.2260
     63  O         38.3840   29.2640   -2.0570 O.2   178  ARG178     -0.2867
     64  CB        35.4520   28.7810   -1.0750 C.3   178  ARG178      0.0307
     65  CG        34.4350   28.7110    0.0240 C.3   178  ARG178      0.0489
     66  CD        34.7360   29.5850    1.1970 C.3   178  ARG178      0.2205
     67  NE        33.5200   30.0240    1.8860 N.pl3 178  ARG178     -0.0865
     68  CZ        33.5060   30.5180    3.1260 C.cat 178  ARG178      0.5346
     69  NH1       34.6100   30.6180    3.8710 N.pl3 178  ARG178      0.1354
     70  NH2       32.3530   30.9190    3.6320 N.pl3 178  ARG178      0.1354
     71  N         28.5660   32.0130   -3.9270 N.3   187  HIS187     -0.1241
     72  CA        28.6500   32.9010   -2.7810 C.3   187  HIS187      0.1621
     73  C         28.0750   34.2670   -3.1660 C.2   187  HIS187      0.2264
     74  O         27.1940   34.7990   -2.4790 O.2   187  HIS187     -0.2867
     75  CB        30.1210   33.0270   -2.4240 C.3   187  HIS187      0.0745
     76  CG        30.4060   33.9230   -1.2690 C.ar  187  HIS187      0.0817
     77  ND1       30.2850   33.5060   -0.0030 N.ar  187  HIS187     -0.2268
     78  CD2       30.8740   35.2260   -1.2160 C.ar  187  HIS187      0.1154
     79  CE1       30.6250   34.4910    0.8430 C.ar  187  HIS187      0.1986
     80  NE2       31.0510   35.5280    0.1110 N.ar  187  HIS187     -0.2212
     81  N         24.2480   34.0820   -3.7120 N.3   190  MET190     -0.1230
     82  CA        23.5820   34.1400   -2.3970 C.3   190  MET190      0.1702
     83  C         23.5660   35.5890   -1.8730 C.2   190  MET190      0.2592
     84  O         22.5110   36.0590   -1.3770 O.2   190  MET190     -0.2718
     85  CB        24.2290   33.1830   -1.3840 C.3   190  MET190      0.0401
     86  CG        23.4470   33.0300   -0.0800 C.3   190  MET190      0.0596
     87  SD        23.9990   34.2270    1.1420 S.3   190  MET190     -0.1393
     88  CE        22.4950   34.4660    2.0650 C.3   190  MET190      0.0692
     89  N         24.6820   36.3120   -2.0350 N.am  191  ALA191     -0.1980
     90  CA        24.7700   37.6980   -1.5520 C.3   191  ALA191      0.1597
     91  C         23.6940   38.5520   -2.2320 C.2   191  ALA191      0.2287
     92  O         22.9250   39.2680   -1.5730 O.2   191  ALA191     -0.2864
     93  CB        26.1550   38.2960   -1.8370 C.3   191  ALA191      0.0319
     94  N         22.4630   42.0090   -0.3610 N.3   196  VAL196     -0.1245
     95  CA        23.7000   42.5110    0.2490 C.3   196  VAL196      0.1561
     96  C         24.0620   43.8920   -0.3800 C.2   196  VAL196      0.2260
     97  O         23.9460   44.0990   -1.5890 O.2   196  VAL196     -0.2867
     98  CB        24.8910   41.5170    0.0720 C.3   196  VAL196      0.0252
     99  CG1       26.2190   42.1780    0.3640 C.3   196  VAL196      0.0019
    100  CG2       24.7040   40.2750    0.9930 C.3   196  VAL196      0.0019
    101  N         27.3770   46.6030    0.1320 N.3   198  GLU198     -0.1245
    102  CA        28.7300   46.6970    0.6560 C.3   198  GLU198      0.1567
    103  C         29.2250   48.1330    0.4020 C.2   198  GLU198      0.2260
    104  O         29.4400   48.5120   -0.7680 O.2   198  GLU198     -0.2867
    105  CB        29.6720   45.7150   -0.0340 C.3   198  GLU198      0.0388
    106  CG        29.3220   44.2650    0.2860 C.3   198  GLU198      0.1160
    107  CD        30.0680   43.2330   -0.4780 C.2   198  GLU198      0.3649
    108  OE1       31.0400   43.5800   -1.2000 O.co2 198  GLU198     -0.2457
    109  OE2       29.6840   42.0130   -0.3700 O.co2 198  GLU198     -0.2457
    110  N         28.4960   46.5640    5.5880 N.3   218  ALA218     -0.1245
    111  CA        27.5270   45.8190    4.8060 C.3   218  ALA218      0.1562
    112  C         26.1800   45.6980    5.5380 C.2   218  ALA218      0.2260
    113  O         26.0700   45.6630    6.7610 O.2   218  ALA218     -0.2867
    114  CB        28.0500   44.4160    4.4630 C.3   218  ALA218      0.0290
    115  N         22.3410   43.2720    4.8660 N.3   220  MET220     -0.1245
    116  CA        21.6970   42.2020    4.1010 C.3   220  MET220      0.1570
    117  C         20.4400   41.7680    4.8180 C.2   220  MET220      0.2261
    118  O         20.2550   42.0610    6.0000 O.2   220  MET220     -0.2867
    119  CB        22.6450   41.0430    3.9830 C.3   220  MET220      0.0387
    120  CG        22.9100   40.4480    5.3540 C.3   220  MET220      0.0595
    121  SD        24.5100   39.6280    5.4470 S.3   220  MET220     -0.1393
    122  CE        25.5440   41.1200    5.3640 C.3   220  MET220      0.0692
    123  N         20.8340   34.4480    6.3800 N.3   225  SER225     -0.1217
    124  CA        22.1280   34.4310    7.0980 C.3   225  SER225      0.1889
    125  C         22.0200   34.4300    8.6200 C.2   225  SER225      0.2288
    126  O         22.8190   33.7580    9.3210 O.2   225  SER225     -0.2866
    127  CB        23.0090   35.5980    6.6610 C.3   225  SER225      0.2089
    128  OG        23.4410   35.3640    5.3330 O.3   225  SER225     -0.2183
    129  N         21.8150   31.1520   10.6110 N.3   228  LEU228     -0.1231
    130  CA        23.0790   30.4340   10.4560 C.3   228  LEU228      0.1693
    131  C         24.1500   31.0980   11.3210 C.2   228  LEU228      0.2591
    132  O         24.8900   30.4040   12.0310 O.2   228  LEU228     -0.2718
    133  CB        23.5370   30.4060    8.9900 C.3   228  LEU228      0.0284
    134  CG        22.5800   29.6880    8.0140 C.3   228  LEU228      0.0019
    135  CD1       23.2030   29.7590    6.6080 C.3   228  LEU228      0.0001
    136  CD2       22.2320   28.2700    8.4660 C.3   228  LEU228      0.0001
    137  N         24.2740   32.4250   11.2600 N.am  229  LEU229     -0.1980
    138  CA        25.2240   33.0970   12.1420 C.3   229  LEU229      0.1596
    139  C         24.9700   32.7580   13.6130 C.2   229  LEU229      0.2287
    140  O         25.8970   32.4630   14.3900 O.2   229  LEU229     -0.2864
    141  CB        25.1480   34.6040   11.9390 C.3   229  LEU229      0.0297
    142  CG        25.5790   35.0780   10.5420 C.3   229  LEU229      0.0022
    143  CD1       25.4240   36.5970   10.3710 C.3   229  LEU229      0.0001
    144  CD2       26.9850   34.6490   10.1500 C.3   229  LEU229      0.0001
    145  N         26.2900   29.4810   14.7540 N.3   232  HIS232     -0.1241
    146  CA        27.7280   29.2900   14.7660 C.3   232  HIS232      0.1621
    147  C         28.4510   30.3580   15.5580 C.2   232  HIS232      0.2264
    148  O         29.6030   30.6610   15.2530 O.2   232  HIS232     -0.2867
    149  CB        28.2270   29.1840   13.3410 C.3   232  HIS232      0.0745
    150  CG        27.7870   27.9060   12.6790 C.ar  232  HIS232      0.0817
    151  ND1       26.7070   27.8300   11.8970 N.ar  232  HIS232     -0.2268
    152  CD2       28.2870   26.6080   12.7910 C.ar  232  HIS232      0.1154
    153  CE1       26.5580   26.5580   11.4790 C.ar  232  HIS232      0.1986
    154  NE2       27.5160   25.8150   12.0470 N.ar  232  HIS232     -0.2212
    155  N         28.1870   33.5620   15.7150 N.3   234  LEU234     -0.1245
    156  CA        28.5800   34.7710   14.9960 C.3   234  LEU234      0.1561
    157  C         27.5470   35.8990   15.0630 C.2   234  LEU234      0.2260
    158  O         27.7250   36.9510   14.4390 O.2   234  LEU234     -0.2867
    159  CB        28.8750   34.4100   13.5590 C.3   234  LEU234      0.0270
    160  CG        30.2330   33.7730   13.4060 C.3   234  LEU234      0.0019
    161  CD1       30.3380   33.2180   11.9990 C.3   234  LEU234      0.0001
    162  CD2       31.3480   34.8030   13.6840 C.3   234  LEU234      0.0001
    163  N         27.0790   44.0380    8.9960 N.3   250  ILE250     -0.1245
    164  CA        28.3930   43.5360    9.3130 C.3   250  ILE250      0.1561
    165  C         29.4230   44.5800    8.9480 C.2   250  ILE250      0.2260
    166  O         29.4330   45.0210    7.8250 O.2   250  ILE250     -0.2867
    167  CB        28.6920   42.2430    8.5280 C.3   250  ILE250      0.0252
    168  CG1       27.5710   41.2580    8.8110 C.3   250  ILE250      0.0019
    169  CG2       30.0830   41.7460    8.9700 C.3   250  ILE250      0.0019
    170  CD1       27.7540   39.8540    8.2200 C.3   250  ILE250      0.0001
    171  N         33.4120   44.8590    8.2660 N.3   252  TYR252     -0.1241
    172  CA        34.5140   43.9630    8.0380 C.3   252  TYR252      0.1605
    173  C         35.6460   44.6260    7.2820 C.2   252  TYR252      0.2264
    174  O         35.4450   45.7220    6.7380 O.2   252  TYR252     -0.2867
    175  CB        34.0340   42.7130    7.3160 C.3   252  TYR252      0.0534
    176  CG        33.4780   42.8580    5.8960 C.ar  252  TYR252     -0.0201
    177  CD1       32.1140   43.1190    5.6710 C.ar  252  TYR252     -0.0009
    178  CD2       34.2830   42.7160    4.7990 C.ar  252  TYR252     -0.0009
    179  CE1       31.6000   43.2170    4.3700 C.ar  252  TYR252      0.0417
    180  CE2       33.7690   42.8330    3.5080 C.ar  252  TYR252      0.0417
    181  CZ        32.4290   43.0490    3.3070 C.ar  252  TYR252      0.1957
    182  OH        31.9460   43.1290    2.0360 O.3   252  TYR252     -0.2866
    183  N         38.1150   43.5690    4.0680 N.3   254  MET254     -0.1245
    184  CA        38.3770   42.5600    3.0220 C.3   254  MET254      0.1570
    185  C         39.8060   42.7990    2.5910 C.2   254  MET254      0.2261
    186  O         40.1610   43.9450    2.2580 O.2   254  MET254     -0.2867
    187  CB        37.4070   42.7070    1.9000 C.3   254  MET254      0.0387
    188  CG        37.6660   41.7370    0.7920 C.3   254  MET254      0.0595
    189  SD        36.5640   41.7220   -0.6170 S.3   254  MET254     -0.1393
    190  CE        37.0720   43.2400   -1.3970 C.3   254  MET254      0.0692
    191  N         41.3410   36.1560   -1.3940 N.3   267  MET267     -0.1245
    192  CA        40.4350   37.1050   -0.7140 C.3   267  MET267      0.1570
    193  C         40.0460   36.5850    0.6490 C.2   267  MET267      0.2261
    194  O         39.7610   35.4140    0.7940 O.2   267  MET267     -0.2867
    195  CB        39.1710   37.3570   -1.5350 C.3   267  MET267      0.0387
    196  CG        38.2520   38.4310   -0.9790 C.3   267  MET267      0.0595
    197  SD        37.0340   37.8110    0.2190 S.3   267  MET267     -0.1393
    198  CE        35.7350   37.3400   -0.9180 C.3   267  MET267      0.0692
    199  N         37.9540   37.8950    4.4370 N.3   269  ALA269     -0.1245
    200  CA        37.1500   38.9120    5.0970 C.3   269  ALA269      0.1562
    201  C         37.3050   38.7130    6.6320 C.2   269  ALA269      0.2260
    202  O         37.0260   37.6170    7.1770 O.2   269  ALA269     -0.2867
    203  CB        35.6630   38.7680    4.6960 C.3   269  ALA269      0.0290
    204  N         35.9060   39.5400   10.0480 N.3   271  TRP271     -0.1241
    205  CA        34.8520   39.9740   10.9680 C.3   271  TRP271      0.1605
    206  C         34.5340   38.8660   11.9460 C.2   271  TRP271      0.2264
    207  O         34.7590   37.6890   11.6640 O.2   271  TRP271     -0.2867
    208  CB        33.5960   40.4110   10.2180 C.3   271  TRP271      0.0550
    209  CG        33.0520   39.4090    9.2420 C.ar  271  TRP271      0.0003
    210  CD1       33.5000   39.1370    7.9720 C.ar  271  TRP271      0.0946
    211  CD2       31.9760   38.4610    9.5090 C.ar  271  TRP271      0.0152
    212  NE1       32.7270   38.1240    7.4140 N.ar  271  TRP271     -0.2442
    213  CE2       31.8080   37.6740    8.2860 C.ar  271  TRP271      0.0810
    214  CE3       31.1810   38.1840   10.6080 C.ar  271  TRP271      0.0012
    215  CZ2       30.8610   36.6690    8.1910 C.ar  271  TRP271      0.0191
    216  CZ3       30.2090   37.1760   10.4960 C.ar  271  TRP271      0.0001
    217  CH2       30.0700   36.4330    9.3020 C.ar  271  TRP271      0.0015
@<TRIPOS>BOND
     1    11    12    1
     2    12    13    1
     3    12    15    1
     4    14    13    2
     5    15    16    1
     6    17    16   ar
     7    17    19   ar
     8    16    18   ar
     9    71    72    1
    10    81    82    1
    11    19    20   ar
    12    18    20   ar
    13    73    72    1
    14    73    74    2
    15    72    75    1
    16    75    76    1
    17    82    83    1
    18    82    85    1
    19    91    92    2
    20    91    90    1
    21    62    63    2
    22    62    61    1
    23    89    83   am
    24    89    90    1
    25    83    84    2
    26    93    90    1
    27    97    96    2
    28   195   196    1
    29   195   192    1
    30   190   189    1
    31   191   192    1
    32    85    86    1
    33    76    78   ar
    34    76    77   ar
    35    78    80   ar
    36   108   107   ar
    37    64    61    1
    38    64    65    1
    39   196   197    1
    40   198   197    1
    41    61    60    1
    42   104   103    2
    43   192   193    1
    44   189   188    1
    45   107   109   ar
    46   107   106    1
    47    96    95    1
    48    94    95    1
    49    86    87    1
    50   105   106    1
    51   105   102    1
    52    77    79   ar
    53    65    66    1
    54    98    95    1
    55    98    99    1
    56    98   100    1
    57    80    79   ar
    58   101   102    1
    59   103   102    1
    60   193   194    2
    61   188   187    1
    62    87    88    1
    63    66    67    1
    64    67    68    2
    65   187   184    1
    66   182   181    1
    67   186   185    2
    68   185   184    1
    69   184   183    1
    70    68    70    1
    71    68    69    1
    72   181   180   ar
    73   181   179   ar
    74    28    26   ar
    75   180   178   ar
    76    52    54   ar
    77    52    51   ar
    78    25    26    1
    79    25    22    1
    80    54    55   ar
    81    49    48    2
    82   119   116    1
    83   119   120    1
    84    26    27   ar
    85   116   117    1
    86   116   115    1
    87    21    22    1
    88    48    47    1
    89   179   177   ar
    90   199   200    1
    91   114   111    1
    92   203   200    1
    93    22    23    1
    94   178   176   ar
    95   111   112    1
    96   111   110    1
    97   117   118    2
    98    51    50    1
    99    51    53   ar
   100    55    57   ar
   101    55    53   ar
   102   200   201    1
   103    50    47    1
   104   128   127    1
   105   120   121    1
   106   122   121    1
   107   112   113    2
   108    24    23    2
   109    57    59   ar
   110    47    46    1
   111   177   176   ar
   112    53    56   ar
   113    23    29   am
   114   176   175    1
   115   123   124    1
   116    46    42   am
   117   135   134    1
   118   201   202    2
   119   127   124    1
   120    45    44    1
   121   174   173    2
   122    59    58   ar
   123   124   125    1
   124    56    58   ar
   125    29    30    1
   126    29    35    1
   127   173   172    1
   128   175   172    1
   129   212   210   ar
   130   212   213   ar
   131    30    31    1
   132    30    33    1
   133    42    43    2
   134    42    41    1
   135    32    31    2
   136   166   165    2
   137    44    41    1
   138   210   209   ar
   139   134   136    1
   140   134   133    1
   141   172   171    1
   142    35    34    1
   143   215   213   ar
   144   215   217   ar
   145   170   168    1
   146   213   211   ar
   147   167   168    1
   148   167   169    1
   149   167   164    1
   150    41    40    1
   151   125   126    2
   152   165   164    1
   153   133   130    1
   154   163   164    1
   155    40    38   am
   156    33    34    1
   157   209   211   ar
   158   209   208    1
   159   217   216   ar
   160   211   214   ar
   161    36    37    1
   162   204   205    1
   163   144   142    1
   164   208   205    1
   165    38    37    1
   166    38    39    2
   167   143   142    1
   168   130   129    1
   169   130   131    1
   170   216   214   ar
   171   142   141    1
   172   205   206    1
   173   137   131   am
   174   137   138    1
   175   131   132    2
   176   153   151   ar
   177   153   154   ar
   178   207   206    2
   179   151   150   ar
   180   141   138    1
   181   161   160    1
   182   154   152   ar
   183   138   139    1
   184   150   152   ar
   185   150   149    1
   186     5     6    1
   187     5     2    1
   188     1     2    1
   189     8     6   ar
   190     8    10   ar
   191   149   146    1
   192   160   159    1
   193   160   162    1
   194   159   156    1
   195   139   140    2
   196     6     7   ar
   197     2     3    1
   198     3     4    2
   199    10     9   ar
   200   158   157    2
   201   145   146    1
   202   146   147    1
   203     7     9   ar
   204   156   157    1
   205   156   155    1
   206   148   147    2
