@<TRIPOS>MOLECULE
tmp/3rgaA00.pdb
 175 160 0 0 0
SMALL
GASTEIGER

@<TRIPOS>ATOM
      1  N         44.8820   45.1000   20.5660 N.3    12  ALA12      -0.1245
      2  CA        45.2690   45.9170   19.4280 C.3    12  ALA12       0.1562
      3  C         45.2980   47.4100   19.8020 C.2    12  ALA12       0.2260
      4  O         46.2670   48.0790   19.5440 O.2    12  ALA12      -0.2867
      5  CB        44.3520   45.6500   18.2290 C.3    12  ALA12       0.0290
      6  N         48.1610   48.2680   22.2160 N.3    15  TYR15      -0.1227
      7  CA        49.4380   48.4470   21.5320 C.3    15  TYR15       0.1736
      8  C         49.5960   49.9460   21.1850 C.2    15  TYR15       0.2595
      9  O         50.6450   50.5600   21.4630 O.2    15  TYR15      -0.2718
     10  CB        49.5360   47.5500   20.2770 C.3    15  TYR15       0.0548
     11  CG        50.7130   47.9150   19.4010 C.ar   15  TYR15      -0.0200
     12  CD1       51.9730   47.4450   19.6780 C.ar   15  TYR15      -0.0009
     13  CD2       50.5390   48.7070   18.3000 C.ar   15  TYR15      -0.0009
     14  CE1       53.0320   47.7710   18.8600 C.ar   15  TYR15       0.0417
     15  CE2       51.6010   49.0660   17.5200 C.ar   15  TYR15       0.0417
     16  CZ        52.8510   48.5950   17.8300 C.ar   15  TYR15       0.1957
     17  OH        53.9690   48.9380   17.0630 O.3    15  TYR15      -0.2866
     18  N         48.5800   50.5330   20.5830 N.am   16  CYS16      -0.1970
     19  CA        48.6300   51.9310   20.1890 C.3    16  CYS16       0.1712
     20  C         48.8130   52.8000   21.4390 C.2    16  CYS16       0.2296
     21  O         49.6220   53.7430   21.4620 O.2    16  CYS16      -0.2864
     22  CB        47.3620   52.3220   19.4890 C.3    16  CYS16       0.0983
     23  SG        47.1620   51.5910   17.8620 S.3    16  CYS16      -0.0798
     24  N         57.1830   40.5050   13.5960 N.3    37  LEU37      -0.1245
     25  CA        56.6380   41.7430   13.0380 C.3    37  LEU37       0.1561
     26  C         57.0460   41.8830   11.5650 C.2    37  LEU37       0.2260
     27  O         58.2360   41.8050   11.2270 O.2    37  LEU37      -0.2867
     28  CB        57.1540   42.9600   13.8170 C.3    37  LEU37       0.0270
     29  CG        56.9240   44.3640   13.1830 C.3    37  LEU37       0.0019
     30  CD1       55.4360   44.7130   13.1850 C.3    37  LEU37       0.0001
     31  CD2       57.7650   45.4230   13.8700 C.3    37  LEU37       0.0001
     32  N         56.7550   44.7220    8.7460 N.3    39  ASP39      -0.1239
     33  CA        56.3440   46.0770    8.4260 C.3    39  ASP39       0.1674
     34  C         57.4430   46.7140    7.5890 C.2    39  ASP39       0.2266
     35  O         58.5700   46.8290    8.0670 O.2    39  ASP39      -0.2867
     36  CB        56.1210   46.8900    9.7160 C.3    39  ASP39       0.1410
     37  CG        55.8700   48.3730    9.4420 C.2    39  ASP39       0.3668
     38  OD1       55.3530   48.6820    8.3450 O.co2  39  ASP39      -0.2456
     39  OD2       56.1980   49.2330   10.3090 O.co2  39  ASP39      -0.2456
     40  N         63.8120   47.7110   16.5360 N.3    55  ARG55      -0.1231
     41  CA        62.9770   48.2650   15.4910 C.3    55  ARG55       0.1694
     42  C         62.0990   49.4220   15.9820 C.2    55  ARG55       0.2591
     43  O         61.8970   50.3700   15.2600 O.2    55  ARG55      -0.2718
     44  CB        62.1120   47.1550   14.8570 C.3    55  ARG55       0.0321
     45  CG        61.0340   47.6260   13.9050 C.3    55  ARG55       0.0489
     46  CD        61.5920   48.1870   12.6060 C.3    55  ARG55       0.2205
     47  NE        61.9960   47.2030   11.6130 N.pl3  55  ARG55      -0.0865
     48  CZ        61.1940   46.6590   10.6870 C.cat  55  ARG55       0.5346
     49  NH1       59.8870   46.9500   10.6270 N.pl3  55  ARG55       0.1354
     50  NH2       61.6880   45.7770    9.8230 N.pl3  55  ARG55       0.1354
     51  N         61.5610   49.3210   17.1940 N.am   56  LEU56      -0.1980
     52  CA        60.6100   50.3000   17.7070 C.3    56  LEU56       0.1596
     53  C         61.2800   51.5040   18.3560 C.2    56  LEU56       0.2287
     54  O         60.7030   52.5810   18.3540 O.2    56  LEU56      -0.2864
     55  CB        59.7050   49.6570   18.7630 C.3    56  LEU56       0.0297
     56  CG        58.5500   48.7520   18.2950 C.3    56  LEU56       0.0022
     57  CD1       58.2880   47.6020   19.2640 C.3    56  LEU56       0.0001
     58  CD2       57.2700   49.5620   18.1100 C.3    56  LEU56       0.0001
     59  N         61.4020   54.8230   16.4920 N.3    59  ALA59      -0.1245
     60  CA        60.0690   55.4350   16.3390 C.3    59  ALA59       0.1562
     61  C         59.6480   56.1160   17.6520 C.2    59  ALA59       0.2260
     62  O         59.1480   57.2470   17.6510 O.2    59  ALA59      -0.2867
     63  CB        59.0310   54.4010   15.9060 C.3    59  ALA59       0.0290
     64  N         56.5740   58.9680   17.7810 N.3    64  VAL64      -0.1245
     65  CA        55.5160   58.3410   16.9890 C.3    64  VAL64       0.1561
     66  C         54.1870   58.4710   17.7280 C.2    64  VAL64       0.2260
     67  O         54.1260   58.2970   18.9630 O.2    64  VAL64      -0.2867
     68  CB        55.8640   56.8730   16.6070 C.3    64  VAL64       0.0252
     69  CG1       56.0420   55.9670   17.8340 C.3    64  VAL64       0.0019
     70  CG2       54.8420   56.3210   15.6400 C.3    64  VAL64       0.0019
     71  N         50.0240   57.2080   17.1650 N.3    66  GLU66      -0.1245
     72  CA        49.1430   56.3100   16.4000 C.3    66  GLU66       0.1567
     73  C         47.7120   56.6060   16.7670 C.2    66  GLU66       0.2260
     74  O         47.3790   56.6070   17.9240 O.2    66  GLU66      -0.2867
     75  CB        49.4900   54.8700   16.7230 C.3    66  GLU66       0.0388
     76  CG        50.9520   54.6780   16.4160 C.3    66  GLU66       0.1160
     77  CD        51.3880   53.2580   16.2400 C.2    66  GLU66       0.3649
     78  OE1       50.5420   52.3690   16.2990 O.co2  66  GLU66      -0.2457
     79  OE2       52.6360   53.0610   16.0850 O.co2  66  GLU66      -0.2457
     80  N         43.2990   46.3910   12.6670 N.3    82  LEU82      -0.1245
     81  CA        43.0850   47.7510   13.1760 C.3    82  LEU82       0.1561
     82  C         43.6330   48.7450   12.1620 C.2    82  LEU82       0.2260
     83  O         44.8750   48.8720   12.0250 O.2    82  LEU82      -0.2867
     84  CB        43.7760   47.9120   14.5330 C.3    82  LEU82       0.0270
     85  CG        43.6590   49.2920   15.2200 C.3    82  LEU82       0.0019
     86  CD1       42.1950   49.6990   15.4020 C.3    82  LEU82       0.0001
     87  CD2       44.3620   49.2880   16.5720 C.3    82  LEU82       0.0001
     88  N         44.6630   52.5150   11.2630 N.3    84  ALA84      -0.1245
     89  CA        45.2000   53.6200   12.0950 C.3    84  ALA84       0.1562
     90  C         45.9120   54.5910   11.1790 C.2    84  ALA84       0.2260
     91  O         46.2570   54.2780   10.0490 O.2    84  ALA84      -0.2867
     92  CB        46.1630   53.1200   13.1590 C.3    84  ALA84       0.0290
     93  N         49.4290   56.8490   11.4360 N.3    86  VAL86      -0.1245
     94  CA        50.6670   56.9110   12.1880 C.3    86  VAL86       0.1561
     95  C         51.4540   58.1330   11.7610 C.2    86  VAL86       0.2260
     96  O         51.6220   58.3460   10.5590 O.2    86  VAL86      -0.2867
     97  CB        51.5490   55.6740   11.9050 C.3    86  VAL86       0.0252
     98  CG1       52.8500   55.7370   12.7220 C.3    86  VAL86       0.0019
     99  CG2       50.7240   54.4370   12.2220 C.3    86  VAL86       0.0019
    100  N         55.0210   60.4600   12.6140 N.3    88  VAL88      -0.1245
    101  CA        56.3200   60.2730   13.2100 C.3    88  VAL88       0.1561
    102  C         57.3210   61.1420   12.4500 C.2    88  VAL88       0.2260
    103  O         57.0340   61.5490   11.3330 O.2    88  VAL88      -0.2867
    104  CB        56.7560   58.7870   13.1730 C.3    88  VAL88       0.0252
    105  CG1       57.0570   58.3650   11.7460 C.3    88  VAL88       0.0019
    106  CG2       57.9620   58.5350   14.0810 C.3    88  VAL88       0.0019
    107  N         50.9230   58.3550    7.8480 N.3   101  THR101     -0.1218
    108  CA        50.6590   57.1960    7.0230 C.3   101  THR101      0.1862
    109  C         49.4080   56.5130    7.5140 C.2   101  THR101      0.2287
    110  O         49.2480   56.2860    8.7020 O.2   101  THR101     -0.2866
    111  CB        51.8640   56.2290    7.0690 C.3   101  THR101      0.1770
    112  OG1       53.0680   56.9890    6.7610 O.3   101  THR101     -0.2211
    113  CG2       51.6510   55.0460    6.0860 C.3   101  THR101      0.0375
    114  N         47.4870   53.1140    7.7840 N.3   103  VAL103     -0.1245
    115  CA        47.8530   51.7240    7.8080 C.3   103  VAL103      0.1561
    116  C         46.6440   50.8750    8.2060 C.2   103  VAL103      0.2260
    117  O         45.6740   51.3670    8.7570 O.2   103  VAL103     -0.2867
    118  CB        48.9940   51.4460    8.7900 C.3   103  VAL103      0.0252
    119  CG1       50.2130   52.3390    8.5320 C.3   103  VAL103      0.0019
    120  CG2       48.5150   51.5400   10.2540 C.3   103  VAL103      0.0019
    121  N         46.7860   47.2900   10.4100 N.3   105  GLY105     -0.1225
    122  CA        47.5620   46.3020   11.1020 C.3   105  GLY105      0.1811
    123  C         46.7560   45.0300   11.3440 C.2   105  GLY105      0.2280
    124  O         45.6120   45.0790   11.7870 O.2   105  GLY105     -0.2866
    125  N         46.9370   41.6750   13.5580 N.3   107  ILE107     -0.1245
    126  CA        47.5580   41.0690   14.7030 C.3   107  ILE107      0.1561
    127  C         46.9950   39.6680   14.9280 C.2   107  ILE107      0.2260
    128  O         45.7770   39.4530   14.8040 O.2   107  ILE107     -0.2867
    129  CB        47.3430   41.9120   15.9720 C.3   107  ILE107      0.0252
    130  CG1       48.2310   43.1710   15.9280 C.3   107  ILE107      0.0019
    131  CG2       47.6730   41.1480   17.2190 C.3   107  ILE107      0.0019
    132  CD1       47.5140   44.3630   15.3450 C.3   107  ILE107      0.0001
    133  N         52.3770   40.4480   13.9870 N.3   118  MET118     -0.1245
    134  CA        51.8500   41.7140   13.5850 C.3   118  MET118      0.1570
    135  C         52.3260   41.9550   12.1440 C.2   118  MET118      0.2261
    136  O         53.5540   41.8590   11.8960 O.2   118  MET118     -0.2867
    137  CB        52.3580   42.8050   14.5350 C.3   118  MET118      0.0387
    138  CG        51.9340   44.1990   14.1570 C.3   118  MET118      0.0595
    139  SD        52.4480   45.5300   15.3180 S.3   118  MET118     -0.1393
    140  CE        51.3370   45.1780   16.6550 C.3   118  MET118      0.0692
    141  N         51.8420   44.8010    9.0070 N.3   120  VAL120     -0.1245
    142  CA        51.3420   46.1550    8.8440 C.3   120  VAL120      0.1561
    143  C         51.1890   46.4960    7.3520 C.2   120  VAL120      0.2260
    144  O         52.2260   46.6350    6.6490 O.2   120  VAL120     -0.2867
    145  CB        52.2060   47.2190    9.5640 C.3   120  VAL120      0.0252
    146  CG1       51.4420   48.5510    9.6000 C.3   120  VAL120      0.0019
    147  CG2       52.5440   46.7470   10.9830 C.3   120  VAL120      0.0019
    148  N         50.4340   48.9760    4.3840 N.3   122  TRP122     -0.1241
    149  CA        50.5140   50.3890    3.9450 C.3   122  TRP122      0.1605
    150  C         51.4190   50.4890    2.7920 C.2   122  TRP122      0.2264
    151  O         52.4270   49.7720    2.6720 O.2   122  TRP122     -0.2867
    152  CB        50.9580   51.3230    5.0940 C.3   122  TRP122      0.0550
    153  CG        52.3930   51.1900    5.5110 C.ar  122  TRP122      0.0003
    154  CD1       52.9560   50.2820    6.3940 C.ar  122  TRP122      0.0946
    155  CD2       53.5100   51.9940    5.0330 C.ar  122  TRP122      0.0152
    156  NE1       54.2920   50.4840    6.5260 N.ar  122  TRP122     -0.2442
    157  CE2       54.7080   51.4990    5.7170 C.ar  122  TRP122      0.0810
    158  CE3       53.6190   53.0930    4.1950 C.ar  122  TRP122      0.0012
    159  CZ2       55.9700   52.0260    5.4790 C.ar  122  TRP122      0.0191
    160  CZ3       54.8910   53.6200    3.9360 C.ar  122  TRP122      0.0001
    161  CH2       56.0520   53.1290    4.5960 C.ar  122  TRP122      0.0015
    162  N         54.9490   60.7040    3.4780 N.3   129  TRP129     -0.1241
    163  CA        56.4330   60.7220    3.3670 C.3   129  TRP129      0.1605
    164  C         56.9240   60.8380    1.9740 C.2   129  TRP129      0.2264
    165  O         58.0640   61.2370    1.7340 O.2   129  TRP129     -0.2867
    166  CB        57.0150   59.4540    3.9540 C.3   129  TRP129      0.0550
    167  CG        57.0790   59.4370    5.4290 C.ar  129  TRP129      0.0003
    168  CD1       56.3880   58.6060    6.2950 C.ar  129  TRP129      0.0946
    169  CD2       57.9460   60.2460    6.2780 C.ar  129  TRP129      0.0152
    170  NE1       56.7730   58.8630    7.5830 N.ar  129  TRP129     -0.2442
    171  CE2       57.6800   59.8270    7.6440 C.ar  129  TRP129      0.0810
    172  CE3       58.8660   61.2180    6.0550 C.ar  129  TRP129      0.0012
    173  CZ2       58.3330   60.4200    8.7320 C.ar  129  TRP129      0.0191
    174  CZ3       59.5230   61.7950    7.1420 C.ar  129  TRP129      0.0001
    175  CH2       59.2370   61.4050    8.4610 C.ar  129  TRP129      0.0015
@<TRIPOS>BOND
     1   165   164    2
     2   164   163    1
     3   151   150    2
     4   150   149    1
     5   163   162    1
     6   163   166    1
     7   160   158   ar
     8   160   161   ar
     9   149   148    1
    10   149   152    1
    11   166   167    1
    12   158   155   ar
    13   161   159   ar
    14   155   153   ar
    15   155   157   ar
    16   152   153    1
    17   167   169   ar
    18   167   168   ar
    19   159   157   ar
    20   153   154   ar
    21   157   156   ar
    22   172   169   ar
    23   172   174   ar
    24   113   111    1
    25   169   171   ar
    26   168   170   ar
    27   154   156   ar
    28   144   143    2
    29   112   111    1
    30   108   111    1
    31   108   109    1
    32   108   107    1
    33   174   175   ar
    34   143   142    1
    35   109   110    2
    36   170   171   ar
    37    34    35    2
    38    34    33    1
    39   171   173   ar
    40   114   115    1
    41   115   116    1
    42   115   118    1
    43   116   117    2
    44    38    37   ar
    45    33    32    1
    46    33    36    1
    47   175   173   ar
    48   119   118    1
    49   118   120    1
    50   142   141    1
    51   142   145    1
    52    37    36    1
    53    37    39   ar
    54   145   146    1
    55   145   147    1
    56    50    48    1
    57    91    90    2
    58   121   122    1
    59    96    95    2
    60    49    48    1
    61    48    47    2
    62   122   123    1
    63    90    89    1
    64    27    26    2
    65    88    89    1
    66   103   102    2
    67   123   124    2
    68    93    94    1
    69    26    25    1
    70    47    46    1
    71   105   104    1
    72    95    94    1
    73   136   135    2
    74    97    94    1
    75    97    99    1
    76    97    98    1
    77    83    82    2
    78    89    92    1
    79   135   134    1
    80    82    81    1
    81   102   101    1
    82    46    45    1
    83   100   101    1
    84    80    81    1
    85    25    24    1
    86    25    28    1
    87   104   101    1
    88   104   106    1
    89    81    84    1
    90    29    30    1
    91    29    28    1
    92    29    31    1
    93   125   126    1
    94   134   133    1
    95   134   137    1
    96    45    44    1
    97   138   137    1
    98   138   139    1
    99    84    85    1
   100   126   127    1
   101   126   129    1
   102   128   127    2
   103    44    41    1
   104    85    86    1
   105    85    87    1
   106    43    42    2
   107   139   140    1
   108   132   130    1
   109    41    42    1
   110    41    40    1
   111    70    68    1
   112    63    60    1
   113   130   129    1
   114   129   131    1
   115    42    51   am
   116    79    77   ar
   117    77    78   ar
   118    77    76    1
   119    60    59    1
   120    60    61    1
   121    72    75    1
   122    72    73    1
   123    72    71    1
   124    76    75    1
   125    68    65    1
   126    68    69    1
   127    73    74    2
   128    65    66    1
   129    65    64    1
   130    17    16    1
   131    51    52    1
   132    15    16   ar
   133    15    13   ar
   134    62    61    2
   135    52    53    1
   136    52    55    1
   137    66    67    2
   138    16    14   ar
   139    23    22    1
   140    58    56    1
   141     5     2    1
   142    56    55    1
   143    56    57    1
   144    13    11   ar
   145    54    53    2
   146    14    12   ar
   147    11    12   ar
   148    11    10    1
   149     2     3    1
   150     2     1    1
   151    22    19    1
   152     4     3    2
   153    19    18    1
   154    19    20    1
   155    10     7    1
   156    18     8   am
   157     8     9    2
   158     8     7    1
   159    20    21    2
   160     7     6    1
