@<TRIPOS>MOLECULE
tmp/3rgfA00.pdb
 230 221 0 0 0
SMALL
GASTEIGER

@<TRIPOS>ATOM
      1  N         -9.1520    6.7210   39.8490 N.3    29  VAL29      -0.1245
      2  CA        -7.8380    6.0730   39.7760 C.3    29  VAL29       0.1561
      3  C         -7.0060    6.6260   38.6190 C.2    29  VAL29       0.2260
      4  O         -5.7870    6.4600   38.5830 O.2    29  VAL29      -0.2867
      5  CB        -7.9590    4.5360   39.6250 C.3    29  VAL29       0.0252
      6  CG1       -8.7070    3.9410   40.8130 C.3    29  VAL29       0.0019
      7  CG2       -8.6400    4.1660   38.3120 C.3    29  VAL29       0.0019
      8  N         -8.9730    9.3600   34.8230 N.3    32  VAL32      -0.1245
      9  CA        -9.4860    8.0120   34.5880 C.3    32  VAL32       0.1561
     10  C        -10.2410    7.5110   35.8180 C.2    32  VAL32       0.2260
     11  O         -9.7450    7.6190   36.9360 O.2    32  VAL32      -0.2867
     12  CB        -8.3460    7.0340   34.2380 C.3    32  VAL32       0.0252
     13  CG1       -8.8720    5.6110   34.1070 C.3    32  VAL32       0.0019
     14  CG2       -7.6560    7.4710   32.9530 C.3    32  VAL32       0.0019
     15  N        -13.1410    0.9630   32.9390 N.3    47  ALA47      -0.1245
     16  CA       -12.4240    2.2160   33.1420 C.3    47  ALA47       0.1562
     17  C        -12.9800    3.2580   32.1910 C.2    47  ALA47       0.2260
     18  O        -13.2080    2.9700   31.0180 O.2    47  ALA47      -0.2867
     19  CB       -10.9260    2.0330   32.9180 C.3    47  ALA47       0.0290
     20  N        -12.2070    7.1520   30.7090 N.3    49  LYS49      -0.1245
     21  CA       -11.2900    8.2930   30.5890 C.3    49  LYS49       0.1561
     22  C        -11.9830    9.4880   29.9460 C.2    49  LYS49       0.2260
     23  O        -12.4900    9.3920   28.8360 O.2    49  LYS49      -0.2867
     24  CB       -10.0530    7.9390   29.7580 C.3    49  LYS49       0.0271
     25  CG        -9.2220    9.1780   29.3860 C.3    49  LYS49       0.0035
     26  CD        -7.8150    8.8430   28.9650 C.3    49  LYS49       0.0206
     27  CE        -6.8900   10.0550   29.0620 C.3    49  LYS49       0.1093
     28  NZ        -5.4980    9.7250   28.6680 N.3    49  LYS49      -0.1314
     29  N         -6.0250    9.1090   18.7810 N.3    63  GLU63      -0.1245
     30  CA        -6.3370    8.0460   19.7360 C.3    63  GLU63       0.1567
     31  C         -7.6480    7.3320   19.3790 C.2    63  GLU63       0.2260
     32  O         -7.7130    6.1000   19.3530 O.2    63  GLU63      -0.2867
     33  CB        -6.4200    8.6280   21.1490 C.3    63  GLU63       0.0388
     34  CG        -6.8770    7.6410   22.2250 C.3    63  GLU63       0.1160
     35  CD        -6.5980    8.1560   23.6250 C.2    63  GLU63       0.3649
     36  OE1       -6.7880    9.3670   23.8490 O.co2  63  GLU63      -0.2457
     37  OE2       -6.1870    7.3530   24.4920 O.co2  63  GLU63      -0.2457
     38  N         -7.3760    5.4390   15.7870 N.3    66  LEU66      -0.1231
     39  CA        -6.5690    4.2220   15.8550 C.3    66  LEU66       0.1693
     40  C         -7.2420    3.1330   16.6870 C.2    66  LEU66       0.2591
     41  O         -7.3730    2.0010   16.2370 O.2    66  LEU66      -0.2718
     42  CB        -5.1760    4.5430   16.4100 C.3    66  LEU66       0.0284
     43  CG        -4.2720    5.3640   15.4840 C.3    66  LEU66       0.0019
     44  CD1       -2.9210    5.6470   16.1460 C.3    66  LEU66       0.0001
     45  CD2       -4.0630    4.6680   14.1590 C.3    66  LEU66       0.0001
     46  N         -7.6760    3.4730   17.8960 N.am   67  LEU67      -0.1980
     47  CA        -8.2990    2.4840   18.7830 C.3    67  LEU67       0.1596
     48  C         -9.5560    1.8940   18.1680 C.2    67  LEU67       0.2287
     49  O         -9.8770    0.7250   18.3940 O.2    67  LEU67      -0.2864
     50  CB        -8.6470    3.1020   20.1370 C.3    67  LEU67       0.0297
     51  CG        -7.4840    3.3920   21.0760 C.3    67  LEU67       0.0022
     52  CD1       -7.9980    4.0960   22.3350 C.3    67  LEU67       0.0001
     53  CD2       -6.7320    2.1060   21.4090 C.3    67  LEU67       0.0001
     54  N         -7.9960   -0.7190   15.7410 N.3    70  LEU70      -0.1245
     55  CA        -7.0630   -1.7080   16.2800 C.3    70  LEU70       0.1561
     56  C         -7.8040   -2.8280   17.0070 C.2    70  LEU70       0.2260
     57  O         -8.7140   -2.5730   17.7850 O.2    70  LEU70      -0.2867
     58  CB        -6.0390   -1.0330   17.2010 C.3    70  LEU70       0.0270
     59  CG        -5.0110   -0.1540   16.4730 C.3    70  LEU70       0.0019
     60  CD1       -4.3050    0.7620   17.4570 C.3    70  LEU70       0.0001
     61  CD2       -4.0100   -0.9990   15.7050 C.3    70  LEU70       0.0001
     62  N         -3.6300   -5.5690   22.8370 N.3    75  VAL75      -0.1231
     63  CA        -3.8180   -4.1240   22.7580 C.3    75  VAL75       0.1692
     64  C         -5.1730   -3.7970   23.3750 C.2    75  VAL75       0.2591
     65  O         -6.1770   -4.4050   23.0110 O.2    75  VAL75      -0.2718
     66  CB        -3.7810   -3.6300   21.2970 C.3    75  VAL75       0.0266
     67  CG1       -3.9580   -2.1060   21.2430 C.3    75  VAL75       0.0020
     68  CG2       -2.4800   -4.0640   20.6200 C.3    75  VAL75       0.0020
     69  N         -5.1960   -2.8630   24.3220 N.am   76  ILE76      -0.1980
     70  CA        -6.4340   -2.5090   25.0210 C.3    76  ILE76       0.1595
     71  C         -7.5380   -2.1560   24.0220 C.2    76  ILE76       0.2287
     72  O         -7.2990   -1.4320   23.0460 O.2    76  ILE76      -0.2864
     73  CB        -6.2260   -1.3510   26.0410 C.3    76  ILE76       0.0276
     74  CG1       -7.3980   -1.2820   27.0240 C.3    76  ILE76       0.0022
     75  CG2       -6.0470   -0.0110   25.3350 C.3    76  ILE76       0.0022
     76  CD1       -7.1810   -0.3280   28.1550 C.3    76  ILE76       0.0001
     77  N        -13.2260    1.5110   28.4600 N.3    94  PHE94      -0.1227
     78  CA       -12.3960    0.3110   28.3190 C.3    94  PHE94       0.1736
     79  C        -12.7740   -0.6650   29.4120 C.2    94  PHE94       0.2595
     80  O        -13.3090   -0.2610   30.4460 O.2    94  PHE94      -0.2718
     81  CB       -10.9090    0.6200   28.5310 C.3    94  PHE94       0.0547
     82  CG       -10.3910    1.7690   27.7300 C.ar   94  PHE94      -0.0202
     83  CD1       -9.8650    1.5660   26.4650 C.ar   94  PHE94      -0.0042
     84  CD2      -10.3890    3.0510   28.2550 C.ar   94  PHE94      -0.0042
     85  CE1       -9.3660    2.6240   25.7300 C.ar   94  PHE94      -0.0003
     86  CE2       -9.8930    4.1120   27.5240 C.ar   94  PHE94      -0.0003
     87  CZ        -9.3820    3.8990   26.2560 C.ar   94  PHE94      -0.0000
     88  N        -12.4510   -1.9360   29.2030 N.am   95  ASP95      -0.1960
     89  CA       -12.4790   -2.9160   30.2790 C.3    95  ASP95       0.1840
     90  C        -11.3650   -2.5770   31.2670 C.2    95  ASP95       0.2622
     91  O        -10.2520   -2.2330   30.8670 O.2    95  ASP95      -0.2715
     92  CB       -12.2770   -4.3380   29.7440 C.3    95  ASP95       0.1450
     93  CG       -13.4570   -4.8400   28.9200 C.2    95  ASP95       0.3671
     94  OD1      -14.5970   -4.3400   29.0900 O.co2  95  ASP95      -0.2456
     95  OD2      -13.2360   -5.7590   28.1010 O.co2  95  ASP95      -0.2456
     96  N        -11.6720   -2.6830   32.5530 N.am   96  TYR96      -0.1960
     97  CA       -10.7200   -2.3680   33.6070 C.3    96  TYR96       0.1771
     98  C         -9.6490   -3.4510   33.7200 C.2    96  TYR96       0.2619
     99  O         -9.9600   -4.6320   33.8350 O.2    96  TYR96      -0.2715
    100  CB       -11.4430   -2.2210   34.9530 C.3    96  TYR96       0.0574
    101  CG       -10.5470   -1.6920   36.0460 C.ar   96  TYR96      -0.0198
    102  CD1      -10.0380   -0.4020   35.9830 C.ar   96  TYR96      -0.0009
    103  CD2      -10.1920   -2.4850   37.1340 C.ar   96  TYR96      -0.0009
    104  CE1       -9.2020    0.0890   36.9730 C.ar   96  TYR96       0.0417
    105  CE2       -9.3590   -2.0000   38.1320 C.ar   96  TYR96       0.0417
    106  CZ        -8.8680   -0.7110   38.0450 C.ar   96  TYR96       0.1957
    107  OH        -8.0380   -0.2190   39.0260 O.3    96  TYR96      -0.2866
    108  N         -8.3880   -3.0370   33.6950 N.am   97  ALA97      -0.1963
    109  CA        -7.2770   -3.9500   33.9080 C.3    97  ALA97       0.1728
    110  C         -6.8620   -3.8090   35.3610 C.2    97  ALA97       0.2616
    111  O         -6.4000   -2.7490   35.7800 O.2    97  ALA97      -0.2715
    112  CB        -6.1250   -3.6210   32.9800 C.3    97  ALA97       0.0334
    113  N         -7.0660   -4.8760   36.1310 N.am   98  GLU98      -0.1963
    114  CA        -6.7620   -4.8790   37.5580 C.3    98  GLU98       0.1733
    115  C         -5.3350   -4.3960   37.7960 C.2    98  GLU98       0.2616
    116  O         -5.1090   -3.4690   38.5720 O.2    98  GLU98      -0.2715
    117  CB        -6.9530   -6.2890   38.1360 C.3    98  GLU98       0.0429
    118  CG        -7.0480   -6.3530   39.6540 C.3    98  GLU98       0.1163
    119  CD        -8.4550   -6.1010   40.1690 C.2    98  GLU98       0.3649
    120  OE1       -8.6880   -5.0160   40.7450 O.co2  98  GLU98      -0.2457
    121  OE2       -9.3250   -6.9910   40.0010 O.co2  98  GLU98      -0.2457
    122  N         -4.3840   -5.0000   37.0810 N.am   99  HIS99      -0.1959
    123  CA        -2.9670   -4.7970   37.3480 C.3    99  HIS99       0.1787
    124  C         -2.2590   -4.0180   36.2550 C.2    99  HIS99       0.2620
    125  O         -2.7390   -3.9270   35.1170 O.2    99  HIS99      -0.2715
    126  CB        -2.2730   -6.1510   37.5020 C.3    99  HIS99       0.0785
    127  CG        -2.9750   -7.0790   38.4370 C.ar   99  HIS99       0.0821
    128  ND1       -2.9520   -6.9140   39.8030 N.ar   99  HIS99      -0.2267
    129  CD2       -3.7390   -8.1690   38.2000 C.ar   99  HIS99       0.1154
    130  CE1       -3.6730   -7.8630   40.3680 C.ar   99  HIS99       0.1986
    131  NE2       -4.1620   -8.6380   39.4180 N.ar   99  HIS99      -0.2212
    132  N         -1.0970   -3.4780   36.6130 N.am  100  ASP100     -0.1971
    133  CA        -0.1540   -2.9160   35.6460 C.3   100  ASP100      0.1709
    134  C          1.2700   -3.3210   36.0280 C.2   100  ASP100      0.2293
    135  O          1.5250   -3.7310   37.1660 O.2   100  ASP100     -0.2864
    136  CB        -0.2970   -1.4010   35.5930 C.3   100  ASP100      0.1436
    137  CG         0.1070   -0.7380   36.8850 C.2   100  ASP100      0.3671
    138  OD1       -0.7780   -0.4630   37.7110 O.co2 100  ASP100     -0.2456
    139  OD2        1.3170   -0.5080   37.0780 O.co2 100  ASP100     -0.2456
    140  N          3.2690   -1.5090   39.1840 N.3   103  HIS103     -0.1241
    141  CA         2.9180   -2.0380   40.5140 C.3   103  HIS103      0.1621
    142  C          3.4030   -3.4750   40.7040 C.2   103  HIS103      0.2264
    143  O          3.8210   -3.8440   41.7970 O.2   103  HIS103     -0.2867
    144  CB         1.4030   -1.9820   40.7570 C.3   103  HIS103      0.0745
    145  CG         0.8810   -0.6000   40.9920 C.ar  103  HIS103      0.0817
    146  ND1        0.2710    0.1430   40.0050 N.ar  103  HIS103     -0.2268
    147  CD2        0.8910    0.1800   42.0970 C.ar  103  HIS103      0.1154
    148  CE1       -0.0830    1.3180   40.4950 C.ar  103  HIS103      0.1986
    149  NE2        0.2820    1.3660   41.7630 N.ar  103  HIS103     -0.2212
    150  N          0.8980   -3.7910   16.2230 N.3   132  LEU132     -0.1245
    151  CA         0.9160   -2.3430   15.9940 C.3   132  LEU132      0.1561
    152  C          1.8820   -1.9770   14.8580 C.2   132  LEU132      0.2260
    153  O          1.5300   -1.2240   13.9530 O.2   132  LEU132     -0.2867
    154  CB         1.3060   -1.5880   17.2740 C.3   132  LEU132      0.0270
    155  CG         0.2990   -1.5690   18.4320 C.3   132  LEU132      0.0019
    156  CD1        0.9140   -0.8380   19.6250 C.3   132  LEU132      0.0001
    157  CD2       -1.0230   -0.9120   18.0480 C.3   132  LEU132      0.0001
    158  N          1.7820    1.4720   13.2010 N.3   137  VAL137     -0.1231
    159  CA         1.4490    2.2770   14.3670 C.3   137  VAL137      0.1692
    160  C          2.5850    2.1400   15.3600 C.2   137  VAL137      0.2592
    161  O          2.9970    1.0260   15.6960 O.2   137  VAL137     -0.2718
    162  CB         0.1180    1.8510   15.0100 C.3   137  VAL137      0.0266
    163  CG1       -0.0970    2.5840   16.3290 C.3   137  VAL137      0.0020
    164  CG2       -1.0390    2.1360   14.0520 C.3   137  VAL137      0.0020
    165  N          3.1090    3.2840   15.7910 N.am  138  LEU138     -0.1966
    166  CA         4.1870    3.3280   16.7580 C.3   138  LEU138      0.1728
    167  C          3.6210    3.7460   18.1130 C.2   138  LEU138      0.2616
    168  O          2.7590    4.6260   18.1960 O.2   138  LEU138     -0.2715
    169  CB         5.2580    4.3280   16.3110 C.3   138  LEU138      0.0311
    170  CG         5.8920    4.1260   14.9320 C.3   138  LEU138      0.0022
    171  CD1        6.9120    5.2280   14.6540 C.3   138  LEU138      0.0001
    172  CD2        6.5520    2.7400   14.8180 C.3   138  LEU138      0.0001
    173  N          4.0990    3.1040   19.1730 N.am  139  HIS139     -0.1973
    174  CA         3.6280    3.4100   20.5150 C.3   139  HIS139      0.1656
    175  C          4.2370    4.7170   21.0130 C.2   139  HIS139      0.2291
    176  O          3.5130    5.6180   21.4170 O.2   139  HIS139     -0.2864
    177  CB         3.9590    2.2680   21.4780 C.3   139  HIS139      0.0771
    178  CG         3.3070    2.4170   22.8140 C.ar  139  HIS139      0.0820
    179  ND1        3.7250    3.3430   23.7440 N.ar  139  HIS139     -0.2267
    180  CD2        2.2530    1.7760   23.3680 C.ar  139  HIS139      0.1154
    181  CE1        2.9590    3.2610   24.8160 C.ar  139  HIS139      0.1986
    182  NE2        2.0580    2.3170   24.6130 N.ar  139  HIS139     -0.2212
    183  N         -0.5800   -2.9150   30.9650 N.3   148  LEU148     -0.1245
    184  CA        -1.6440   -3.3760   31.8640 C.3   148  LEU148      0.1561
    185  C         -1.7390   -4.8910   31.8200 C.2   148  LEU148      0.2260
    186  O         -1.3100   -5.5180   30.8510 O.2   148  LEU148     -0.2867
    187  CB        -2.9970   -2.7640   31.4750 C.3   148  LEU148      0.0270
    188  CG        -3.0480   -1.2420   31.3110 C.3   148  LEU148      0.0019
    189  CD1       -4.4550   -0.7650   30.9290 C.3   148  LEU148      0.0001
    190  CD2       -2.5830   -0.5630   32.5910 C.3   148  LEU148      0.0001
    191  N         -1.5590   -3.7020   26.1780 N.3   161  ILE161     -0.1231
    192  CA        -0.7550   -2.5200   25.9310 C.3   161  ILE161      0.1692
    193  C         -1.6720   -1.3170   25.8720 C.2   161  ILE161      0.2592
    194  O         -2.6860   -1.3410   25.1780 O.2   161  ILE161     -0.2718
    195  CB         0.0290   -2.6100   24.6060 C.3   161  ILE161      0.0266
    196  CG1        1.0730   -3.7170   24.6730 C.3   161  ILE161      0.0019
    197  CG2        0.7190   -1.2760   24.3070 C.3   161  ILE161      0.0020
    198  CD1        1.6570   -4.0610   23.3280 C.3   161  ILE161      0.0001
    199  N         -1.3230   -0.2760   26.6200 N.am  162  ALA162     -0.1966
    200  CA        -2.0670    0.9790   26.6030 C.3   162  ALA162      0.1728
    201  C         -1.0900    2.1140   26.3750 C.2   162  ALA162      0.2616
    202  O          0.1220    1.9150   26.4460 O.2   162  ALA162     -0.2715
    203  CB        -2.8170    1.1750   27.9190 C.3   162  ALA162      0.0334
    204  N         -1.6300    3.2940   26.0850 N.am  163  ASP163     -0.1957
    205  CA        -0.8480    4.5220   25.9540 C.3   163  ASP163      0.1840
    206  C         -1.6090    5.6090   26.6900 C.2   163  ASP163      0.2621
    207  O         -2.3750    6.3700   26.0980 O.2   163  ASP163     -0.2715
    208  CB        -0.6380    4.8900   24.4780 C.3   163  ASP163      0.1450
    209  CG         0.4270    5.9710   24.2800 C.2   163  ASP163      0.3671
    210  OD1        0.6590    6.7850   25.2070 O.co2 163  ASP163     -0.2456
    211  OD2        1.0390    5.9970   23.1870 O.co2 163  ASP163     -0.2456
    212  N         -1.3950    5.6720   27.9960 N.am  164  MET164     -0.1977
    213  CA        -2.2120    6.5110   28.8650 C.3   164  MET164      0.1605
    214  C         -1.7790    7.9820   28.9210 C.2   164  MET164      0.2287
    215  O         -2.4810    8.8090   29.5010 O.2   164  MET164     -0.2864
    216  CB        -2.2740    5.8720   30.2500 C.3   164  MET164      0.0413
    217  CG        -2.7840    4.4350   30.1500 C.3   164  MET164      0.0598
    218  SD        -3.4060    3.7280   31.6590 S.3   164  MET164     -0.1393
    219  CE        -1.8880    3.1680   32.4260 C.3   164  MET164      0.0692
    220  N         -0.9830    9.6280   25.8190 N.3   166  PHE166     -0.1241
    221  CA        -0.9180    9.8430   24.3620 C.3   166  PHE166      0.1605
    222  C         -0.9280   11.3320   23.9830 C.2   166  PHE166      0.2264
    223  O         -0.2640   11.7410   23.0230 O.2   166  PHE166     -0.2867
    224  CB        -2.0850    9.1190   23.6690 C.3   166  PHE166      0.0534
    225  CG        -1.9450    9.0260   22.1700 C.ar  166  PHE166     -0.0203
    226  CD1       -1.0000    8.1910   21.5990 C.ar  166  PHE166     -0.0042
    227  CD2       -2.7600    9.7730   21.3320 C.ar  166  PHE166     -0.0042
    228  CE1       -0.8680    8.1030   20.2150 C.ar  166  PHE166     -0.0003
    229  CE2       -2.6320    9.6880   19.9580 C.ar  166  PHE166     -0.0003
    230  CZ        -1.6860    8.8520   19.3990 C.ar  166  PHE166     -0.0000
@<TRIPOS>BOND
     1   158   159    1
     2   153   152    2
     3   164   162    1
     4    45    43    1
     5   159   162    1
     6   159   160    1
     7   171   170    1
     8   172   170    1
     9   152   151    1
    10   170   169    1
    11   162   163    1
    12   160   161    2
    13   160   165   am
    14    43    44    1
    15    43    42    1
    16    61    59    1
    17    54    55    1
    18    38    39    1
    19   165   166    1
    20    39    42    1
    21    39    40    1
    22   151   150    1
    23   151   154    1
    24    41    40    2
    25    55    56    1
    26    55    58    1
    27   169   166    1
    28    59    58    1
    29    59    60    1
    30    40    46   am
    31   166   167    1
    32    56    57    2
    33   154   155    1
    34    46    47    1
    35   157   155    1
    36   167   168    2
    37   167   173   am
    38    48    49    2
    39    48    47    1
    40   155   156    1
    41    29    30    1
    42    47    50    1
    43   173   174    1
    44    32    31    2
    45    31    30    1
    46   230   229   ar
    47   230   228   ar
    48    30    33    1
    49   229   227   ar
    50    50    51    1
    51   228   226   ar
    52   174   175    1
    53   174   177    1
    54    68    66    1
    55   175   176    2
    56    51    53    1
    57    51    52    1
    58    33    34    1
    59    67    66    1
    60    66    63    1
    61   227   225   ar
    62   177   178    1
    63   226   225   ar
    64   225   224    1
    65    34    35    1
    66    63    62    1
    67    63    64    1
    68   178   180   ar
    69   178   179   ar
    70    65    64    2
    71   223   222    2
    72    72    71    2
    73   211   209   ar
    74   198   196    1
    75   180   182   ar
    76    64    69   am
    77    35    36   ar
    78    35    37   ar
    79   224   221    1
    80   179   181   ar
    81   222   221    1
    82    71    70    1
    83   209   208    1
    84   209   210   ar
    85   197   195    1
    86    69    70    1
    87   221   220    1
    88   208   205    1
    89   195   196    1
    90   195   192    1
    91   182   181   ar
    92    70    73    1
    93   194   193    2
    94    75    73    1
    95    85    87   ar
    96    85    83   ar
    97   193   192    1
    98   193   199   am
    99   192   191    1
   100   205   204    1
   101   205   206    1
   102    73    74    1
   103   204   201   am
   104   207   206    2
   105    87    86   ar
   106   201   202    2
   107   201   200    1
   108    83    82   ar
   109   200   199    1
   110   200   203    1
   111   206   212   am
   112    74    76    1
   113    86    84   ar
   114    82    84   ar
   115    82    81    1
   116   212   213    1
   117    95    93   ar
   118    78    77    1
   119    78    81    1
   120    78    79    1
   121    28    27    1
   122    23    22    2
   123   213   214    1
   124   213   216    1
   125    93    94   ar
   126    93    92    1
   127   214   215    2
   128    26    27    1
   129    26    25    1
   130    88    79   am
   131    88    89    1
   132    25    24    1
   133    79    80    2
   134    92    89    1
   135    24    21    1
   136    22    21    1
   137   217   216    1
   138   217   218    1
   139    89    90    1
   140    21    20    1
   141   186   185    2
   142    91    90    2
   143   189   188    1
   144   183   184    1
   145    18    17    2
   146    90    96   am
   147   188   187    1
   148   188   190    1
   149   187   184    1
   150   218   219    1
   151   185   184    1
   152    17    16    1
   153    96    97    1
   154    19    16    1
   155    15    16    1
   156    14    12    1
   157   112   109    1
   158    97    98    1
   159    97   100    1
   160   108    98   am
   161   108   109    1
   162    98    99    2
   163   109   110    1
   164    13    12    1
   165    12     9    1
   166     9     8    1
   167     9    10    1
   168   100   101    1
   169   125   124    2
   170   110   111    2
   171   110   113   am
   172   136   133    1
   173   136   137    1
   174   133   134    1
   175   133   132    1
   176    10    11    2
   177   102   101   ar
   178   102   104   ar
   179   134   135    2
   180   101   103   ar
   181   113   114    1
   182   124   132   am
   183   124   123    1
   184   137   139   ar
   185   137   138   ar
   186   104   106   ar
   187   122   123    1
   188   122   115   am
   189   103   105   ar
   190   123   126    1
   191   126   127    1
   192   114   115    1
   193   114   117    1
   194   115   116    2
   195   106   105   ar
   196   106   107    1
   197   117   118    1
   198   129   127   ar
   199   129   131   ar
   200     7     5    1
   201   127   128   ar
   202     4     3    2
   203     3     2    1
   204   140   141    1
   205   131   130   ar
   206     5     2    1
   207     5     6    1
   208   118   119    1
   209     2     1    1
   210   128   130   ar
   211   121   119   ar
   212   146   148   ar
   213   146   145   ar
   214   119   120   ar
   215   148   149   ar
   216   141   142    1
   217   141   144    1
   218   142   143    2
   219   144   145    1
   220   145   147   ar
   221   149   147   ar
