@<TRIPOS>MOLECULE
tmp/3rggB00.pdb
 108 105 0 0 0
SMALL
GASTEIGER

@<TRIPOS>ATOM
      1  N         21.8620  -52.9860   28.0070 N.3     9  GLY9       -0.1210
      2  CA        21.1460  -54.2360   27.7480 C.3     9  GLY9        0.1956
      3  C         21.6070  -54.9960   26.5280 C.2     9  GLY9        0.2612
      4  O         21.3200  -56.1840   26.4260 O.2     9  GLY9       -0.2717
      5  N         22.2980  -54.3140   25.6110 N.am   10  SER10      -0.1952
      6  CA        22.7420  -54.8800   24.3220 C.3    10  SER10       0.1924
      7  C         23.9950  -54.1650   23.8110 C.2    10  SER10       0.2314
      8  O         24.1520  -52.9860   24.0750 O.2    10  SER10      -0.2863
      9  CB        21.6450  -54.6830   23.2510 C.3    10  SER10       0.2116
     10  OG        21.9850  -55.3000   22.0250 O.3    10  SER10      -0.2180
     11  N         24.2610  -53.1020   20.9910 N.3    12  SER12      -0.1202
     12  CA        23.7510  -52.0770   20.0910 C.3    12  SER12       0.2020
     13  C         23.5700  -50.7300   20.8130 C.2    12  SER12       0.2618
     14  O         23.4040  -49.7180   20.1550 O.2    12  SER12      -0.2717
     15  CB        22.4120  -52.5000   19.4920 C.3    12  SER12       0.2103
     16  OG        21.4400  -52.5170   20.5140 O.3    12  SER12      -0.2182
     17  N         23.6070  -50.7440   22.1610 N.am   13  ASP13      -0.1973
     18  CA        23.5900  -49.5320   22.9860 C.3    13  ASP13       0.1709
     19  C         24.9680  -48.8850   23.1800 C.2    13  ASP13       0.2293
     20  O         25.0760  -47.8740   23.8620 O.2    13  ASP13      -0.2864
     21  CB        23.0830  -49.8860   24.3690 C.3    13  ASP13       0.1436
     22  CG        21.6790  -50.4330   24.3470 C.2    13  ASP13       0.3671
     23  OD1       20.8300  -49.9130   23.5810 O.co2  13  ASP13      -0.2456
     24  OD2       21.4380  -51.3730   25.1260 O.co2  13  ASP13      -0.2456
     25  N         21.2250  -58.1750   29.6600 N.3    37  SER37      -0.1202
     26  CA        19.7800  -57.8990   29.5130 C.3    37  SER37       0.2020
     27  C         18.9800  -58.3990   30.7210 C.2    37  SER37       0.2619
     28  O         19.1930  -59.5260   31.1850 O.2    37  SER37      -0.2717
     29  CB        19.2500  -58.5840   28.2330 C.3    37  SER37       0.2103
     30  OG        17.8430  -58.6610   28.2160 O.3    37  SER37      -0.2182
     31  N         18.0640  -57.5620   31.2030 N.am   38  ALA38      -0.1965
     32  CA        17.0740  -57.9590   32.2170 C.3    38  ALA38       0.1728
     33  C         16.0490  -58.9990   31.7020 C.2    38  ALA38       0.2616
     34  O         15.4380  -59.7140   32.5070 O.2    38  ALA38      -0.2715
     35  CB        16.3260  -56.6940   32.8330 C.3    38  ALA38       0.0334
     36  N         15.8660  -59.0940   30.3870 N.am   39  HIS39      -0.1959
     37  CA        15.0100  -60.1180   29.7980 C.3    39  HIS39       0.1787
     38  C         15.7530  -61.4180   29.5260 C.2    39  HIS39       0.2620
     39  O         15.3380  -62.4860   29.9800 O.2    39  HIS39      -0.2715
     40  CB        14.3990  -59.6210   28.4790 C.3    39  HIS39       0.0785
     41  CG        13.4550  -58.4610   28.6270 C.ar   39  HIS39       0.0821
     42  ND1       12.6890  -58.0010   27.5780 N.ar   39  HIS39      -0.2267
     43  CD2       13.1190  -57.6990   29.6950 C.ar   39  HIS39       0.1154
     44  CE1       11.9650  -56.9680   27.9820 C.ar   39  HIS39       0.1986
     45  NE2       12.1920  -56.7780   29.2660 N.ar   39  HIS39      -0.2212
     46  N         16.8490  -61.3400   28.7850 N.am   40  LYS40      -0.1977
     47  CA        17.5310  -62.5360   28.2680 C.3    40  LYS40       0.1596
     48  C         18.6180  -63.1520   29.1700 C.2    40  LYS40       0.2287
     49  O         18.9030  -64.3540   29.0760 O.2    40  LYS40      -0.2864
     50  CB        18.0700  -62.2470   26.8450 C.3    40  LYS40       0.0298
     51  CG        16.9330  -62.1590   25.8130 C.3    40  LYS40       0.0038
     52  CD        17.3820  -61.8150   24.4150 C.3    40  LYS40       0.0206
     53  CE        17.6600  -60.3390   24.1980 C.3    40  LYS40       0.1093
     54  NZ        18.0740  -60.1050   22.7760 N.3    40  LYS40      -0.1314
     55  N         18.9550  -49.0840   28.5070 N.3    65  ALA65      -0.1231
     56  CA        18.2020  -50.0720   27.8100 C.3    65  ALA65       0.1694
     57  C         17.2050  -49.3510   26.9090 C.2    65  ALA65       0.2593
     58  O         16.4140  -48.5210   27.3680 O.2    65  ALA65      -0.2718
     59  CB        17.5220  -50.9790   28.8070 C.3    65  ALA65       0.0304
     60  N         17.2850  -49.6360   25.6230 N.am   66  GLY66      -0.1942
     61  CA        16.2850  -49.1410   24.6520 C.3    66  GLY66       0.2014
     62  C         14.9840  -49.8850   24.7730 C.2    66  GLY66       0.2639
     63  O         14.8580  -50.7830   25.5830 O.2    66  GLY66      -0.2714
     64  N         13.9920  -49.4830   23.9890 N.am   67  ARG67      -0.1963
     65  CA        12.6960  -50.1590   23.9810 C.3    67  ARG67       0.1729
     66  C         12.1040  -50.1220   25.3940 C.2    67  ARG67       0.2617
     67  O         12.2800  -49.1100   26.0920 O.2    67  ARG67      -0.2715
     68  CB        12.8320  -51.5550   23.3510 C.3    67  ARG67       0.0348
     69  CG        13.4940  -51.5000   21.9810 C.3    67  ARG67       0.0492
     70  CD        13.5620  -52.8770   21.3410 C.3    67  ARG67       0.2205
     71  NE        14.0530  -52.8180   19.9720 N.pl3  67  ARG67      -0.0865
     72  CZ        13.8420  -53.7250   19.0410 C.cat  67  ARG67       0.5346
     73  NH1       13.1650  -54.8410   19.3040 N.pl3  67  ARG67       0.1354
     74  NH2       14.3390  -53.5110   17.8290 N.pl3  67  ARG67       0.1354
     75  N         11.4030  -51.1790   25.8130 N.am   68  SER68      -0.1936
     76  CA        10.8140  -51.2400   27.1640 C.3    68  SER68       0.2055
     77  C         11.9190  -51.5340   28.2040 C.2    68  SER68       0.2643
     78  O         12.4470  -52.6520   28.3030 O.2    68  SER68      -0.2714
     79  CB         9.7100  -52.3150   27.2280 C.3    68  SER68       0.2130
     80  OG         9.2570  -52.5100   28.5600 O.3    68  SER68      -0.2179
     81  N         12.2560  -50.5030   28.9610 N.am   69  ASN69      -0.1957
     82  CA        13.3910  -50.5150   29.8340 C.3    69  ASN69       0.1819
     83  C         13.0770  -51.2320   31.1240 C.2    69  ASN69       0.2621
     84  O         12.6500  -50.6210   32.0630 O.2    69  ASN69      -0.2715
     85  CB        13.8800  -49.0730   30.0850 C.3    69  ASN69       0.1195
     86  CG        15.0290  -48.9950   31.1110 C.2    69  ASN69       0.2630
     87  OD1       15.6340  -50.0330   31.5040 O.2    69  ASN69      -0.2716
     88  ND2       15.3450  -47.7660   31.5480 N.am   69  ASN69      -0.0877
     89  N         13.3570  -52.5370   31.1590 N.am   70  ALA70      -0.1963
     90  CA        13.2280  -53.3400   32.3440 C.3    70  ALA70       0.1728
     91  C         14.5230  -53.2200   33.1860 C.2    70  ALA70       0.2616
     92  O         14.5130  -53.4490   34.4050 O.2    70  ALA70      -0.2715
     93  CB        13.0360  -54.8120   31.9280 C.3    70  ALA70       0.0334
     94  N         15.6270  -52.9180   32.4950 N.am   71  LEU71      -0.1977
     95  CA        16.9530  -52.9820   33.0820 C.3    71  LEU71       0.1596
     96  C         17.1290  -52.0050   34.2250 C.2    71  LEU71       0.2287
     97  O         17.6060  -52.3940   35.2710 O.2    71  LEU71      -0.2864
     98  CB        18.0310  -52.7100   32.0450 C.3    71  LEU71       0.0297
     99  CG        19.4710  -52.9560   32.5100 C.3    71  LEU71       0.0022
    100  CD1       19.6930  -54.4340   32.9610 C.3    71  LEU71       0.0001
    101  CD2       20.4480  -52.5800   31.4550 C.3    71  LEU71       0.0001
    102  N         18.7160  -44.9610   25.5950 N.3    88  PRO88      -0.2116
    103  CA        19.1500  -44.4200   24.2860 C.3    88  PRO88       0.1372
    104  C         17.9820  -43.7100   23.6000 C.2    88  PRO88       0.2244
    105  O         16.8240  -44.0150   23.9330 O.2    88  PRO88      -0.2868
    106  CB        19.5570  -45.6790   23.5130 C.3    88  PRO88       0.0268
    107  CG        18.7760  -46.7530   24.1030 C.3    88  PRO88       0.0207
    108  CD        18.6260  -46.4370   25.5680 C.3    88  PRO88       0.0892
@<TRIPOS>BOND
     1    74    72    1
     2    72    73    1
     3    72    71    2
     4    15    12    1
     5    15    16    1
     6    71    70    1
     7    12    13    1
     8    12    11    1
     9    14    13    2
    10    13    17   am
    11    70    69    1
    12    69    68    1
    13    10     9    1
    14    17    18    1
    15    54    53    1
    16    18    19    1
    17    18    21    1
    18    19    20    2
    19     9     6    1
    20    68    65    1
    21   106   107    1
    22   106   103    1
    23    23    22   ar
    24   104   105    2
    25   104   103    1
    26     7     8    2
    27     7     6    1
    28    65    64    1
    29    65    66    1
    30    64    62   am
    31   107   108    1
    32    53    52    1
    33   103   102    1
    34     6     5    1
    35    22    21    1
    36    22    24   ar
    37    52    51    1
    38    61    62    1
    39    61    60    1
    40    62    63    2
    41    66    75   am
    42    66    67    2
    43   108   102    1
    44     5     3   am
    45    60    57   am
    46    75    76    1
    47    51    50    1
    48     4     3    2
    49     3     2    1
    50    50    47    1
    51    57    58    2
    52    57    56    1
    53    76    79    1
    54    76    77    1
    55    79    80    1
    56    42    44   ar
    57    42    41   ar
    58     2     1    1
    59    56    55    1
    60    56    59    1
    61    44    45   ar
    62    77    78    2
    63    77    81   am
    64    30    29    1
    65    29    26    1
    66    47    46    1
    67    47    48    1
    68    40    41    1
    69    40    37    1
    70    41    43   ar
    71    46    38   am
    72    81    82    1
    73    49    48    2
    74    45    43   ar
    75    26    25    1
    76    26    27    1
    77    38    37    1
    78    38    39    2
    79    37    36    1
    80    82    85    1
    81    82    83    1
    82    85    86    1
    83    36    33   am
    84    27    28    2
    85    27    31   am
    86    86    87    2
    87    86    88   am
    88    83    89   am
    89    83    84    2
    90    89    90    1
    91    31    32    1
    92   101    99    1
    93    33    32    1
    94    33    34    2
    95    93    90    1
    96    98    99    1
    97    98    95    1
    98    32    35    1
    99    90    91    1
   100    94    95    1
   101    94    91   am
   102    99   100    1
   103    95    96    1
   104    91    92    2
   105    96    97    2
