@<TRIPOS>MOLECULE
tmp/3rglB01.pdb
 88 89 0 0 0
SMALL
GASTEIGER

@<TRIPOS>ATOM
      1  N        -31.6280    1.8700   24.0440 N.3    32  PHE32      -0.1241
      2  CA       -31.5340    0.6200   23.3060 C.3    32  PHE32       0.1605
      3  C        -30.5770    0.6510   22.1110 C.2    32  PHE32       0.2264
      4  O        -30.1430   -0.3840   21.6490 O.2    32  PHE32      -0.2867
      5  CB       -32.9160    0.2280   22.8150 C.3    32  PHE32       0.0534
      6  CG       -33.8650   -0.0760   23.9090 C.ar   32  PHE32      -0.0203
      7  CD1      -34.5110    0.9460   24.5780 C.ar   32  PHE32      -0.0042
      8  CD2      -34.1150   -1.3790   24.2740 C.ar   32  PHE32      -0.0042
      9  CE1      -35.3900    0.6740   25.5840 C.ar   32  PHE32      -0.0003
     10  CE2      -34.9970   -1.6610   25.2910 C.ar   32  PHE32      -0.0003
     11  CZ       -35.6370   -0.6340   25.9470 C.ar   32  PHE32      -0.0000
     12  N        -33.3020    4.9220   38.0400 N.3   113  TRP113     -0.1227
     13  CA       -33.6360    4.0580   36.9170 C.3   113  TRP113      0.1737
     14  C        -33.4160    2.6000   37.2580 C.2   113  TRP113      0.2595
     15  O        -32.3090    2.2060   37.6220 O.2   113  TRP113     -0.2718
     16  CB       -32.7940    4.4480   35.6850 C.3   113  TRP113      0.0564
     17  CG       -33.1110    3.6510   34.4330 C.ar  113  TRP113      0.0003
     18  CD1      -34.3470    3.4330   33.8950 C.ar  113  TRP113      0.0946
     19  CD2      -32.1760    2.9700   33.5750 C.ar  113  TRP113      0.0152
     20  NE1      -34.2450    2.6530   32.7690 N.ar  113  TRP113     -0.2442
     21  CE2      -32.9240    2.3590   32.5450 C.ar  113  TRP113      0.0810
     22  CE3      -30.7860    2.8190   33.5790 C.ar  113  TRP113      0.0012
     23  CZ2      -32.3250    1.6180   31.5140 C.ar  113  TRP113      0.0191
     24  CZ3      -30.1890    2.0770   32.5570 C.ar  113  TRP113      0.0001
     25  CH2      -30.9620    1.4860   31.5380 C.ar  113  TRP113      0.0015
     26  N        -34.4770    1.8060   37.1450 N.am  114  GLU114     -0.1965
     27  CA       -34.3810    0.3600   37.2970 C.3   114  GLU114      0.1733
     28  C        -34.9520   -0.2270   36.0410 C.2   114  GLU114      0.2617
     29  O        -36.1280   -0.0240   35.7630 O.2   114  GLU114     -0.2715
     30  CB       -35.2180   -0.1320   38.4770 C.3   114  GLU114      0.0429
     31  CG       -35.2230   -1.6480   38.6630 C.3   114  GLU114      0.1163
     32  CD       -33.9220   -2.1660   39.2550 C.2   114  GLU114      0.3649
     33  OE1      -33.1000   -1.3230   39.6740 O.co2 114  GLU114     -0.2457
     34  OE2      -33.7120   -3.4060   39.3040 O.co2 114  GLU114     -0.2457
     35  N        -34.1240   -0.9330   35.2740 N.am  115  SER115     -0.1936
     36  CA       -34.5860   -1.5880   34.0580 C.3   115  SER115      0.2040
     37  C        -34.2230   -3.0550   34.0430 C.2   115  SER115      0.2485
     38  O        -33.1060   -3.4220   33.6860 O.2   115  SER115     -0.2729
     39  CB       -33.9940   -0.9300   32.8240 C.3   115  SER115      0.2129
     40  OG       -34.5490   -1.5440   31.6780 O.3   115  SER115     -0.2179
     41  N        -35.1760   -3.9060   34.4200 N.am  116  PRO116     -0.2715
     42  CA       -34.8920   -5.3440   34.5260 C.3   116  PRO116      0.1536
     43  C        -34.7560   -6.0300   33.1640 C.2   116  PRO116      0.2599
     44  O        -33.9930   -6.9890   33.0400 O.2   116  PRO116     -0.2715
     45  CB       -36.0910   -5.8880   35.3100 C.3   116  PRO116      0.0310
     46  CG       -37.1770   -4.8820   35.1290 C.3   116  PRO116      0.0237
     47  CD       -36.5510   -3.5570   34.8190 C.3   116  PRO116      0.0939
     48  N        -35.4750   -5.5430   32.1580 N.am  117  SER117     -0.1936
     49  CA       -35.3630   -6.1080   30.8260 C.3   117  SER117      0.2055
     50  C        -33.9610   -5.8950   30.2590 C.2   117  SER117      0.2642
     51  O        -33.4890   -6.7160   29.4770 O.2   117  SER117     -0.2714
     52  CB       -36.4250   -5.5320   29.8890 C.3   117  SER117      0.2130
     53  OG       -37.6510   -6.2250   30.0460 O.3   117  SER117     -0.2179
     54  N        -33.3030   -4.8050   30.6670 N.am  118  LEU118     -0.1977
     55  CA       -31.9100   -4.5400   30.2890 C.3   118  LEU118      0.1596
     56  C        -30.9040   -4.9520   31.3650 C.2   118  LEU118      0.2287
     57  O        -29.7090   -4.6590   31.2460 O.2   118  LEU118     -0.2864
     58  CB       -31.7000   -3.0690   29.9460 C.3   118  LEU118      0.0297
     59  CG       -32.5420   -2.5630   28.7730 C.3   118  LEU118      0.0022
     60  CD1      -32.2690   -1.0910   28.5100 C.3   118  LEU118      0.0001
     61  CD2      -32.2620   -3.3790   27.5280 C.3   118  LEU118      0.0001
     62  N        -42.7660   -7.3130   22.1840 N.3   242  PHE242     -0.1227
     63  CA       -43.4020   -7.4390   23.4810 C.3   242  PHE242      0.1736
     64  C        -44.3600   -6.2580   23.7260 C.2   242  PHE242      0.2595
     65  O        -45.4920   -6.4170   24.1960 O.2   242  PHE242     -0.2718
     66  CB       -42.3310   -7.5230   24.5710 C.3   242  PHE242      0.0547
     67  CG       -42.8480   -7.2250   25.9480 C.ar  242  PHE242     -0.0202
     68  CD1      -43.5900   -8.1630   26.6410 C.ar  242  PHE242     -0.0042
     69  CD2      -42.6090   -5.9990   26.5380 C.ar  242  PHE242     -0.0042
     70  CE1      -44.0860   -7.8840   27.8950 C.ar  242  PHE242     -0.0003
     71  CE2      -43.1050   -5.7160   27.7980 C.ar  242  PHE242     -0.0003
     72  CZ       -43.8400   -6.6630   28.4740 C.ar  242  PHE242     -0.0000
     73  N        -43.9070   -5.0660   23.3830 N.am  243  ASN243     -0.1974
     74  CA       -44.7100   -3.8820   23.6030 C.3   243  ASN243      0.1688
     75  C        -45.9120   -3.8500   22.6890 C.2   243  ASN243      0.2292
     76  O        -46.9720   -3.3580   23.0710 O.2   243  ASN243     -0.2864
     77  CB       -43.8600   -2.6240   23.3970 C.3   243  ASN243      0.1181
     78  CG       -42.7540   -2.4880   24.4350 C.2   243  ASN243      0.2629
     79  OD1      -42.7790   -3.1340   25.4890 O.2   243  ASN243     -0.2716
     80  ND2      -41.7820   -1.6400   24.1440 N.am  243  ASN243     -0.0877
     81  N        -36.5910  -11.4640   27.5700 N.3   262  ILE262     -0.1245
     82  CA       -35.8960  -10.2860   27.0920 C.3   262  ILE262      0.1561
     83  C        -34.6820  -10.0470   27.9530 C.2   262  ILE262      0.2260
     84  O        -33.6000   -9.7730   27.4520 O.2   262  ILE262     -0.2867
     85  CB       -36.7670   -9.0380   27.1510 C.3   262  ILE262      0.0252
     86  CG1      -37.9610   -9.1720   26.2090 C.3   262  ILE262      0.0019
     87  CG2      -35.9480   -7.8090   26.7580 C.3   262  ILE262      0.0019
     88  CD1      -38.9280   -8.0040   26.2900 C.3   262  ILE262      0.0001
@<TRIPOS>BOND
     1     4     3    2
     2     3     2    1
     3    62    63    1
     4    75    76    2
     5    75    74    1
     6     5     2    1
     7     5     6    1
     8     2     1    1
     9    73    74    1
    10    73    64   am
    11    77    74    1
    12    77    78    1
    13    63    64    1
    14    63    66    1
    15    64    65    2
    16     6     8   ar
    17     6     7   ar
    18    80    78   am
    19     8    10   ar
    20    78    79    2
    21    66    67    1
    22     7     9   ar
    23    10    11   ar
    24     9    11   ar
    25    67    69   ar
    26    67    68   ar
    27    86    88    1
    28    86    85    1
    29    69    71   ar
    30    68    70   ar
    31    87    85    1
    32    82    85    1
    33    82    81    1
    34    82    83    1
    35    84    83    2
    36    61    59    1
    37    71    72   ar
    38    70    72   ar
    39    60    59    1
    40    59    58    1
    41    51    50    2
    42    52    53    1
    43    52    49    1
    44    58    55    1
    45    50    54   am
    46    50    49    1
    47    55    54    1
    48    55    56    1
    49    49    48    1
    50    57    56    2
    51    23    25   ar
    52    23    21   ar
    53    25    24   ar
    54    40    39    1
    55    48    43   am
    56    21    20   ar
    57    21    19   ar
    58    24    22   ar
    59    20    18   ar
    60    39    36    1
    61    44    43    2
    62    43    42    1
    63    19    22   ar
    64    19    17   ar
    65    38    37    2
    66    18    17   ar
    67    37    36    1
    68    37    41   am
    69    36    35    1
    70    41    42    1
    71    41    47    1
    72    17    16    1
    73    42    45    1
    74    47    46    1
    75    46    45    1
    76    35    28   am
    77    16    13    1
    78    29    28    2
    79    28    27    1
    80    13    14    1
    81    13    12    1
    82    26    14   am
    83    26    27    1
    84    14    15    2
    85    27    30    1
    86    30    31    1
    87    31    32    1
    88    32    34   ar
    89    32    33   ar
