@<TRIPOS>MOLECULE
tmp/3rglA00.pdb
 176 170 0 0 0
SMALL
GASTEIGER

@<TRIPOS>ATOM
      1  N        -32.5240   -1.2340    2.2230 N.3    34  GLY34      -0.1210
      2  CA       -31.4060   -1.3460    1.3230 C.3    34  GLY34       0.1956
      3  C        -31.0280   -0.0100    0.7170 C.2    34  GLY34       0.2611
      4  O        -29.9570    0.1140    0.1290 O.2    34  GLY34      -0.2717
      5  N        -31.8840    0.9980    0.8730 N.am   35  ALA35      -0.1979
      6  CA       -31.6760    2.2580    0.1650 C.3    35  ALA35       0.1597
      7  C        -32.5650    3.3440    0.7200 C.2    35  ALA35       0.2287
      8  O        -33.6520    3.0580    1.2160 O.2    35  ALA35      -0.2864
      9  CB       -31.9870    2.0680   -1.3470 C.3    35  ALA35       0.0319
     10  N        -36.3090    3.4760    0.0350 N.3    38  PHE38      -0.1241
     11  CA       -37.2300    2.6940    0.8740 C.3    38  PHE38       0.1605
     12  C        -37.8930    3.4740    1.9900 C.2    38  PHE38       0.2264
     13  O        -38.9450    3.0880    2.4540 O.2    38  PHE38      -0.2867
     14  CB       -36.5430    1.4520    1.4280 C.3    38  PHE38       0.0534
     15  CG       -36.3220    0.3940    0.3960 C.ar   38  PHE38      -0.0203
     16  CD1      -35.3140    0.5310   -0.5420 C.ar   38  PHE38      -0.0042
     17  CD2      -37.1490   -0.7160    0.3400 C.ar   38  PHE38      -0.0042
     18  CE1      -35.1210   -0.4300   -1.5090 C.ar   38  PHE38      -0.0003
     19  CE2      -36.9680   -1.6830   -0.6180 C.ar   38  PHE38      -0.0003
     20  CZ       -35.9500   -1.5430   -1.5510 C.ar   38  PHE38      -0.0000
     21  N        -27.0900   -3.7840    2.8260 N.3    62  ARG62      -0.1245
     22  CA       -27.0440   -4.6220    1.6440 C.3    62  ARG62       0.1563
     23  C        -26.2650   -5.8780    1.9650 C.2    62  ARG62       0.2260
     24  O        -25.0780   -5.9830    1.6420 O.2    62  ARG62      -0.2867
     25  CB       -26.4030   -3.8650    0.4930 C.3    62  ARG62       0.0307
     26  CG       -27.3850   -2.9510   -0.2190 C.3    62  ARG62       0.0489
     27  CD       -26.6970   -1.8190   -0.9350 C.3    62  ARG62       0.2205
     28  NE       -27.6360   -0.7300   -1.1870 N.pl3  62  ARG62      -0.0865
     29  CZ       -27.4070    0.2720   -2.0270 C.cat  62  ARG62       0.5346
     30  NH1      -26.2640    0.3210   -2.7070 N.pl3  62  ARG62       0.1354
     31  NH2      -28.3250    1.2150   -2.1920 N.pl3  62  ARG62       0.1354
     32  N        -23.5290   -7.3590   -0.0700 N.3    65  ASP65      -0.1239
     33  CA       -22.3540   -6.5200   -0.2540 C.3    65  ASP65       0.1674
     34  C        -21.2980   -6.7320    0.8280 C.2    65  ASP65       0.2266
     35  O        -20.1150   -6.4660    0.6100 O.2    65  ASP65      -0.2867
     36  CB       -22.7420   -5.0380   -0.3390 C.3    65  ASP65       0.1410
     37  CG       -23.1380   -4.6070   -1.7600 C.2    65  ASP65       0.3668
     38  OD1      -23.0030   -5.4410   -2.6930 O.co2  65  ASP65      -0.2456
     39  OD2      -23.5670   -3.4320   -1.9360 O.co2  65  ASP65      -0.2456
     40  N        -13.7620   -0.5120   -0.0080 N.3    73  ASN73      -0.1225
     41  CA       -14.8310    0.2120   -0.7200 C.3    73  ASN73       0.1785
     42  C        -16.2100   -0.3460   -0.4860 C.2    73  ASN73       0.2597
     43  O        -17.1830    0.3990   -0.4570 O.2    73  ASN73      -0.2718
     44  CB       -14.6210    0.2130   -2.2470 C.3    73  ASN73       0.1169
     45  CG       -13.2050    0.4710   -2.6380 C.2    73  ASN73       0.2627
     46  OD1      -12.6360   -0.2680   -3.4280 O.2    73  ASN73      -0.2716
     47  ND2      -12.6080    1.5120   -2.0710 N.am   73  ASN73      -0.0877
     48  N        -16.2990   -1.6650   -0.3810 N.am   74  ARG74      -0.1966
     49  CA       -17.5920   -2.3300   -0.3320 C.3    74  ARG74       0.1729
     50  C        -18.0030   -2.6450    1.0990 C.2    74  ARG74       0.2616
     51  O        -17.2550   -3.2960    1.8380 O.2    74  ARG74      -0.2715
     52  CB       -17.5650   -3.6160   -1.1660 C.3    74  ARG74       0.0348
     53  CG       -18.1590   -3.5010   -2.5480 C.3    74  ARG74       0.0492
     54  CD       -19.6660   -3.3630   -2.4950 C.3    74  ARG74       0.2205
     55  NE       -20.2840   -3.4180   -3.8220 N.pl3  74  ARG74      -0.0865
     56  CZ       -20.5980   -2.3560   -4.5660 C.cat  74  ARG74       0.5346
     57  NH1      -21.1600   -2.5310   -5.7530 N.pl3  74  ARG74       0.1354
     58  NH2      -20.3550   -1.1220   -4.1360 N.pl3  74  ARG74       0.1354
     59  N        -19.2050   -2.2040    1.4680 N.am   75  LEU75      -0.1977
     60  CA       -19.7270   -2.3910    2.8190 C.3    75  LEU75       0.1596
     61  C        -21.0950   -3.0470    2.7980 C.2    75  LEU75       0.2287
     62  O        -21.9160   -2.7250    1.9500 O.2    75  LEU75      -0.2864
     63  CB       -19.8660   -1.0440    3.5190 C.3    75  LEU75       0.0297
     64  CG       -18.6180   -0.2320    3.7890 C.3    75  LEU75       0.0022
     65  CD1      -19.0240    1.1590    4.1570 C.3    75  LEU75       0.0001
     66  CD2      -17.8640   -0.8570    4.9170 C.3    75  LEU75       0.0001
     67  N        -24.0570    0.9470    5.0610 N.3    78  TYR78      -0.1241
     68  CA       -23.3940    2.1950    4.7180 C.3    78  TYR78       0.1605
     69  C        -24.3830    3.3630    4.6660 C.2    78  TYR78       0.2264
     70  O        -25.6000    3.1780    4.5740 O.2    78  TYR78      -0.2867
     71  CB       -22.6230    2.0450    3.3930 C.3    78  TYR78       0.0534
     72  CG       -23.4570    2.1840    2.1450 C.ar   78  TYR78      -0.0201
     73  CD1      -23.4510    3.3690    1.4280 C.ar   78  TYR78      -0.0009
     74  CD2      -24.2530    1.1340    1.6820 C.ar   78  TYR78      -0.0009
     75  CE1      -24.2090    3.5220    0.2920 C.ar   78  TYR78       0.0417
     76  CE2      -25.0240    1.2720    0.5340 C.ar   78  TYR78       0.0417
     77  CZ       -24.9920    2.4800   -0.1600 C.ar   78  TYR78       0.1957
     78  OH       -25.7260    2.6780   -1.3120 O.3    78  TYR78      -0.2866
     79  N        -26.0630    6.5440    3.0000 N.3    80  GLN80      -0.1245
     80  CA       -26.4480    7.3820    1.8860 C.3    80  GLN80       0.1566
     81  C        -26.9780    8.7150    2.4190 C.2    80  GLN80       0.2260
     82  O        -27.5210    8.7840    3.5220 O.2    80  GLN80      -0.2867
     83  CB       -27.5940    6.7110    1.1170 C.3    80  GLN80       0.0367
     84  CG       -27.2540    5.4090    0.4300 C.3    80  GLN80       0.0905
     85  CD       -28.4230    4.8760   -0.4020 C.2    80  GLN80       0.2608
     86  OE1      -29.5960    5.1530   -0.1090 O.2    80  GLN80      -0.2717
     87  NE2      -28.1060    4.1130   -1.4520 N.am   80  GLN80      -0.0878
     88  N        -33.2340    3.7120  -13.7290 N.3   119  TRP119     -0.1241
     89  CA       -33.6750    3.0580  -12.5170 C.3   119  TRP119      0.1605
     90  C        -34.8620    2.1400  -12.7790 C.2   119  TRP119      0.2264
     91  O        -35.9710    2.5830  -13.0830 O.2   119  TRP119     -0.2867
     92  CB       -34.0240    4.1030  -11.4510 C.3   119  TRP119      0.0550
     93  CG       -34.4430    3.5110  -10.1360 C.ar  119  TRP119      0.0003
     94  CD1      -33.7520    2.6050   -9.3920 C.ar  119  TRP119      0.0946
     95  CD2      -35.6480    3.7840   -9.4180 C.ar  119  TRP119      0.0152
     96  NE1      -34.4570    2.2900   -8.2570 N.ar  119  TRP119     -0.2442
     97  CE2      -35.6230    3.0030   -8.2470 C.ar  119  TRP119      0.0810
     98  CE3      -36.7430    4.6120   -9.6490 C.ar  119  TRP119      0.0012
     99  CZ2      -36.6520    3.0290   -7.3020 C.ar  119  TRP119      0.0191
    100  CZ3      -37.7670    4.6390   -8.7080 C.ar  119  TRP119      0.0001
    101  CH2      -37.7080    3.8560   -7.5460 C.ar  119  TRP119      0.0015
    102  N        -18.2050    6.6180   -9.0710 N.3   138  GLU138     -0.1231
    103  CA       -19.5850    7.0310   -8.8950 C.3   138  GLU138      0.1699
    104  C        -19.7980    7.4820   -7.4660 C.2   138  GLU138      0.2592
    105  O        -19.5970    6.7100   -6.5300 O.2   138  GLU138     -0.2718
    106  CB       -20.5550    5.9020   -9.2580 C.3   138  GLU138      0.0402
    107  CG       -22.0010    6.3770   -9.4140 C.3   138  GLU138      0.1161
    108  CD       -23.0220    5.3300   -8.9850 C.2   138  GLU138      0.3649
    109  OE1      -22.9590    4.2000   -9.5180 O.co2 138  GLU138     -0.2457
    110  OE2      -23.8800    5.6310   -8.1150 O.co2 138  GLU138     -0.2457
    111  N        -20.2070    8.7380   -7.3090 N.am  139  VAL139     -0.1966
    112  CA       -20.3870    9.3390   -5.9910 C.3   139  VAL139      0.1727
    113  C        -21.8410    9.7380   -5.7200 C.2   139  VAL139      0.2617
    114  O        -22.1580   10.2360   -4.6460 O.2   139  VAL139     -0.2715
    115  CB       -19.5110   10.5850   -5.8390 C.3   139  VAL139      0.0290
    116  CG1      -18.0600   10.2520   -6.1320 C.3   139  VAL139      0.0023
    117  CG2      -19.9960   11.6710   -6.7660 C.3   139  VAL139      0.0023
    118  N        -22.7180    9.5190   -6.6950 N.am  140  THR140     -0.1937
    119  CA       -24.1070    9.9370   -6.5840 C.3   140  THR140      0.2028
    120  C        -24.9430    9.3360   -7.7070 C.2   140  THR140      0.2642
    121  O        -24.4290    9.0420   -8.7850 O.2   140  THR140     -0.2714
    122  CB       -24.2500   11.4840   -6.6570 C.3   140  THR140      0.1808
    123  OG1      -23.3080   12.0960   -5.7810 O.3   140  THR140     -0.2208
    124  CG2      -25.6450   11.9340   -6.2500 C.3   140  THR140      0.0379
    125  N        -26.2350    9.1660   -7.4370 N.am  141  GLN141     -0.1976
    126  CA       -27.2130    8.7980   -8.4400 C.3   141  GLN141      0.1601
    127  C        -28.2540    9.8920   -8.4850 C.2   141  GLN141      0.2287
    128  O        -28.6130   10.4440   -7.4510 O.2   141  GLN141     -0.2864
    129  CB       -27.9070    7.4940   -8.0470 C.3   141  GLN141      0.0394
    130  CG       -27.0700    6.2450   -8.2130 C.3   141  GLN141      0.0908
    131  CD       -27.3830    5.5040   -9.5100 C.2   141  GLN141      0.2608
    132  OE1      -28.1720    5.9720  -10.3430 O.2   141  GLN141     -0.2717
    133  NE2      -26.7660    4.3380   -9.6840 N.am  141  GLN141     -0.0878
    134  N        -28.9160   10.7970   -4.5120 N.3   161  THR161     -0.1203
    135  CA       -28.4170    9.8360   -3.5660 C.3   161  THR161      0.1994
    136  C        -26.8920    9.9010   -3.5130 C.2   161  THR161      0.2618
    137  O        -26.2080    9.5340   -4.4620 O.2   161  THR161     -0.2717
    138  CB       -28.9380    8.4250   -3.9300 C.3   161  THR161      0.1784
    139  OG1      -30.3640    8.4210   -3.8220 O.3   161  THR161     -0.2211
    140  CG2      -28.3960    7.3750   -2.9800 C.3   161  THR161      0.0376
    141  N        -26.3610   10.4030   -2.4030 N.am  162  TYR162     -0.1961
    142  CA       -24.9200   10.5030   -2.2360 C.3   162  TYR162      0.1771
    143  C        -24.3480    9.2220   -1.6590 C.2   162  TYR162      0.2620
    144  O        -24.8850    8.6810   -0.6940 O.2   162  TYR162     -0.2715
    145  CB       -24.5660   11.6270   -1.2860 C.3   162  TYR162      0.0574
    146  CG       -25.0530   12.9980   -1.6730 C.ar  162  TYR162     -0.0198
    147  CD1      -26.4150   13.3190   -1.6440 C.ar  162  TYR162     -0.0009
    148  CD2      -24.1510   13.9920   -1.9990 C.ar  162  TYR162     -0.0009
    149  CE1      -26.8580   14.5840   -1.9720 C.ar  162  TYR162      0.0417
    150  CE2      -24.5890   15.2560   -2.3320 C.ar  162  TYR162      0.0417
    151  CZ       -25.9390   15.5500   -2.3150 C.ar  162  TYR162      0.1957
    152  OH       -26.3470   16.8270   -2.6380 O.3   162  TYR162     -0.2866
    153  N        -23.2620    8.7400   -2.2510 N.am  163  GLY163     -0.1954
    154  CA       -22.4610    7.6930   -1.6390 C.3   163  GLY163      0.1869
    155  C        -21.5250    8.3340   -0.6360 C.2   163  GLY163      0.2309
    156  O        -20.3850    8.6750   -0.9400 O.2   163  GLY163     -0.2863
    157  N        -19.6220    7.6300    2.0950 N.3   165  GLU165     -0.1231
    158  CA       -18.2610    7.2100    2.3830 C.3   165  GLU165      0.1699
    159  C        -17.3550    7.4900    1.2010 C.2   165  GLU165      0.2592
    160  O        -16.2800    8.0710    1.3450 O.2   165  GLU165     -0.2718
    161  CB       -18.2070    5.7330    2.7640 C.3   165  GLU165      0.0402
    162  CG       -18.8790    5.4290    4.0910 C.3   165  GLU165      0.1161
    163  CD       -20.3780    5.2900    3.9460 C.2   165  GLU165      0.3649
    164  OE1      -20.9060    5.7340    2.9000 O.co2 165  GLU165     -0.2457
    165  OE2      -21.0220    4.7210    4.8620 O.co2 165  GLU165     -0.2457
    166  N        -17.7990    7.0720    0.0290 N.am  166  ARG166     -0.1980
    167  CA       -17.0700    7.3510   -1.1750 C.3   166  ARG166      0.1597
    168  C        -16.6610    8.8130   -1.1810 C.2   166  ARG166      0.2287
    169  O        -15.4960    9.1540   -1.3980 O.2   166  ARG166     -0.2864
    170  CB       -17.9650    7.0510   -2.3740 C.3   166  ARG166      0.0334
    171  CG       -17.3120    7.2880   -3.6960 C.3   166  ARG166      0.0492
    172  CD       -16.3870    6.1420   -4.0400 C.3   166  ARG166      0.2205
    173  NE       -14.9910    6.4950   -3.8420 N.pl3 166  ARG166     -0.0865
    174  CZ       -13.9820    5.6750   -4.0920 C.cat 166  ARG166      0.5346
    175  NH1      -14.2260    4.4550   -4.5560 N.pl3 166  ARG166      0.1354
    176  NH2      -12.7330    6.0760   -3.8790 N.pl3 166  ARG166      0.1354
@<TRIPOS>BOND
     1    88    89    1
     2    91    90    2
     3    90    89    1
     4    89    92    1
     5    92    93    1
     6   132   131    2
     7    93    95   ar
     8    93    94   ar
     9   133   131   am
    10    98    95   ar
    11    98   100   ar
    12   109   108   ar
    13   131   130    1
    14    95    97   ar
    15   107   106    1
    16   107   108    1
    17    94    96   ar
    18   106   103    1
    19   102   103    1
    20   108   110   ar
    21   103   104    1
    22   121   120    2
    23   100   101   ar
    24   127   126    1
    25   127   128    2
    26   126   129    1
    27   126   125    1
    28    96    97   ar
    29    97    99   ar
    30   130   129    1
    31   120   125   am
    32   120   119    1
    33   101    99   ar
    34   104   111   am
    35   104   105    2
    36   111   112    1
    37   117   115    1
    38   118   119    1
    39   118   113   am
    40   122   119    1
    41   122   124    1
    42   122   123    1
    43   116   115    1
    44   112   115    1
    45   112   113    1
    46    57    56    1
    47   113   114    2
    48    56    58    1
    49    56    55    2
    50   175   174    1
    51   134   135    1
    52   137   136    2
    53   174   176    1
    54   174   173    2
    55   172   173    1
    56   172   171    1
    57   138   139    1
    58   138   135    1
    59   138   140    1
    60    55    54    1
    61   171   170    1
    62   135   136    1
    63   136   141   am
    64    46    45    2
    65    30    29    1
    66    38    37   ar
    67   152   151    1
    68    45    44    1
    69    45    47   am
    70    53    54    1
    71    53    52    1
    72   141   142    1
    73   170   167    1
    74   150   151   ar
    75   150   148   ar
    76   151   149   ar
    77   153   143   am
    78   153   154    1
    79    44    41    1
    80   142   143    1
    81   142   145    1
    82    31    29    1
    83    29    28    2
    84   148   146   ar
    85   149   147   ar
    86    39    37   ar
    87    37    36    1
    88   146   147   ar
    89   146   145    1
    90   143   144    2
    91   154   155    1
    92    20    18   ar
    93    20    19   ar
    94    18    16   ar
    95    87    85   am
    96   169   168    2
    97     9     6    1
    98    78    77    1
    99    28    27    1
   100   168   167    1
   101   167   166    1
   102    52    49    1
   103   156   155    2
   104    27    26    1
   105    41    42    1
   106    41    40    1
   107    19    17   ar
   108    16    15   ar
   109    42    43    2
   110    42    48   am
   111    85    86    2
   112    85    84    1
   113    48    49    1
   114    36    33    1
   115    49    50    1
   116    33    32    1
   117    33    34    1
   118    26    25    1
   119    77    75   ar
   120    77    76   ar
   121   166   159   am
   122    10    11    1
   123     4     3    2
   124     6     7    1
   125     6     5    1
   126    75    73   ar
   127    17    15   ar
   128    15    14    1
   129    84    83    1
   130    25    22    1
   131    76    74   ar
   132    35    34    2
   133     3     5   am
   134     3     2    1
   135     7     8    2
   136    11    14    1
   137    11    12    1
   138    50    59   am
   139    50    51    2
   140    83    80    1
   141   159   160    2
   142   159   158    1
   143     2     1    1
   144    73    72   ar
   145    59    60    1
   146    24    23    2
   147    22    23    1
   148    22    21    1
   149    74    72   ar
   150    80    81    1
   151    80    79    1
   152    62    61    2
   153    12    13    2
   154   157   158    1
   155    72    71    1
   156   158   161    1
   157    81    82    2
   158   161   162    1
   159    61    60    1
   160    60    63    1
   161   164   163   ar
   162    71    68    1
   163    63    64    1
   164    64    65    1
   165    64    66    1
   166   163   162    1
   167   163   165   ar
   168    70    69    2
   169    69    68    1
   170    68    67    1
