@<TRIPOS>MOLECULE
tmp/3rgqA00.pdb
 118 112 0 0 0
SMALL
GASTEIGER

@<TRIPOS>ATOM
      1  N         42.6210   -8.0650    6.5610 N.3     2  TRP2       -0.1241
      2  CA        41.7510   -7.2610    7.4100 C.3     2  TRP2        0.1605
      3  C         40.3230   -7.3340    6.8790 C.2     2  TRP2        0.2264
      4  O         39.3650   -7.4740    7.6430 O.2     2  TRP2       -0.2867
      5  CB        42.2320   -5.8080    7.4480 C.3     2  TRP2        0.0550
      6  CG        41.6160   -5.0390    8.5600 C.ar    2  TRP2        0.0003
      7  CD1       40.5100   -4.2450    8.4920 C.ar    2  TRP2        0.0946
      8  CD2       42.0510   -5.0100    9.9230 C.ar    2  TRP2        0.0152
      9  NE1       40.2340   -3.7140    9.7280 N.ar    2  TRP2       -0.2442
     10  CE2       41.1670   -4.1680   10.6230 C.ar    2  TRP2        0.0810
     11  CE3       43.1070   -5.6080   10.6180 C.ar    2  TRP2        0.0012
     12  CZ2       41.3030   -3.9110   11.9840 C.ar    2  TRP2        0.0191
     13  CZ3       43.2420   -5.3500   11.9720 C.ar    2  TRP2        0.0001
     14  CH2       42.3460   -4.5090   12.6390 C.ar    2  TRP2        0.0015
     15  N         37.1360   -6.6110    9.3790 N.3    14  ALA14      -0.1231
     16  CA        37.2430   -6.2260   10.7780 C.3    14  ALA14       0.1694
     17  C         36.9740   -4.7330   10.9290 C.2    14  ALA14       0.2591
     18  O         36.6770   -4.0500    9.9470 O.2    14  ALA14      -0.2718
     19  CB        38.6230   -6.5760   11.3090 C.3    14  ALA14       0.0304
     20  N         37.0790   -4.2310   12.1570 N.am   15  LEU15      -0.1980
     21  CA        36.8280   -2.8170   12.4260 C.3    15  LEU15       0.1596
     22  C         37.5270   -1.9200   11.4150 C.2    15  LEU15       0.2287
     23  O         38.7360   -2.0240   11.2190 O.2    15  LEU15      -0.2864
     24  CB        37.3030   -2.4310   13.8320 C.3    15  LEU15       0.0297
     25  CG        36.4950   -2.8640   15.0560 C.3    15  LEU15       0.0022
     26  CD1       37.1620   -2.3350   16.3190 C.3    15  LEU15       0.0001
     27  CD2       35.0610   -2.3670   14.9600 C.3    15  LEU15       0.0001
     28  N         39.3720    1.1150   10.6670 N.3    17  LEU17      -0.1245
     29  CA        40.0760    2.2160   11.3160 C.3    17  LEU17       0.1561
     30  C         39.9320    3.4740   10.4680 C.2    17  LEU17       0.2260
     31  O         39.7400    3.3920    9.2560 O.2    17  LEU17      -0.2867
     32  CB        41.5570    1.8850   11.5260 C.3    17  LEU17       0.0270
     33  CG        41.9260    0.6600   12.3690 C.3    17  LEU17       0.0019
     34  CD1       40.9350    0.4590   13.5090 C.3    17  LEU17       0.0001
     35  CD2       42.0060   -0.5860   11.5040 C.3    17  LEU17       0.0001
     36  N         38.0530    4.2240   17.7030 N.3    45  LEU45      -0.1245
     37  CA        38.7610    3.5840   16.5940 C.3    45  LEU45       0.1561
     38  C         38.1110    3.8040   15.2330 C.2    45  LEU45       0.2260
     39  O         38.7970    3.8310   14.2100 O.2    45  LEU45      -0.2867
     40  CB        38.9010    2.0810   16.8480 C.3    45  LEU45       0.0270
     41  CG        40.0650    1.6050   17.7200 C.3    45  LEU45       0.0019
     42  CD1       40.1520    2.4060   19.0090 C.3    45  LEU45       0.0001
     43  CD2       39.9280    0.1200   18.0120 C.3    45  LEU45       0.0001
     44  N         28.0430  -12.3750   22.8690 N.3    67  MET67      -0.1245
     45  CA        29.2230  -12.6310   22.0490 C.3    67  MET67       0.1570
     46  C         29.0570  -13.8010   21.0830 C.2    67  MET67       0.2261
     47  O         29.9590  -14.0900   20.2970 O.2    67  MET67      -0.2867
     48  CB        30.4580  -12.8330   22.9320 C.3    67  MET67       0.0387
     49  CG        31.0520  -11.5350   23.4590 C.3    67  MET67       0.0595
     50  SD        29.8930  -10.5680   24.4470 S.3    67  MET67      -0.1393
     51  CE        30.8660   -9.0980   24.7500 C.3    67  MET67       0.0692
     52  N         26.9400  -13.5110   18.9170 N.3    69  GLY69      -0.1225
     53  CA        26.7520  -12.6620   17.7530 C.3    69  GLY69       0.1811
     54  C         25.5700  -12.9970   16.8640 C.2    69  GLY69       0.2280
     55  O         25.7060  -13.0630   15.6420 O.2    69  GLY69      -0.2866
     56  N         32.3350   -6.2110   11.5710 N.3    97  SER97      -0.1202
     57  CA        32.1580   -6.4020   13.0000 C.3    97  SER97       0.2020
     58  C         33.5070   -6.0590   13.6130 C.2    97  SER97       0.2619
     59  O         34.2520   -5.2610   13.0450 O.2    97  SER97      -0.2717
     60  CB        31.7730   -7.8490   13.3080 C.3    97  SER97       0.2103
     61  OG        32.6280   -8.7500   12.6250 O.3    97  SER97      -0.2182
     62  N         33.8420   -6.6550   14.7510 N.am   98  LYS98      -0.1965
     63  CA        35.1630   -6.4170   15.3230 C.3    98  LYS98       0.1728
     64  C         36.2420   -7.1530   14.5320 C.2    98  LYS98       0.2616
     65  O         37.2090   -6.5460   14.0780 O.2    98  LYS98      -0.2715
     66  CB        35.2260   -6.8020   16.8060 C.3    98  LYS98       0.0311
     67  CG        36.5650   -6.4520   17.4420 C.3    98  LYS98       0.0038
     68  CD        36.5120   -6.4710   18.9590 C.3    98  LYS98       0.0206
     69  CE        36.5230   -7.8850   19.5000 C.3    98  LYS98       0.1093
     70  NZ        36.6820   -7.8890   20.9790 N.3    98  LYS98      -0.1314
     71  N         36.0680   -8.4580   14.3580 N.am   99  ALA99      -0.1963
     72  CA        37.0650   -9.2680   13.6640 C.3    99  ALA99       0.1728
     73  C         36.6610   -9.6000   12.2260 C.2    99  ALA99       0.2617
     74  O         37.4640  -10.1250   11.4550 O.2    99  ALA99      -0.2715
     75  CB        37.3520  -10.5470   14.4500 C.3    99  ALA99       0.0334
     76  N         35.4200   -9.2900   11.8710 N.am  100  GLY100     -0.1940
     77  CA        34.8940   -9.6560   10.5680 C.3   100  GLY100      0.2014
     78  C         34.8510  -11.1630   10.4000 C.2   100  GLY100      0.2639
     79  O         35.0720  -11.6820    9.3060 O.2   100  GLY100     -0.2714
     80  N         34.5590  -11.8670   11.4900 N.am  101  ARG101     -0.1963
     81  CA        34.5850  -13.3270   11.4880 C.3   101  ARG101      0.1729
     82  C         33.2260  -13.9710   11.7310 C.2   101  ARG101      0.2617
     83  O         32.9810  -15.0890   11.2870 O.2   101  ARG101     -0.2715
     84  CB        35.5580  -13.8380   12.5490 C.3   101  ARG101      0.0348
     85  CG        37.0200  -13.5900   12.2440 C.3   101  ARG101      0.0492
     86  CD        37.8890  -14.0460   13.4040 C.3   101  ARG101      0.2205
     87  NE        37.5920  -15.4190   13.8070 N.pl3 101  ARG101     -0.0865
     88  CZ        36.7340  -15.7530   14.7680 C.cat 101  ARG101      0.5346
     89  NH1       36.0780  -14.8120   15.4340 N.pl3 101  ARG101      0.1354
     90  NH2       36.5310  -17.0310   15.0630 N.pl3 101  ARG101      0.1354
     91  N         32.3480  -13.2800   12.4480 N.am  102  SER102     -0.1936
     92  CA        31.1250  -13.9180   12.9180 C.3   102  SER102      0.2055
     93  C         29.8590  -13.0950   12.6920 C.2   102  SER102      0.2642
     94  O         29.0370  -13.4370   11.8450 O.2   102  SER102     -0.2714
     95  CB        31.2590  -14.2850   14.3980 C.3   102  SER102      0.2130
     96  OG        30.2170  -15.1540   14.7880 O.3   102  SER102     -0.2179
     97  N         29.6950  -12.0250   13.4630 N.am  103  ARG103     -0.1977
     98  CA        28.5120  -11.1750   13.3420 C.3   103  ARG103      0.1597
     99  C         28.3540  -10.6390   11.9220 C.2   103  ARG103      0.2287
    100  O         27.2600  -10.6590   11.3560 O.2   103  ARG103     -0.2864
    101  CB        28.5780  -10.0110   14.3320 C.3   103  ARG103      0.0334
    102  CG        28.1650  -10.3730   15.7390 C.3   103  ARG103      0.0492
    103  CD        28.4330   -9.2300   16.6950 C.3   103  ARG103      0.2205
    104  NE        29.8620   -8.9580   16.8230 N.pl3 103  ARG103     -0.0865
    105  CZ        30.3720   -8.0150   17.6070 C.cat 103  ARG103      0.5346
    106  NH1       29.5690   -7.2470   18.3280 N.pl3 103  ARG103      0.1354
    107  NH2       31.6840   -7.8360   17.6680 N.pl3 103  ARG103      0.1354
    108  N         28.3800  -19.4520   14.4950 N.3   137  ARG137     -0.1245
    109  CA        27.9240  -20.2250   15.6420 C.3   137  ARG137      0.1563
    110  C         26.5720  -20.8650   15.3540 C.2   137  ARG137      0.2260
    111  O         25.8090  -20.3620   14.5280 O.2   137  ARG137     -0.2867
    112  CB        27.8700  -19.3420   16.8890 C.3   137  ARG137      0.0307
    113  CG        29.2370  -18.8210   17.2850 C.3   137  ARG137      0.0489
    114  CD        29.2090  -18.0230   18.5680 C.3   137  ARG137      0.2205
    115  NE        30.5530  -17.5790   18.9250 N.pl3 137  ARG137     -0.0865
    116  CZ        31.1600  -16.5300   18.3800 C.cat 137  ARG137      0.5346
    117  NH1       30.5400  -15.8100   17.4540 N.pl3 137  ARG137      0.1354
    118  NH2       32.3860  -16.2000   18.7600 N.pl3 137  ARG137      0.1354
@<TRIPOS>BOND
     1     1     2    1
     2     3     2    1
     3     3     4    2
     4     2     5    1
     5     5     6    1
     6     7     6   ar
     7     7     9   ar
     8     6     8   ar
     9    31    30    2
    10    79    78    2
    11    15    16    1
    12     9    10   ar
    13     8    11   ar
    14     8    10   ar
    15    18    17    2
    16    78    77    1
    17    78    80   am
    18    30    29    1
    19    77    76    1
    20    11    13   ar
    21    10    12   ar
    22    28    29    1
    23    16    17    1
    24    16    19    1
    25    17    20   am
    26    23    22    2
    27    83    82    2
    28    29    32    1
    29   100    99    2
    30    22    21    1
    31    74    73    2
    32    81    80    1
    33    81    82    1
    34    81    84    1
    35    35    33    1
    36    32    33    1
    37    56    57    1
    38    82    91   am
    39    94    93    2
    40    76    73   am
    41    99    98    1
    42    13    14   ar
    43    12    14   ar
    44    20    21    1
    45    73    72    1
    46    85    84    1
    47    85    86    1
    48    33    34    1
    49    21    24    1
    50    91    92    1
    51    61    60    1
    52    93    92    1
    53    93    97   am
    54    92    95    1
    55    57    60    1
    56    57    58    1
    57    59    58    2
    58    98    97    1
    59    98   101    1
    60    86    87    1
    61    58    62   am
    62    72    71    1
    63    72    75    1
    64    87    88    2
    65    24    25    1
    66    65    64    2
    67    39    38    2
    68   101   102    1
    69    71    64   am
    70    95    96    1
    71   108   109    1
    72   111   110    2
    73    64    63    1
    74    62    63    1
    75    88    90    1
    76    88    89    1
    77    27    25    1
    78    25    26    1
    79    38    37    1
    80    63    66    1
    81   110   109    1
    82   109   112    1
    83    55    54    2
    84   102   103    1
    85    37    40    1
    86    37    36    1
    87   103   104    1
    88    66    67    1
    89   104   105    2
    90    40    41    1
    91    54    53    1
    92   112   113    1
    93   113   114    1
    94    67    68    1
    95   117   116    1
    96   105   107    1
    97   105   106    1
    98    41    43    1
    99    41    42    1
   100    53    52    1
   101   116   118    1
   102   116   115    2
   103   114   115    1
   104    68    69    1
   105    69    70    1
   106    47    46    2
   107    46    45    1
   108    45    44    1
   109    45    48    1
   110    48    49    1
   111    49    50    1
   112    50    51    1
