@<TRIPOS>MOLECULE
tmp/3rgtA00.pdb
 152 143 0 0 0
SMALL
GASTEIGER

@<TRIPOS>ATOM
      1  N         33.4070  -18.7660  -14.5490 N.3    37  ASN37      -0.1240
      2  CA        33.3600  -19.7330  -13.4480 C.3    37  ASN37       0.1653
      3  C         32.6080  -21.0440  -13.7270 C.2    37  ASN37       0.2266
      4  O         31.4260  -21.0430  -14.0560 O.2    37  ASN37      -0.2867
      5  CB        32.7730  -19.0620  -12.2020 C.3    37  ASN37       0.1155
      6  CG        33.1450  -19.7790  -10.9200 C.2    37  ASN37       0.2627
      7  OD1       33.9870  -20.6750  -10.9190 O.2    37  ASN37      -0.2716
      8  ND2       32.5380  -19.3660   -9.8090 N.am   37  ASN37      -0.0877
      9  N         31.0840   -2.6470   -1.6310 N.3   120  TYR120     -0.1241
     10  CA        30.3920   -3.3550   -0.5670 C.3   120  TYR120      0.1605
     11  C         31.0720   -4.6930   -0.3330 C.2   120  TYR120      0.2264
     12  O         31.7090   -5.2300   -1.2360 O.2   120  TYR120     -0.2867
     13  CB        28.8970   -3.5220   -0.8590 C.3   120  TYR120      0.0534
     14  CG        28.5180   -4.4770   -1.9820 C.ar  120  TYR120     -0.0201
     15  CD1       28.3800   -5.8420   -1.7510 C.ar  120  TYR120     -0.0009
     16  CD2       28.2670   -4.0020   -3.2620 C.ar  120  TYR120     -0.0009
     17  CE1       28.0190   -6.7100   -2.7750 C.ar  120  TYR120      0.0417
     18  CE2       27.9020   -4.8520   -4.2810 C.ar  120  TYR120      0.0417
     19  CZ        27.7790   -6.2020   -4.0440 C.ar  120  TYR120      0.1957
     20  OH        27.4010   -7.0340   -5.0820 O.3   120  TYR120     -0.2866
     21  N         30.8310   -8.8100    1.3870 N.3   122  HIS122     -0.1241
     22  CA        29.9220   -9.9000    1.7060 C.3   122  HIS122      0.1621
     23  C         29.9420  -10.2050    3.2020 C.2   122  HIS122      0.2264
     24  O         31.0070  -10.3560    3.7890 O.2   122  HIS122     -0.2867
     25  CB        30.3110  -11.1600    0.9400 C.3   122  HIS122      0.0745
     26  CG        29.9480  -11.1210   -0.5120 C.ar  122  HIS122      0.0817
     27  ND1       29.6070  -12.2510   -1.2220 N.ar  122  HIS122     -0.2268
     28  CD2       29.8810  -10.0900   -1.3900 C.ar  122  HIS122      0.1154
     29  CE1       29.3480  -11.9210   -2.4760 C.ar  122  HIS122      0.1986
     30  NE2       29.5000  -10.6140   -2.6020 N.ar  122  HIS122     -0.2212
     31  N         26.6300   -6.6210    1.9190 N.3   147  ARG147     -0.1245
     32  CA        25.6180   -7.5110    1.3750 C.3   147  ARG147      0.1563
     33  C         25.4070   -8.6390    2.3770 C.2   147  ARG147      0.2260
     34  O         26.3210   -9.4300    2.6190 O.2   147  ARG147     -0.2867
     35  CB        26.0920   -8.0710    0.0350 C.3   147  ARG147      0.0307
     36  CG        25.1960   -9.1290   -0.5270 C.3   147  ARG147      0.0489
     37  CD        25.9570  -10.0550   -1.4390 C.3   147  ARG147      0.2205
     38  NE        26.0570  -11.3680   -0.8340 N.pl3 147  ARG147     -0.0865
     39  CZ        25.9860  -12.5080   -1.5070 C.cat 147  ARG147      0.5346
     40  NH1       25.8220  -12.5010   -2.8260 N.pl3 147  ARG147      0.1354
     41  NH2       26.0880  -13.6530   -0.8520 N.pl3 147  ARG147      0.1354
     42  N         21.0880  -10.3250   -1.7990 N.3   191  ASP191     -0.1239
     43  CA        21.0820  -11.0650   -3.0470 C.3   191  ASP191      0.1674
     44  C         20.0860  -12.2260   -2.9520 C.2   191  ASP191      0.2266
     45  O         20.3560  -13.2140   -2.2740 O.2   191  ASP191     -0.2867
     46  CB        22.4820  -11.6130   -3.3020 C.3   191  ASP191      0.1410
     47  CG        22.6880  -12.0570   -4.7430 C.2   191  ASP191      0.3668
     48  OD1       21.6910  -12.3250   -5.4500 O.co2 191  ASP191     -0.2456
     49  OD2       23.8580  -12.1290   -5.1570 O.co2 191  ASP191     -0.2456
     50  N         19.2530  -14.1250   -5.4290 N.3   193  HIS193     -0.1241
     51  CA        19.9350  -15.2080   -6.1230 C.3   193  HIS193      0.1621
     52  C         18.9780  -16.1140   -6.9180 C.2   193  HIS193      0.2264
     53  O         19.0710  -17.3370   -6.8640 O.2   193  HIS193     -0.2867
     54  CB        20.7980  -16.0080   -5.1260 C.3   193  HIS193      0.0745
     55  CG        22.2170  -16.1830   -5.5690 C.ar  193  HIS193      0.0817
     56  ND1       22.6550  -17.3060   -6.2380 N.ar  193  HIS193     -0.2268
     57  CD2       23.2920  -15.3640   -5.4680 C.ar  193  HIS193      0.1154
     58  CE1       23.9370  -17.1730   -6.5320 C.ar  193  HIS193      0.1986
     59  NE2       24.3480  -16.0050   -6.0740 N.ar  193  HIS193     -0.2212
     60  N         18.7450   -7.8780   -5.1000 N.3   217  GLU217     -0.1245
     61  CA        19.4500   -8.3140   -6.3070 C.3   217  GLU217      0.1567
     62  C         18.9630   -9.6680   -6.8380 C.2   217  GLU217      0.2260
     63  O         18.6670  -10.5910   -6.0740 O.2   217  GLU217     -0.2867
     64  CB        20.9590   -8.3610   -6.0180 C.3   217  GLU217      0.0388
     65  CG        21.8170   -9.1040   -7.0350 C.3   217  GLU217      0.1160
     66  CD        23.2490   -9.3160   -6.5540 C.2   217  GLU217      0.3649
     67  OE1       24.0040  -10.0110   -7.2560 O.co2 217  GLU217     -0.2457
     68  OE2       23.6220   -8.7970   -5.4760 O.co2 217  GLU217     -0.2457
     69  N         24.2430   -9.9700  -13.3050 N.3   243  GLU243     -0.1245
     70  CA        25.5180  -10.6670  -13.2830 C.3   243  GLU243      0.1567
     71  C         25.5840  -11.8600  -14.2420 C.2   243  GLU243      0.2260
     72  O         26.6700  -12.1950  -14.7270 O.2   243  GLU243     -0.2867
     73  CB        25.8690  -11.1270  -11.8690 C.3   243  GLU243      0.0388
     74  CG        25.2360  -12.4360  -11.4650 C.3   243  GLU243      0.1160
     75  CD        25.4280  -12.6850   -9.9750 C.2   243  GLU243      0.3649
     76  OE1       25.2400  -11.7220   -9.2140 O.co2 243  GLU243     -0.2457
     77  OE2       25.7860  -13.8100   -9.5720 O.co2 243  GLU243     -0.2457
     78  N         24.1460   -4.9640  -13.2670 N.3   264  ARG264     -0.1245
     79  CA        25.2250   -5.7020  -12.6080 C.3   264  ARG264      0.1563
     80  C         26.2490   -6.3390  -13.5450 C.2   264  ARG264      0.2260
     81  O         27.2970   -6.8010  -13.1000 O.2   264  ARG264     -0.2867
     82  CB        24.6350   -6.8130  -11.7290 C.3   264  ARG264      0.0307
     83  CG        23.6970   -6.3310  -10.6320 C.3   264  ARG264      0.0489
     84  CD        24.4440   -6.1090   -9.3320 C.3   264  ARG264      0.2205
     85  NE        24.9650   -7.3620   -8.7860 N.pl3 264  ARG264     -0.0865
     86  CZ        26.1750   -7.5040   -8.2580 C.cat 264  ARG264      0.5346
     87  NH1       26.9940   -6.4690   -8.2070 N.pl3 264  ARG264      0.1354
     88  NH2       26.5690   -8.6800   -7.7730 N.pl3 264  ARG264      0.1354
     89  N         29.2460   -6.6750  -10.9260 N.3   293  HIS293     -0.1241
     90  CA        29.5210   -7.9670  -10.2900 C.3   293  HIS293      0.1621
     91  C         31.0240   -8.0240  -10.0420 C.2   293  HIS293      0.2264
     92  O         31.8160   -7.7830  -10.9600 O.2   293  HIS293     -0.2867
     93  CB        29.0980   -9.0800  -11.2590 C.3   293  HIS293      0.0745
     94  CG        29.1520  -10.4630  -10.6880 C.ar  293  HIS293      0.0817
     95  ND1       29.4530  -11.5650  -11.4600 N.ar  293  HIS293     -0.2268
     96  CD2       28.9170  -10.9310   -9.4380 C.ar  293  HIS293      0.1154
     97  CE1       29.4180  -12.6500  -10.7060 C.ar  293  HIS293      0.1986
     98  NE2       29.0950  -12.2920   -9.4750 N.ar  293  HIS293     -0.2212
     99  N         33.0260  -10.7060   -7.8920 N.3   295  PRO295     -0.2116
    100  CA        33.3530  -11.8410   -7.0280 C.3   295  PRO295      0.1372
    101  C         34.8050  -12.2680   -7.2130 C.2   295  PRO295      0.2244
    102  O         35.5400  -11.6930   -8.0210 O.2   295  PRO295     -0.2868
    103  CB        32.4660  -12.9400   -7.5950 C.3   295  PRO295      0.0268
    104  CG        32.5720  -12.6880   -9.0910 C.3   295  PRO295      0.0207
    105  CD        32.5750  -11.1580   -9.2240 C.3   295  PRO295      0.0892
    106  N         35.6650  -14.8660   -8.7080 N.3   297  ASP297     -0.1239
    107  CA        35.8060  -15.5500  -10.0050 C.3   297  ASP297      0.1674
    108  C         36.0180  -14.6150  -11.2050 C.2   297  ASP297      0.2266
    109  O         36.1740  -15.0740  -12.3320 O.2   297  ASP297     -0.2867
    110  CB        34.6710  -16.5630  -10.2540 C.3   297  ASP297      0.1410
    111  CG        33.2790  -15.9540  -10.0990 C.2   297  ASP297      0.3668
    112  OD1       32.8900  -15.6300   -8.9510 O.co2 297  ASP297     -0.2456
    113  OD2       32.5590  -15.8350  -11.1220 O.co2 297  ASP297     -0.2456
    114  N         31.0700   -4.1460   -6.1800 N.3   320  GLU320     -0.1245
    115  CA        31.1940   -5.3290   -5.3400 C.3   320  GLU320      0.1567
    116  C         32.6710   -5.6530   -5.1090 C.2   320  GLU320      0.2260
    117  O         33.4820   -5.5730   -6.0340 O.2   320  GLU320     -0.2867
    118  CB        30.5110   -6.5200   -6.0000 C.3   320  GLU320      0.0388
    119  CG        30.5460   -7.7960   -5.1680 C.3   320  GLU320      0.1160
    120  CD        29.8500   -8.9540   -5.8630 C.2   320  GLU320      0.3649
    121  OE1       29.5210   -8.8240   -7.0670 O.co2 320  GLU320     -0.2457
    122  OE2       29.6240   -9.9970   -5.2120 O.co2 320  GLU320     -0.2457
    123  N         34.8630   -8.7890   -3.3860 N.3   322  MET322     -0.1245
    124  CA        35.2700   -9.9960   -2.6810 C.3   322  MET322      0.1570
    125  C         36.7820  -10.0760   -2.8330 C.2   322  MET322      0.2261
    126  O         37.2780  -10.2520   -3.9420 O.2   322  MET322     -0.2867
    127  CB        34.6320  -11.2490   -3.2940 C.3   322  MET322      0.0387
    128  CG        33.1190  -11.2400   -3.3860 C.3   322  MET322      0.0595
    129  SD        32.4620  -12.8400   -3.9290 S.3   322  MET322     -0.1393
    130  CE        32.8550  -13.8230   -2.4800 C.3   322  MET322      0.0692
    131  N         30.1890  -24.8000  -10.0290 N.3   370  LEU370     -0.1245
    132  CA        29.1530  -24.1570   -9.2230 C.3   370  LEU370      0.1561
    133  C         28.0870  -25.1630   -8.7790 C.2   370  LEU370      0.2260
    134  O         27.8020  -26.1240   -9.4960 O.2   370  LEU370     -0.2867
    135  CB        28.4940  -23.0420  -10.0230 C.3   370  LEU370      0.0270
    136  CG        29.3420  -21.7910  -10.2300 C.3   370  LEU370      0.0019
    137  CD1       28.6800  -20.8940  -11.2730 C.3   370  LEU370      0.0001
    138  CD2       29.5380  -21.0670   -8.9060 C.3   370  LEU370      0.0001
    139  N         19.8110  -21.9780   -8.7370 N.3   383  TRP383     -0.1241
    140  CA        20.7650  -21.7530   -7.6670 C.3   383  TRP383      0.1605
    141  C         21.1640  -20.2840   -7.6160 C.2   383  TRP383      0.2264
    142  O         21.2230  -19.6070   -8.6490 O.2   383  TRP383     -0.2867
    143  CB        22.0120  -22.6140   -7.8140 C.3   383  TRP383      0.0550
    144  CG        23.0110  -22.2720   -6.7540 C.ar  383  TRP383      0.0003
    145  CD1       22.9580  -22.6240   -5.4330 C.ar  383  TRP383      0.0946
    146  CD2       24.1920  -21.4760   -6.9110 C.ar  383  TRP383      0.0152
    147  NE1       24.0350  -22.1050   -4.7670 N.ar  383  TRP383     -0.2442
    148  CE2       24.8090  -21.3970   -5.6490 C.ar  383  TRP383      0.0810
    149  CE3       24.7870  -20.8270   -7.9960 C.ar  383  TRP383      0.0012
    150  CZ2       25.9960  -20.6950   -5.4400 C.ar  383  TRP383      0.0191
    151  CZ3       25.9610  -20.1350   -7.7910 C.ar  383  TRP383      0.0001
    152  CH2       26.5550  -20.0700   -6.5220 C.ar  383  TRP383      0.0015
@<TRIPOS>BOND
     1    72    71    2
     2     1     2    1
     3    71    70    1
     4     4     3    2
     5     3     2    1
     6    80    81    2
     7    80    79    1
     8     2     5    1
     9    69    70    1
    10    70    73    1
    11    78    79    1
    12    79    82    1
    13   109   108    2
    14     5     6    1
    15    73    74    1
    16    82    83    1
    17    74    75    1
    18    95    97   ar
    19    95    94   ar
    20   137   136    1
    21    93    94    1
    22    93    90    1
    23   108   107    1
    24   113   111   ar
    25    92    91    2
    26    89    90    1
    27     6     7    2
    28     6     8   am
    29    97    98   ar
    30    94    96   ar
    31    83    84    1
    32    90    91    1
    33   110   111    1
    34   110   107    1
    35   136   135    1
    36   136   138    1
    37   111   112   ar
    38   131   132    1
    39   135   132    1
    40   107   106    1
    41    75    77   ar
    42    75    76   ar
    43   134   133    2
    44    98    96   ar
    45    84    85    1
    46   105   104    1
    47   105    99    1
    48   132   133    1
    49   104   103    1
    50    85    86    2
    51   139   140    1
    52   142   141    2
    53    86    87    1
    54    86    88    1
    55   102   101    2
    56   149   151   ar
    57   149   146   ar
    58    99   100    1
    59   143   140    1
    60   143   144    1
    61   151   152   ar
    62   140   141    1
    63   103   100    1
    64    67    66   ar
    65   101   100    1
    66   121   120   ar
    67    65    66    1
    68    65    64    1
    69    52    53    2
    70    52    51    1
    71   146   144   ar
    72   146   148   ar
    73    62    61    1
    74    62    63    2
    75   144   145   ar
    76    66    68   ar
    77    58    56   ar
    78    58    59   ar
    79   152   150   ar
    80    61    64    1
    81    61    60    1
    82    56    55   ar
    83   114   115    1
    84    51    50    1
    85    51    54    1
    86    59    57   ar
    87   117   116    2
    88   118   115    1
    89   118   119    1
    90   120   122   ar
    91   120   119    1
    92   148   150   ar
    93   148   147   ar
    94    55    57   ar
    95    55    54    1
    96    48    47   ar
    97   145   147   ar
    98   115   116    1
    99    49    47   ar
   100    20    19    1
   101    47    46    1
   102    18    19   ar
   103    18    16   ar
   104    19    17   ar
   105   126   125    2
   106   129   128    1
   107   129   130    1
   108   128   127    1
   109   123   124    1
   110    46    43    1
   111   127   124    1
   112    16    14   ar
   113    43    44    1
   114    43    42    1
   115    44    45    2
   116   125   124    1
   117    40    39    1
   118    17    15   ar
   119    30    29   ar
   120    30    28   ar
   121    29    27   ar
   122    14    15   ar
   123    14    13    1
   124     9    10    1
   125    39    41    1
   126    39    38    2
   127    37    38    1
   128    37    36    1
   129    28    26   ar
   130    12    11    2
   131    27    26   ar
   132    13    10    1
   133    10    11    1
   134    36    35    1
   135    26    25    1
   136    35    32    1
   137    25    22    1
   138    32    31    1
   139    32    33    1
   140    21    22    1
   141    22    23    1
   142    33    34    2
   143    23    24    2
