@<TRIPOS>MOLECULE
tmp/3rgyA03.pdb
 191 190 0 0 0
SMALL
GASTEIGER

@<TRIPOS>ATOM
      1  N         25.9700   18.7450    9.7850 N.3    86  LEU86      -0.1231
      2  CA        25.1400   19.9080   10.0770 C.3    86  LEU86       0.1693
      3  C         23.7670   19.8190    9.4320 C.2    86  LEU86       0.2592
      4  O         22.9250   20.6900    9.6270 O.2    86  LEU86      -0.2718
      5  CB        25.8450   21.1770    9.5980 C.3    86  LEU86       0.0284
      6  CG        27.2480   21.3850   10.1720 C.3    86  LEU86       0.0019
      7  CD1       27.9060   22.5820    9.5080 C.3    86  LEU86       0.0001
      8  CD2       27.1540   21.5770   11.6800 C.3    86  LEU86       0.0001
      9  N         23.5450   18.7690    8.6550 N.am   87  ARG87      -0.1966
     10  CA        22.2650   18.5800    7.9920 C.3    87  ARG87       0.1714
     11  C         21.2190   18.0670    8.9770 C.2    87  ARG87       0.2458
     12  O         21.4830   17.1570    9.7610 O.2    87  ARG87      -0.2730
     13  CB        22.4310   17.6050    6.8190 C.3    87  ARG87       0.0347
     14  CG        21.1480   16.9390    6.3320 C.3    87  ARG87       0.0492
     15  CD        21.2330   16.6150    4.8470 C.3    87  ARG87       0.2205
     16  NE        22.5530   16.1270    4.4490 N.pl3  87  ARG87      -0.0865
     17  CZ        22.9590   14.8640    4.5430 C.cat  87  ARG87       0.5346
     18  NH1       22.1470   13.9310    5.0220 N.pl3  87  ARG87       0.1354
     19  NH2       24.1850   14.5350    4.1560 N.pl3  87  ARG87       0.1354
     20  N         20.0200   18.6680    8.9660 N.am   88  PRO88      -0.2716
     21  CA        18.9470   18.2410    9.8720 C.3    88  PRO88       0.1536
     22  C         18.5100   16.8180    9.5210 C.2    88  PRO88       0.2599
     23  O         18.4900   16.4500    8.3510 O.2    88  PRO88      -0.2715
     24  CB        17.8410   19.2610    9.6030 C.3    88  PRO88       0.0310
     25  CG        18.6010   20.4840    9.1400 C.3    88  PRO88       0.0237
     26  CD        19.6300   19.8810    8.2250 C.3    88  PRO88       0.0939
     27  N         18.1670   16.0190   10.5270 N.am   89  THR89      -0.1937
     28  CA        17.7320   14.6490   10.2700 C.3    89  THR89       0.2028
     29  C         16.3170   14.6490    9.6930 C.2    89  THR89       0.2642
     30  O         15.5310   15.5620    9.9540 O.2    89  THR89      -0.2714
     31  CB        17.7550   13.7990   11.5530 C.3    89  THR89       0.1808
     32  OG1       16.8310   14.3400   12.5050 O.3    89  THR89      -0.2208
     33  CG2       19.1500   13.7900   12.1520 C.3    89  THR89       0.0379
     34  N         15.9980   13.6250    8.9080 N.am   90  GLU90      -0.1963
     35  CA        14.6830   13.5200    8.2780 C.3    90  GLU90       0.1733
     36  C         13.7740   12.4640    8.8990 C.2    90  GLU90       0.2616
     37  O         12.5790   12.4200    8.6060 O.2    90  GLU90      -0.2715
     38  CB        14.8390   13.2200    6.7840 C.3    90  GLU90       0.0429
     39  CG        15.3370   14.3880    5.9460 C.3    90  GLU90       0.1163
     40  CD        15.4600   14.0320    4.4710 C.2    90  GLU90       0.3649
     41  OE1       16.3750   13.2560    4.1180 O.co2  90  GLU90      -0.2457
     42  OE2       14.6360   14.5210    3.6680 O.co2  90  GLU90      -0.2457
     43  N         14.3320   11.6180    9.7570 N.am   91  GLY91      -0.1955
     44  CA        13.5350   10.5720   10.3720 C.3    91  GLY91       0.1869
     45  C         13.3080    9.4740    9.3530 C.2    91  GLY91       0.2309
     46  O         13.5550    9.6780    8.1670 O.2    91  GLY91      -0.2863
     47  N          5.0500    1.8430   17.4650 N.3   128  ILE128     -0.1245
     48  CA         4.1030    2.3620   16.4830 C.3   128  ILE128      0.1561
     49  C          3.0020    1.3550   16.1340 C.2   128  ILE128      0.2260
     50  O          1.8190    1.6460   16.3000 O.2   128  ILE128     -0.2867
     51  CB         4.8360    2.8160   15.1900 C.3   128  ILE128      0.0252
     52  CG1        5.7130    4.0360   15.4950 C.3   128  ILE128      0.0019
     53  CG2        3.8270    3.1420   14.0910 C.3   128  ILE128      0.0019
     54  CD1        4.9500    5.2430   16.0520 C.3   128  ILE128      0.0001
     55  N          2.8160    4.5050    5.0630 N.3   247  HIS247     -0.1226
     56  CA         3.6130    4.1460    6.2300 C.3   247  HIS247      0.1752
     57  C          2.7690    4.2860    7.4870 C.2   247  HIS247      0.2596
     58  O          1.6970    4.8960    7.4610 O.2   247  HIS247     -0.2718
     59  CB         4.8490    5.0370    6.3460 C.3   247  HIS247      0.0759
     60  CG         4.5480    6.4970    6.2480 C.ar  247  HIS247      0.0818
     61  ND1        4.6390    7.1960    5.0630 N.ar  247  HIS247     -0.2268
     62  CD2        4.1410    7.3890    7.1820 C.ar  247  HIS247      0.1154
     63  CE1        4.3050    8.4570    5.2720 C.ar  247  HIS247      0.1986
     64  NE2        3.9990    8.6000    6.5480 N.ar  247  HIS247     -0.2212
     65  N          3.2530    3.7180    8.5860 N.am  248  LEU248     -0.1966
     66  CA         2.5250    3.7800    9.8440 C.3   248  LEU248      0.1728
     67  C          2.8730    5.0550   10.5960 C.2   248  LEU248      0.2616
     68  O          2.0800    5.5490   11.3980 O.2   248  LEU248     -0.2715
     69  CB         2.8470    2.5530   10.7040 C.3   248  LEU248      0.0311
     70  CG         2.6460    1.2090    9.9940 C.3   248  LEU248      0.0022
     71  CD1        2.8310    0.0750   10.9930 C.3   248  LEU248      0.0001
     72  CD2        1.2570    1.1560    9.3630 C.3   248  LEU248      0.0001
     73  N          4.0580    5.5900   10.3270 N.am  249  ALA249     -0.1963
     74  CA         4.4940    6.8140   10.9840 C.3   249  ALA249      0.1728
     75  C          5.9030    7.1670   10.5630 C.2   249  ALA249      0.2616
     76  O          6.5970    6.3640    9.9360 O.2   249  ALA249     -0.2715
     77  CB         4.4490    6.6390   12.5030 C.3   249  ALA249      0.0334
     78  N          6.3080    8.3840   10.9060 N.am  250  VAL250     -0.1963
     79  CA         7.6510    8.8590   10.6360 C.3   250  VAL250      0.1727
     80  C          8.3290    8.7460   12.0020 C.2   250  VAL250      0.2616
     81  O          7.8340    9.2810   12.9960 O.2   250  VAL250     -0.2715
     82  CB         7.6580   10.3270   10.1630 C.3   250  VAL250      0.0290
     83  CG1        9.0930   10.8060    9.9800 C.3   250  VAL250      0.0023
     84  CG2        6.8900   10.4550    8.8500 C.3   250  VAL250      0.0023
     85  N          9.4490    8.0330   12.0490 N.am  251  ALA251     -0.1964
     86  CA        10.1690    7.8150   13.3000 C.3   251  ALA251      0.1713
     87  C         11.4160    8.6770   13.4580 C.2   251  ALA251      0.2458
     88  O         12.1100    8.9660   12.4880 O.2   251  ALA251     -0.2730
     89  CB        10.5610    6.3540   13.4070 C.3   251  ALA251      0.0333
     90  N         11.7130    9.1020   14.6960 N.am  252  PRO252     -0.2727
     91  CA        12.9050    9.9240   14.9250 C.3   252  PRO252      0.1402
     92  C         14.1320    9.0250   14.7540 C.2   252  PRO252      0.2269
     93  O         14.1390    7.8840   15.2220 O.2   252  PRO252     -0.2865
     94  CB        12.7190   10.4080   16.3580 C.3   252  PRO252      0.0296
     95  CG        11.9450    9.2790   16.9990 C.3   252  PRO252      0.0237
     96  CD        10.9260    8.9460   15.9340 C.3   252  PRO252      0.0939
     97  N         25.1070   13.3370   13.1660 N.3   308  ALA308     -0.1231
     98  CA        24.9320   14.7830   13.0710 C.3   308  ALA308      0.1694
     99  C         24.6020   15.5030   14.3700 C.2   308  ALA308      0.2592
    100  O         23.9460   14.9550   15.2630 O.2   308  ALA308     -0.2718
    101  CB        23.8600   15.0940   12.0320 C.3   308  ALA308      0.0304
    102  N         25.0620   16.7480   14.4580 N.am  309  LYS309     -0.1966
    103  CA        24.8080   17.5790   15.6240 C.3   309  LYS309      0.1728
    104  C         23.3170   17.8400   15.7160 C.2   309  LYS309      0.2616
    105  O         22.6270   17.9060   14.6990 O.2   309  LYS309     -0.2715
    106  CB        25.5480   18.9160   15.5080 C.3   309  LYS309      0.0311
    107  CG        27.0560   18.7990   15.6140 C.3   309  LYS309      0.0038
    108  CD        27.7220   20.1550   15.4610 C.3   309  LYS309      0.0206
    109  CE        29.2290   20.0520   15.5990 C.3   309  LYS309      0.1093
    110  NZ        29.8690   21.3990   15.5240 N.3   309  LYS309     -0.1314
    111  N         22.8260   17.9900   16.9400 N.am  310  LEU310     -0.1963
    112  CA        21.4130   18.2450   17.1700 C.3   310  LEU310      0.1728
    113  C         21.1770   19.7400   17.3710 C.2   310  LEU310      0.2617
    114  O         21.7870   20.3620   18.2440 O.2   310  LEU310     -0.2715
    115  CB        20.9430   17.4840   18.4100 C.3   310  LEU310      0.0311
    116  CG        21.2870   15.9920   18.4610 C.3   310  LEU310      0.0022
    117  CD1       20.8730   15.4200   19.8040 C.3   310  LEU310      0.0001
    118  CD2       20.5810   15.2640   17.3240 C.3   310  LEU310      0.0001
    119  N         20.2940   20.3150   16.5650 N.am  311  GLY311     -0.1940
    120  CA        20.0050   21.7300   16.7030 C.3   311  GLY311      0.2014
    121  C         19.0790   21.9870   17.8770 C.2   311  GLY311      0.2639
    122  O         18.0910   21.2730   18.0610 O.2   311  GLY311     -0.2714
    123  N         19.3790   23.0220   18.6620 N.am  312  GLY312     -0.1954
    124  CA        18.5640   23.3900   19.8140 C.3   312  GLY312      0.1869
    125  C         18.8090   22.6530   21.1240 C.2   312  GLY312      0.2309
    126  O         18.0290   22.7790   22.0680 O.2   312  GLY312     -0.2863
    127  N         18.2890   19.6860   22.1630 N.3   314  PRO314     -0.2116
    128  CA        17.0340   19.0800   22.6100 C.3   314  PRO314      0.1372
    129  C         17.0720   18.1060   23.7750 C.2   314  PRO314      0.2244
    130  O         18.0240   17.3400   23.9490 O.2   314  PRO314     -0.2868
    131  CB        16.5120   18.4150   21.3420 C.3   314  PRO314      0.0268
    132  CG        17.7800   17.9350   20.6990 C.3   314  PRO314      0.0207
    133  CD        18.6930   19.1430   20.8510 C.3   314  PRO314      0.0892
    134  N         12.7620   14.4940   25.1300 N.3   317  GLU317     -0.1231
    135  CA        11.3720   14.6920   24.7150 C.3   317  GLU317      0.1699
    136  C         11.2740   15.5230   23.4470 C.2   317  GLU317      0.2592
    137  O         10.4450   15.2500   22.5780 O.2   317  GLU317     -0.2718
    138  CB        10.5580   15.3660   25.8240 C.3   317  GLU317      0.0402
    139  CG        10.2510   14.4590   27.0060 C.3   317  GLU317      0.1161
    140  CD         9.3110   15.1040   28.0080 C.2   317  GLU317      0.3649
    141  OE1        9.6280   16.2100   28.4970 O.co2 317  GLU317     -0.2457
    142  OE2        8.2550   14.5020   28.3090 O.co2 317  GLU317     -0.2457
    143  N         12.1190   16.5410   23.3450 N.am  318  GLU318     -0.1966
    144  CA        12.1230   17.3880   22.1690 C.3   318  GLU318      0.1733
    145  C         12.6920   16.6250   20.9800 C.2   318  GLU318      0.2616
    146  O         12.2440   16.8010   19.8520 O.2   318  GLU318     -0.2715
    147  CB        12.9600   18.6370   22.4170 C.3   318  GLU318      0.0429
    148  CG        12.3330   19.6080   23.3860 C.3   318  GLU318      0.1163
    149  CD        13.2620   20.7480   23.6930 C.2   318  GLU318      0.3649
    150  OE1       14.3980   20.4780   24.1380 O.co2 318  GLU318     -0.2457
    151  OE2       12.8630   21.9080   23.4850 O.co2 318  GLU318     -0.2457
    152  N         13.6850   15.7780   21.2320 N.am  319  TYR319     -0.1960
    153  CA        14.2760   15.0070   20.1510 C.3   319  TYR319      0.1771
    154  C         13.2620   14.0300   19.5600 C.2   319  TYR319      0.2619
    155  O         13.1120   13.9390   18.3430 O.2   319  TYR319     -0.2715
    156  CB        15.4970   14.2220   20.6300 C.3   319  TYR319      0.0574
    157  CG        16.1170   13.4270   19.5020 C.ar  319  TYR319     -0.0198
    158  CD1       16.8200   14.0680   18.4830 C.ar  319  TYR319     -0.0009
    159  CD2       15.9160   12.0530   19.4000 C.ar  319  TYR319     -0.0009
    160  CE1       17.3010   13.3630   17.3890 C.ar  319  TYR319      0.0417
    161  CE2       16.3880   11.3390   18.3100 C.ar  319  TYR319      0.0417
    162  CZ        17.0770   12.0000   17.3080 C.ar  319  TYR319      0.1957
    163  OH        17.5250   11.3020   16.2170 O.3   319  TYR319     -0.2866
    164  N         12.5670   13.3010   20.4250 N.am  320  LEU320     -0.1963
    165  CA        11.5790   12.3290   19.9700 C.3   320  LEU320      0.1728
    166  C         10.3080   12.9830   19.4140 C.2   320  LEU320      0.2617
    167  O          9.6570   12.4320   18.5290 O.2   320  LEU320     -0.2715
    168  CB        11.2070   11.3810   21.1160 C.3   320  LEU320      0.0311
    169  CG        12.3160   10.4810   21.6790 C.3   320  LEU320      0.0022
    170  CD1       11.7460    9.6330   22.8140 C.3   320  LEU320      0.0001
    171  CD2       12.8830    9.5800   20.5790 C.3   320  LEU320      0.0001
    172  N          9.9670   14.1600   19.9320 N.am  321  GLY321     -0.1940
    173  CA         8.7660   14.8400   19.4820 C.3   321  GLY321      0.2014
    174  C          7.6280   14.5190   20.4330 C.2   321  GLY321      0.2640
    175  O          7.4490   13.3660   20.8300 O.2   321  GLY321     -0.2714
    176  N          6.8500   15.5340   20.7920 N.am  322  THR322     -0.1936
    177  CA         5.7410   15.3650   21.7250 C.3   322  THR322      0.2028
    178  C          4.7360   14.2900   21.3290 C.2   322  THR322      0.2642
    179  O          4.2630   13.5440   22.1830 O.2   322  THR322     -0.2714
    180  CB         4.9820   16.6930   21.9330 C.3   322  THR322      0.1808
    181  OG1        5.9040   17.7030   22.3570 O.3   322  THR322     -0.2208
    182  CG2        3.9060   16.5310   23.0000 C.3   322  THR322      0.0379
    183  N          4.4020   14.2090   20.0470 N.am  323  GLU323     -0.1976
    184  CA         3.4480   13.2020   19.5950 C.3   323  GLU323      0.1602
    185  C          3.9500   11.7820   19.8630 C.2   323  GLU323      0.2287
    186  O          3.2490   10.9720   20.4660 O.2   323  GLU323     -0.2864
    187  CB         3.1490   13.3760   18.1020 C.3   323  GLU323      0.0415
    188  CG         4.3810   13.5890   17.2360 C.3   323  GLU323      0.1163
    189  CD         4.0720   13.5380   15.7510 C.2   323  GLU323      0.3649
    190  OE1        2.8740   13.5150   15.3880 O.co2 323  GLU323     -0.2457
    191  OE2        5.0300   13.5290   14.9450 O.co2 323  GLU323     -0.2457
@<TRIPOS>BOND
     1    42    40   ar
     2    41    40   ar
     3    19    17    1
     4    16    17    2
     5    16    15    1
     6    40    39    1
     7    17    18    1
     8    15    14    1
     9    61    63   ar
    10    61    60   ar
    11    55    56    1
    12    63    64   ar
    13    39    38    1
    14    56    59    1
    15    56    57    1
    16    60    59    1
    17    60    62   ar
    18    14    13    1
    19    64    62   ar
    20    38    35    1
    21    13    10    1
    22    58    57    2
    23    57    65   am
    24    10     9    1
    25    10    11    1
    26    46    45    2
    27    26    20    1
    28    26    25    1
    29    35    36    1
    30    35    34    1
    31    23    22    2
    32    65    66    1
    33    37    36    2
    34     9     3   am
    35    84    82    1
    36    36    43   am
    37    34    29   am
    38    20    11   am
    39    20    21    1
    40    11    12    2
    41    25    24    1
    42    45    44    1
    43    72    70    1
    44     3     4    2
    45     3     2    1
    46     7     6    1
    47    22    21    1
    48    22    27   am
    49     5     2    1
    50     5     6    1
    51    24    21    1
    52    29    30    2
    53    29    28    1
    54    43    44    1
    55     1     2    1
    56    66    67    1
    57    66    69    1
    58    76    75    2
    59    83    82    1
    60    70    69    1
    61    70    71    1
    62    82    79    1
    63     6     8    1
    64    28    27    1
    65    28    31    1
    66    73    67   am
    67    73    74    1
    68    75    78   am
    69    75    74    1
    70    67    68    2
    71    79    78    1
    72    79    80    1
    73    74    77    1
    74    31    33    1
    75    31    32    1
    76    80    85   am
    77    80    81    2
    78   101    98    1
    79    85    86    1
    80    88    87    2
    81    98    97    1
    82    98    99    1
    83    86    89    1
    84    86    87    1
    85    87    90   am
    86    53    51    1
    87    99   102   am
    88    99   100    2
    89   102   103    1
    90    90    91    1
    91    90    96    1
    92   105   104    2
    93    92    91    1
    94    92    93    2
    95    91    94    1
    96   191   189   ar
    97    51    52    1
    98    51    48    1
    99   190   189   ar
   100   108   109    1
   101   108   107    1
   102    52    54    1
   103   106   107    1
   104   106   103    1
   105   110   109    1
   106   103   104    1
   107   104   111   am
   108   189   188    1
   109    96    95    1
   110    49    50    2
   111    49    48    1
   112   163   162    1
   113    94    95    1
   114    48    47    1
   115   119   120    1
   116   119   113   am
   117   120   121    1
   118   111   112    1
   119   112   113    1
   120   112   115    1
   121   188   187    1
   122   162   160   ar
   123   162   161   ar
   124   118   116    1
   125   113   114    2
   126   160   158   ar
   127   121   122    2
   128   121   123   am
   129   187   184    1
   130   161   159   ar
   131   155   154    2
   132   115   116    1
   133   116   117    1
   134   158   157   ar
   135   167   166    2
   136   123   124    1
   137   159   157   ar
   138   166   172   am
   139   166   165    1
   140   173   172    1
   141   173   174    1
   142   157   156    1
   143   154   153    1
   144   154   164   am
   145   184   185    1
   146   184   183    1
   147   124   125    1
   148   146   145    2
   149   185   186    2
   150   165   164    1
   151   165   168    1
   152   183   178   am
   153   153   156    1
   154   153   152    1
   155   174   176   am
   156   174   175    2
   157   171   169    1
   158   132   133    1
   159   132   131    1
   160   176   177    1
   161   133   127    1
   162   145   152   am
   163   145   144    1
   164   168   169    1
   165   125   126    2
   166   178   177    1
   167   178   179    2
   168   131   128    1
   169   169   170    1
   170   177   180    1
   171   180   181    1
   172   180   182    1
   173   127   128    1
   174   144   147    1
   175   144   143    1
   176   147   148    1
   177   137   136    2
   178   128   129    1
   179   143   136   am
   180   148   149    1
   181   136   135    1
   182   151   149   ar
   183   149   150   ar
   184   129   130    2
   185   135   134    1
   186   135   138    1
   187   138   139    1
   188   139   140    1
   189   140   142   ar
   190   140   141   ar
