@<TRIPOS>MOLECULE
tmp/3rgzA01.pdb
 95 87 0 0 0
SMALL
GASTEIGER

@<TRIPOS>ATOM
      1  N         -7.7000  -15.6470   52.8510 N.3   201  SER201     -0.1202
      2  CA        -6.7110  -15.9600   51.8130 C.3   201  SER201      0.2020
      3  C         -5.4190  -15.1400   51.8900 C.2   201  SER201      0.2619
      4  O         -5.3370  -14.1320   52.5980 O.2   201  SER201     -0.2717
      5  CB        -7.3270  -15.8250   50.4180 C.3   201  SER201      0.2103
      6  OG        -7.6930  -14.4770   50.1530 O.3   201  SER201     -0.2182
      7  N         -4.4120  -15.5920   51.1510 N.am  202  SER202     -0.1951
      8  CA        -3.1080  -14.9240   51.0970 C.3   202  SER202      0.1924
      9  C         -2.6120  -14.5710   52.4860 C.2   202  SER202      0.2314
     10  O         -2.3620  -13.4110   52.8160 O.2   202  SER202     -0.2863
     11  CB        -3.1860  -13.6820   50.2090 C.3   202  SER202      0.2116
     12  OG        -3.7520  -14.0500   48.9600 O.3   202  SER202     -0.2180
     13  N        -19.7620  -18.1820   51.4810 N.3   220  HIS220     -0.1241
     14  CA       -18.5460  -17.8280   50.7720 C.3   220  HIS220      0.1621
     15  C        -17.3290  -18.1540   51.6490 C.2   220  HIS220      0.2264
     16  O        -17.1550  -17.5720   52.7130 O.2   220  HIS220     -0.2867
     17  CB       -18.5670  -16.3280   50.4410 C.3   220  HIS220      0.0745
     18  CG       -17.3260  -15.8420   49.7540 C.ar  220  HIS220      0.0817
     19  ND1      -17.3200  -15.4160   48.4440 N.ar  220  HIS220     -0.2268
     20  CD2      -16.0460  -15.7380   50.1910 C.ar  220  HIS220      0.1154
     21  CE1      -16.0950  -15.0460   48.1080 C.ar  220  HIS220      0.1986
     22  NE2      -15.3020  -15.2340   49.1500 N.ar  220  HIS220     -0.2212
     23  N        -13.1470  -18.6460   51.4550 N.3   222  ASP222     -0.1239
     24  CA       -11.9320  -18.4860   50.6740 C.3   222  ASP222      0.1674
     25  C        -10.7180  -18.6640   51.5850 C.2   222  ASP222      0.2266
     26  O        -10.4450  -17.8130   52.4330 O.2   222  ASP222     -0.2867
     27  CB       -11.8990  -17.0880   50.0630 C.3   222  ASP222      0.1410
     28  CG       -10.7370  -16.9040   49.0940 C.2   222  ASP222      0.3668
     29  OD1       -9.8660  -17.8040   49.0210 O.co2 222  ASP222     -0.2456
     30  OD2      -10.6910  -15.8550   48.4160 O.co2 222  ASP222     -0.2456
     31  N         -7.7310  -19.6180   50.0560 N.3   224  SER224     -0.1202
     32  CA        -6.6910  -19.7070   49.0270 C.3   224  SER224      0.2020
     33  C         -5.3930  -18.9890   49.3980 C.2   224  SER224      0.2619
     34  O         -5.3630  -18.1640   50.3030 O.2   224  SER224     -0.2717
     35  CB        -7.2150  -19.1830   47.6850 C.3   224  SER224      0.2103
     36  OG        -7.5760  -17.8210   47.7600 O.3   224  SER224     -0.2182
     37  N         -4.3160  -19.3120   48.6930 N.am  225  GLY225     -0.1956
     38  CA        -3.0380  -18.6550   48.9180 C.3   225  GLY225      0.1869
     39  C         -2.4750  -18.8200   50.3180 C.2   225  GLY225      0.2309
     40  O         -2.0040  -17.8620   50.9110 O.2   225  GLY225     -0.2863
     41  N        -19.6720  -20.6190   47.3700 N.3   244  LEU244     -0.1245
     42  CA       -18.3470  -20.4430   46.8080 C.3   244  LEU244      0.1561
     43  C        -17.3080  -21.0700   47.7420 C.2   244  LEU244      0.2260
     44  O        -17.3120  -20.8250   48.9480 O.2   244  LEU244     -0.2867
     45  CB       -18.0690  -18.9550   46.5420 C.3   244  LEU244      0.0270
     46  CG       -16.6980  -18.6310   45.9140 C.3   244  LEU244      0.0019
     47  CD1      -16.7750  -17.3530   45.0960 C.3   244  LEU244      0.0001
     48  CD2      -15.5630  -18.5630   46.9420 C.3   244  LEU244      0.0001
     49  N        -13.1400  -21.5690   47.6630 N.3   246  ASN246     -0.1240
     50  CA       -11.8500  -21.3580   47.0330 C.3   246  ASN246      0.1653
     51  C        -10.7340  -21.8770   47.9180 C.2   246  ASN246      0.2266
     52  O        -10.4260  -21.2730   48.9430 O.2   246  ASN246     -0.2867
     53  CB       -11.6280  -19.8650   46.7640 C.3   246  ASN246      0.1155
     54  CG       -10.6120  -19.6140   45.6670 C.2   246  ASN246      0.2627
     55  OD1       -9.7310  -20.4440   45.4100 O.2   246  ASN246     -0.2716
     56  ND2      -10.7380  -18.4550   45.0090 N.am  246  ASN246     -0.0877
     57  N         -7.7370  -22.7960   46.3190 N.3   248  SER248     -0.1202
     58  CA        -6.6240  -22.7790   45.3710 C.3   248  SER248      0.2020
     59  C         -5.3130  -22.2600   46.0060 C.2   248  SER248      0.2619
     60  O         -5.3430  -21.6270   47.0530 O.2   248  SER248     -0.2717
     61  CB        -6.9920  -21.9490   44.1510 C.3   248  SER248      0.2103
     62  OG        -7.0500  -20.5780   44.5000 O.3   248  SER248     -0.2182
     63  N         -4.1810  -22.5250   45.3530 N.am  249  SER249     -0.1951
     64  CA        -2.8460  -22.1480   45.8550 C.3   249  SER249      0.1924
     65  C         -2.5890  -22.5410   47.3150 C.2   249  SER249      0.2314
     66  O         -2.3180  -21.6980   48.1680 O.2   249  SER249     -0.2863
     67  CB        -2.5540  -20.6520   45.6490 C.3   249  SER249      0.2116
     68  OG        -2.7050  -20.3000   44.2920 O.3   249  SER249     -0.2180
     69  N        -19.6320  -22.0350   42.9180 N.3   266  TYR266     -0.1241
     70  CA       -18.2620  -21.8350   42.4890 C.3   266  TYR266      0.1605
     71  C        -17.2790  -22.6950   43.2890 C.2   266  TYR266      0.2264
     72  O        -17.3220  -22.7510   44.5250 O.2   266  TYR266     -0.2867
     73  CB       -17.8450  -20.3620   42.5580 C.3   266  TYR266      0.0534
     74  CG       -16.4590  -20.1900   41.9640 C.ar  266  TYR266     -0.0201
     75  CD1      -16.2840  -20.0310   40.5910 C.ar  266  TYR266     -0.0009
     76  CD2      -15.3230  -20.2540   42.7680 C.ar  266  TYR266     -0.0009
     77  CE1      -15.0080  -19.9040   40.0390 C.ar  266  TYR266      0.0417
     78  CE2      -14.0500  -20.1260   42.2290 C.ar  266  TYR266      0.0417
     79  CZ       -13.8950  -19.9540   40.8660 C.ar  266  TYR266      0.1957
     80  OH       -12.6230  -19.8300   40.3410 O.3   266  TYR266     -0.2866
     81  N        -13.0420  -23.7830   43.3430 N.3   268  SER268     -0.1217
     82  CA       -11.6830  -23.8270   42.8340 C.3   268  SER268      0.1889
     83  C        -10.7620  -24.6850   43.7010 C.2   268  SER268      0.2288
     84  O        -10.5960  -24.4280   44.8970 O.2   268  SER268     -0.2866
     85  CB       -11.0990  -22.4250   42.6720 C.3   268  SER268      0.2089
     86  OG        -9.7630  -22.5210   42.2170 O.3   268  SER268     -0.2183
     87  N         -4.0410  -25.0590   41.5820 N.3   271  GLU271     -0.1245
     88  CA        -2.6770  -24.9240   42.1340 C.3   271  GLU271      0.1567
     89  C         -2.5200  -25.6030   43.4910 C.2   271  GLU271      0.2260
     90  O         -2.1360  -24.9690   44.4780 O.2   271  GLU271     -0.2867
     91  CB        -2.2660  -23.4440   42.2630 C.3   271  GLU271      0.0388
     92  CG        -2.9000  -22.5130   41.2340 C.3   271  GLU271      0.1160
     93  CD        -2.4820  -22.8470   39.8200 C.2   271  GLU271      0.3649
     94  OE1       -3.2450  -22.5290   38.8790 O.co2 271  GLU271     -0.2457
     95  OE2       -1.3890  -23.4320   39.6520 O.co2 271  GLU271     -0.2457
@<TRIPOS>BOND
     1    94    93   ar
     2    95    93   ar
     3    93    92    1
     4    77    75   ar
     5    77    79   ar
     6    80    79    1
     7    75    74   ar
     8    79    78   ar
     9    92    91    1
    10    87    88    1
    11    74    73    1
    12    74    76   ar
    13    88    91    1
    14    88    89    1
    15    86    85    1
    16    78    76   ar
    17    70    73    1
    18    70    69    1
    19    70    71    1
    20    85    82    1
    21    82    81    1
    22    82    83    1
    23    71    72    2
    24    89    90    2
    25    83    84    2
    26    61    62    1
    27    61    58    1
    28    68    67    1
    29    56    54   am
    30    47    46    1
    31    63    64    1
    32    63    59   am
    33    58    59    1
    34    58    57    1
    35    55    54    2
    36    67    64    1
    37    54    53    1
    38    64    65    1
    39    46    45    1
    40    46    48    1
    41    59    60    2
    42    45    42    1
    43    53    50    1
    44    42    41    1
    45    42    43    1
    46    50    49    1
    47    50    51    1
    48    65    66    2
    49    35    36    1
    50    35    32    1
    51    43    44    2
    52    51    52    2
    53    21    19   ar
    54    21    22   ar
    55    30    28   ar
    56    19    18   ar
    57    37    38    1
    58    37    33   am
    59    38    39    1
    60    12    11    1
    61    29    28   ar
    62    32    33    1
    63    32    31    1
    64    28    27    1
    65    22    20   ar
    66    33    34    2
    67    18    20   ar
    68    18    17    1
    69    27    24    1
    70     6     5    1
    71    11     8    1
    72    39    40    2
    73     5     2    1
    74    17    14    1
    75    24    23    1
    76    24    25    1
    77    14    13    1
    78    14    15    1
    79     8     7    1
    80     8     9    1
    81     7     3   am
    82    25    26    2
    83    15    16    2
    84     2     3    1
    85     2     1    1
    86     3     4    2
    87     9    10    2
