@<TRIPOS>MOLECULE
tmp/3rgzA00.pdb
 87 80 0 0 0
SMALL
GASTEIGER

@<TRIPOS>ATOM
      1  N        -11.9370    6.4910   51.7290 N.3    78  SER78      -0.1217
      2  CA       -11.0450    5.5070   51.1280 C.3    78  SER78       0.1889
      3  C        -10.0760    6.2230   50.2120 C.2    78  SER78       0.2288
      4  O        -10.4720    7.0790   49.4340 O.2    78  SER78      -0.2866
      5  CB       -11.8320    4.4540   50.3410 C.3    78  SER78       0.2089
      6  OG       -10.9570    3.5800   49.6370 O.3    78  SER78      -0.2183
      7  N        -15.5230    3.8190   56.3950 N.3    99  ASP99      -0.1239
      8  CA       -14.5900    3.2750   55.4180 C.3    99  ASP99       0.1674
      9  C        -13.2920    4.0720   55.4320 C.2    99  ASP99       0.2266
     10  O        -13.2420    5.2230   54.9770 O.2    99  ASP99      -0.2867
     11  CB       -15.1980    3.2530   54.0100 C.3    99  ASP99       0.1410
     12  CG       -14.2800    2.5820   52.9820 C.2    99  ASP99       0.3668
     13  OD1      -13.1570    2.1930   53.3480 O.co2  99  ASP99      -0.2456
     14  OD2      -14.6790    2.4510   51.8060 O.co2  99  ASP99      -0.2456
     15  N        -10.3750    2.5090   54.2790 N.3   101  SER101     -0.1202
     16  CA        -9.5040    1.6810   53.4470 C.3   101  SER101      0.2020
     17  C         -8.5330    2.5020   52.5920 C.2   101  SER101      0.2618
     18  O         -8.7950    3.6650   52.2720 O.2   101  SER101     -0.2717
     19  CB       -10.3260    0.7140   52.5690 C.3   101  SER101      0.2103
     20  OG       -11.0650    1.3850   51.5590 O.3   101  SER101     -0.2182
     21  N         -7.3970    1.8910   52.2630 N.am  102  ARG102     -0.1979
     22  CA        -6.4340    2.4640   51.3230 C.3   102  ARG102      0.1597
     23  C         -5.8450    3.7880   51.8170 C.2   102  ARG102      0.2287
     24  O         -5.7980    4.7770   51.0810 O.2   102  ARG102     -0.2864
     25  CB        -7.0750    2.6480   49.9490 C.3   102  ARG102      0.0334
     26  CG        -7.6650    1.3610   49.3530 C.3   102  ARG102      0.0492
     27  CD        -8.2050    1.6080   47.9470 C.3   102  ARG102      0.2205
     28  NE        -7.1560    2.0500   47.0320 N.pl3 102  ARG102     -0.0865
     29  CZ        -7.3710    2.7710   45.9330 C.cat 102  ARG102      0.5346
     30  NH1       -8.6060    3.1590   45.6090 N.pl3 102  ARG102      0.1354
     31  NH2       -6.3460    3.1210   45.1680 N.pl3 102  ARG102      0.1354
     32  N        -20.3680   -1.4130   60.2470 N.3   123  PHE123     -0.1241
     33  CA       -19.5310   -1.6880   59.0750 C.3   123  PHE123      0.1605
     34  C        -18.1920   -0.9750   59.1920 C.2   123  PHE123      0.2264
     35  O        -18.1340    0.2630   59.2430 O.2   123  PHE123     -0.2867
     36  CB       -20.2360   -1.2500   57.7840 C.3   123  PHE123      0.0534
     37  CG       -19.3680   -1.3430   56.5510 C.ar  123  PHE123     -0.0203
     38  CD1      -19.5430   -2.3720   55.6420 C.ar  123  PHE123     -0.0042
     39  CD2      -18.3800   -0.3960   56.3010 C.ar  123  PHE123     -0.0042
     40  CE1      -18.7490   -2.4640   54.5110 C.ar  123  PHE123     -0.0003
     41  CE2      -17.5850   -0.4810   55.1780 C.ar  123  PHE123     -0.0003
     42  CZ       -17.7680   -1.5210   54.2780 C.ar  123  PHE123     -0.0000
     43  N        -14.3470   -0.8420   57.4310 N.3   125  ASN125     -0.1240
     44  CA       -13.3360   -1.1910   56.4440 C.3   125  ASN125      0.1653
     45  C        -12.0190   -0.4430   56.7190 C.2   125  ASN125      0.2266
     46  O        -11.9480    0.7870   56.6050 O.2   125  ASN125     -0.2867
     47  CB       -13.8700   -0.8870   55.0390 C.3   125  ASN125      0.1155
     48  CG       -13.0760   -1.5750   53.9330 C.2   125  ASN125      0.2627
     49  OD1      -11.9010   -1.9160   54.1000 O.2   125  ASN125     -0.2716
     50  ND2      -13.7320   -1.7730   52.7900 N.am  125  ASN125     -0.0877
     51  N         -9.0430   -1.9640   55.4040 N.3   127  SER127     -0.1202
     52  CA        -8.1330   -2.6610   54.5160 C.3   127  SER127      0.2020
     53  C         -7.1530   -1.6910   53.8360 C.2   127  SER127      0.2619
     54  O         -7.4540   -0.5120   53.6560 O.2   127  SER127     -0.2717
     55  CB        -8.9220   -3.4460   53.4610 C.3   127  SER127      0.2103
     56  OG        -9.4810   -2.5760   52.4970 O.3   127  SER127     -0.2182
     57  N         -5.9930   -2.2190   53.4550 N.am  128  SER128     -0.1951
     58  CA        -4.9330   -1.4700   52.7770 C.3   128  SER128      0.1924
     59  C         -4.4230   -0.3030   53.6200 C.2   128  SER128      0.2314
     60  O         -4.4850    0.8540   53.2180 O.2   128  SER128     -0.2863
     61  CB        -5.3660   -1.0010   51.3840 C.3   128  SER128      0.2116
     62  OG        -5.8530   -2.0840   50.6130 O.3   128  SER128     -0.2180
     63  N        -19.8470   -6.2760   59.5550 N.3   148  VAL148     -0.1245
     64  CA       -18.8450   -6.3800   58.4980 C.3   148  VAL148      0.1561
     65  C        -17.4970   -5.8260   58.9700 C.2   148  VAL148      0.2260
     66  O        -17.3930   -4.6930   59.4690 O.2   148  VAL148     -0.2867
     67  CB       -19.2640   -5.6490   57.2000 C.3   148  VAL148      0.0252
     68  CG1      -18.1650   -5.7970   56.1320 C.3   148  VAL148      0.0019
     69  CG2      -20.6120   -6.1900   56.6630 C.3   148  VAL148      0.0019
     70  N        -13.3670   -5.7110   57.6320 N.3   150  ASP150     -0.1239
     71  CA       -12.3560   -5.9600   56.6210 C.3   150  ASP150      0.1674
     72  C        -11.0240   -5.3680   57.0840 C.2   150  ASP150      0.2266
     73  O        -10.8450   -4.1460   57.1380 O.2   150  ASP150     -0.2867
     74  CB       -12.7970   -5.3770   55.2740 C.3   150  ASP150      0.1410
     75  CG       -11.8960   -5.8140   54.1180 C.2   150  ASP150      0.3668
     76  OD1      -10.7770   -6.2900   54.3870 O.co2 150  ASP150     -0.2456
     77  OD2      -12.3110   -5.6840   52.9400 O.co2 150  ASP150     -0.2456
     78  N        -19.6560  -10.7920   57.7460 N.3   175  HIS175     -0.1241
     79  CA       -18.6390  -10.7020   56.6970 C.3   175  HIS175      0.1621
     80  C        -17.2960  -10.3810   57.3410 C.2   175  HIS175      0.2264
     81  O        -17.1000   -9.3120   57.9310 O.2   175  HIS175     -0.2867
     82  CB       -19.0340   -9.6270   55.6730 C.3   175  HIS175      0.0745
     83  CG       -18.0660   -9.4610   54.5320 C.ar  175  HIS175      0.0817
     84  ND1      -18.4590   -9.5070   53.2100 N.ar  175  HIS175     -0.2268
     85  CD2      -16.7360   -9.1990   54.5160 C.ar  175  HIS175      0.1154
     86  CE1      -17.4120   -9.3080   52.4290 C.ar  175  HIS175      0.1986
     87  NE2      -16.3530   -9.1220   53.1980 N.ar  175  HIS175     -0.2212
@<TRIPOS>BOND
     1    31    29    1
     2    30    29    1
     3    29    28    2
     4    28    27    1
     5    27    26    1
     6    26    25    1
     7     4     3    2
     8     6     5    1
     9    25    22    1
    10     3     2    1
    11     5     2    1
    12    62    61    1
    13    24    23    2
    14     2     1    1
    15    22    23    1
    16    22    21    1
    17    61    58    1
    18    20    19    1
    19    14    12   ar
    20    21    17   am
    21    18    17    2
    22    86    87   ar
    23    86    84   ar
    24    56    55    1
    25    19    16    1
    26    17    16    1
    27    58    57    1
    28    58    59    1
    29    50    48   am
    30    77    75   ar
    31    12    13   ar
    32    12    11    1
    33    87    85   ar
    34    84    83   ar
    35    60    59    2
    36    16    15    1
    37    57    53   am
    38    55    52    1
    39    54    53    2
    40    53    52    1
    41    48    49    2
    42    48    47    1
    43    11     8    1
    44    75    76   ar
    45    75    74    1
    46    42    40   ar
    47    42    41   ar
    48    40    38   ar
    49    85    83   ar
    50    52    51    1
    51    83    82    1
    52    10     9    2
    53    47    44    1
    54    41    39   ar
    55    74    71    1
    56     8     9    1
    57     8     7    1
    58    38    37   ar
    59    82    79    1
    60    68    67    1
    61    39    37   ar
    62    44    45    1
    63    44    43    1
    64    37    36    1
    65    46    45    2
    66    71    72    1
    67    71    70    1
    68    69    67    1
    69    79    80    1
    70    79    78    1
    71    72    73    2
    72    67    64    1
    73    80    81    2
    74    36    33    1
    75    64    65    1
    76    64    63    1
    77    65    66    2
    78    33    34    1
    79    33    32    1
    80    34    35    2
