@<TRIPOS>MOLECULE
tmp/3rgzA04.pdb
 188 183 0 0 0
SMALL
GASTEIGER

@<TRIPOS>ATOM
      1  N          8.2220   -2.3590   21.5510 N.3   511  ILE511     -0.1245
      2  CA         9.1310   -3.3780   21.0560 C.3   511  ILE511      0.1561
      3  C          9.0270   -3.4360   19.5450 C.2   511  ILE511      0.2260
      4  O          7.9300   -3.5870   18.9940 O.2   511  ILE511     -0.2867
      5  CB         8.8030   -4.7590   21.6520 C.3   511  ILE511      0.0252
      6  CG1        8.8540   -4.6950   23.1830 C.3   511  ILE511      0.0019
      7  CG2        9.7580   -5.8340   21.0970 C.3   511  ILE511      0.0019
      8  CD1        8.3810   -5.9450   23.8580 C.3   511  ILE511      0.0001
      9  N         11.5510    0.8950   23.6860 N.3   534  ILE534     -0.1231
     10  CA        12.5120    0.4130   24.6710 C.3   534  ILE534      0.1692
     11  C         13.3260   -0.7800   24.1780 C.2   534  ILE534      0.2592
     12  O         14.3510   -1.1110   24.7720 O.2   534  ILE534     -0.2718
     13  CB        11.8410    0.0430   26.0200 C.3   534  ILE534      0.0266
     14  CG1       10.7610   -1.0290   25.8180 C.3   534  ILE534      0.0019
     15  CG2       11.2610    1.2770   26.6790 C.3   534  ILE534      0.0020
     16  CD1       10.1420   -1.5040   27.1240 C.3   534  ILE534      0.0001
     17  N         12.8770   -1.4200   23.1010 N.am  535  TRP535     -0.1976
     18  CA        13.5420   -2.6280   22.6100 C.3   535  TRP535      0.1640
     19  C         13.5820   -2.6000   21.0830 C.2   535  TRP535      0.2290
     20  O         12.5700   -2.7770   20.4140 O.2   535  TRP535     -0.2864
     21  CB        12.8150   -3.8810   23.1200 C.3   535  TRP535      0.0576
     22  CG        13.5910   -5.1990   23.0280 C.ar  535  TRP535      0.0006
     23  CD1       13.8560   -5.9240   21.9000 C.ar  535  TRP535      0.0946
     24  CD2       14.1480   -5.9420   24.1210 C.ar  535  TRP535      0.0152
     25  NE1       14.5610   -7.0600   22.2170 N.ar  535  TRP535     -0.2442
     26  CE2       14.7570   -7.0950   23.5740 C.ar  535  TRP535      0.0810
     27  CE3       14.2110   -5.7340   25.5080 C.ar  535  TRP535      0.0012
     28  CZ2       15.4100   -8.0450   24.3640 C.ar  535  TRP535      0.0191
     29  CZ3       14.8690   -6.6830   26.2990 C.ar  535  TRP535      0.0001
     30  CH2       15.4630   -7.8190   25.7230 C.ar  535  TRP535      0.0015
     31  N          3.3530   -1.6830   27.9530 N.3   563  ILE563     -0.1245
     32  CA         4.0140   -2.9400   27.5690 C.3   563  ILE563      0.1561
     33  C          4.0630   -3.9950   28.6880 C.2   563  ILE563      0.2260
     34  O          4.2440   -5.1850   28.4200 O.2   563  ILE563     -0.2867
     35  CB         5.4600   -2.6850   27.0460 C.3   563  ILE563      0.0252
     36  CG1        6.0750   -3.9650   26.4820 C.3   563  ILE563      0.0019
     37  CG2        6.3470   -2.1570   28.1600 C.3   563  ILE563      0.0019
     38  CD1        5.2430   -4.6140   25.3980 C.3   563  ILE563      0.0001
     39  N          6.8490  -13.6000   28.1150 N.3   568  TYR568     -0.1241
     40  CA         7.8490  -13.5480   27.0690 C.3   568  TYR568      0.1605
     41  C          8.8830  -14.5830   27.4300 C.2   568  TYR568      0.2264
     42  O          8.8860  -15.1040   28.5480 O.2   568  TYR568     -0.2867
     43  CB         8.5150  -12.1720   27.0630 C.3   568  TYR568      0.0534
     44  CG         9.3680  -11.9170   28.3160 C.ar  568  TYR568     -0.0201
     45  CD1       10.6880  -12.3380   28.3800 C.ar  568  TYR568     -0.0009
     46  CD2        8.8410  -11.2750   29.4280 C.ar  568  TYR568     -0.0009
     47  CE1       11.4640  -12.1230   29.5140 C.ar  568  TYR568      0.0417
     48  CE2        9.6060  -11.0500   30.5620 C.ar  568  TYR568      0.0417
     49  CZ        10.9190  -11.4720   30.6030 C.ar  568  TYR568      0.1957
     50  OH        11.6960  -11.2480   31.7330 O.3   568  TYR568     -0.2866
     51  N         13.2500  -14.8220   26.7050 N.3   570  TYR570     -0.1241
     52  CA        14.4330  -14.2400   26.1160 C.3   570  TYR570      0.1605
     53  C         15.4540  -15.3470   25.9890 C.2   570  TYR570      0.2264
     54  O         15.8410  -15.9650   26.9750 O.2   570  TYR570     -0.2867
     55  CB        14.9650  -13.0870   26.9690 C.3   570  TYR570      0.0534
     56  CG        16.2360  -12.4780   26.4300 C.ar  570  TYR570     -0.0201
     57  CD1       16.2050  -11.6370   25.3390 C.ar  570  TYR570     -0.0009
     58  CD2       17.4750  -12.7470   27.0240 C.ar  570  TYR570     -0.0009
     59  CE1       17.3660  -11.0640   24.8400 C.ar  570  TYR570      0.0417
     60  CE2       18.6450  -12.1770   26.5370 C.ar  570  TYR570      0.0417
     61  CZ        18.5820  -11.3370   25.4430 C.ar  570  TYR570      0.1957
     62  OH        19.7310  -10.7720   24.9460 O.3   570  TYR570     -0.2866
     63  N         19.0490  -16.2600   25.0790 N.3   572  LYS572     -0.1245
     64  CA        20.3470  -15.6160   25.0240 C.3   572  LYS572      0.1561
     65  C         21.2580  -16.3480   24.0520 C.2   572  LYS572      0.2260
     66  O         21.3150  -17.5740   24.0500 O.2   572  LYS572     -0.2867
     67  CB        20.9750  -15.6280   26.4140 C.3   572  LYS572      0.0271
     68  CG        22.2870  -14.8950   26.5150 C.3   572  LYS572      0.0035
     69  CD        22.9110  -15.1030   27.8820 C.3   572  LYS572      0.0206
     70  CE        24.2400  -14.3500   27.9920 C.3   572  LYS572      0.1093
     71  NZ        25.1650  -14.7110   26.8850 N.3   572  LYS572     -0.1314
     72  N         14.0720  -11.9010   22.0630 N.3   586  LEU586     -0.1245
     73  CA        12.8960  -11.6490   22.8950 C.3   586  LEU586      0.1561
     74  C         11.6660  -12.1110   22.1100 C.2   586  LEU586      0.2260
     75  O         11.4130  -11.6360   20.9990 O.2   586  LEU586     -0.2867
     76  CB        12.7610  -10.1520   23.2170 C.3   586  LEU586      0.0270
     77  CG        11.5330   -9.7470   24.0530 C.3   586  LEU586      0.0019
     78  CD1       11.5030  -10.4790   25.3870 C.3   586  LEU586      0.0001
     79  CD2       11.4870   -8.2420   24.2940 C.3   586  LEU586      0.0001
     80  N         15.4890  -17.1070   29.5010 N.3   613  TYR613     -0.1241
     81  CA        14.9490  -16.2950   30.5760 C.3   613  TYR613      0.1605
     82  C         13.4740  -16.1130   30.2710 C.2   613  TYR613      0.2264
     83  O         13.0860  -16.0280   29.1120 O.2   613  TYR613     -0.2867
     84  CB        15.6200  -14.9270   30.6010 C.3   613  TYR613      0.0534
     85  CG        17.1070  -14.9550   30.8790 C.ar  613  TYR613     -0.0201
     86  CD1       18.0130  -15.2760   29.8760 C.ar  613  TYR613     -0.0009
     87  CD2       17.6050  -14.6390   32.1370 C.ar  613  TYR613     -0.0009
     88  CE1       19.3790  -15.2910   30.1150 C.ar  613  TYR613      0.0417
     89  CE2       18.9810  -14.6520   32.3910 C.ar  613  TYR613      0.0417
     90  CZ        19.8600  -14.9810   31.3720 C.ar  613  TYR613      0.1957
     91  OH        21.2170  -15.0040   31.6020 O.3   613  TYR613     -0.2866
     92  N          6.6870   -9.1200   31.1690 N.3   617  THR617     -0.1203
     93  CA         7.3920   -7.8650   30.9300 C.3   617  THR617      0.1994
     94  C          7.2200   -6.9330   32.1200 C.2   617  THR617      0.2619
     95  O          6.1090   -6.7220   32.6070 O.2   617  THR617     -0.2717
     96  CB         6.8990   -7.1460   29.6550 C.3   617  THR617      0.1784
     97  OG1        5.4680   -7.0970   29.6600 O.3   617  THR617     -0.2211
     98  CG2        7.3900   -7.8710   28.3780 C.3   617  THR617      0.0376
     99  N          8.3330   -6.3890   32.5940 N.am  618  SER618     -0.1938
    100  CA         8.3050   -5.4380   33.6940 C.3   618  SER618      0.2040
    101  C          9.4340   -4.4310   33.5370 C.2   618  SER618      0.2485
    102  O         10.5460   -4.6490   34.0150 O.2   618  SER618     -0.2729
    103  CB         8.3860   -6.1550   35.0480 C.3   618  SER618      0.2129
    104  OG         9.2280   -7.2910   34.9790 O.3   618  SER618     -0.2179
    105  N          9.1570   -3.3320   32.8270 N.am  619  PRO619     -0.2715
    106  CA        10.1690   -2.2820   32.6650 C.3   619  PRO619      0.1536
    107  C         10.6850   -1.7870   34.0170 C.2   619  PRO619      0.2599
    108  O          9.9870   -1.9070   35.0230 O.2   619  PRO619     -0.2715
    109  CB         9.4140   -1.1660   31.9320 C.3   619  PRO619      0.0310
    110  CG         8.0580   -1.7460   31.5530 C.3   619  PRO619      0.0237
    111  CD         8.0400   -3.1900   31.8810 C.3   619  PRO619      0.0939
    112  N         11.8970   -1.2410   34.0370 N.am  620  THR620     -0.1951
    113  CA        12.5040   -0.7710   35.2800 C.3   620  THR620      0.1897
    114  C         12.0420    0.6340   35.6810 C.2   620  THR620      0.2313
    115  O         12.1980    1.0390   36.8300 O.2   620  THR620     -0.2863
    116  CB        14.0420   -0.8300   35.2090 C.3   620  THR620      0.1794
    117  OG1       14.4890   -0.2670   33.9690 O.3   620  THR620     -0.2208
    118  CG2       14.5150   -2.2730   35.2910 C.3   620  THR620      0.0378
    119  N         16.1690    0.3260   26.3700 N.3   628  MET628     -0.1230
    120  CA        16.7740   -0.6720   27.2330 C.3   628  MET628      0.1702
    121  C         17.6400   -1.6630   26.4630 C.2   628  MET628      0.2592
    122  O         18.5340   -2.3050   27.0350 O.2   628  MET628     -0.2718
    123  CB        15.6950   -1.4430   27.9980 C.3   628  MET628      0.0401
    124  CG        14.9590   -0.6380   29.0530 C.3   628  MET628      0.0596
    125  SD        13.6380   -1.6250   29.7850 S.3   628  MET628     -0.1393
    126  CE        13.1610   -0.5960   31.1680 C.3   628  MET628      0.0692
    127  N         17.3750   -1.7940   25.1710 N.am  629  PHE629     -0.1976
    128  CA        17.9870   -2.8520   24.3730 C.3   629  PHE629      0.1639
    129  C         18.1210   -2.3570   22.9450 C.2   629  PHE629      0.2290
    130  O         17.1220   -2.0110   22.2970 O.2   629  PHE629     -0.2864
    131  CB        17.0990   -4.1010   24.4270 C.3   629  PHE629      0.0560
    132  CG        17.5980   -5.2670   23.5960 C.ar  629  PHE629     -0.0200
    133  CD1       18.2330   -6.3410   24.1970 C.ar  629  PHE629     -0.0042
    134  CD2       17.3880   -5.3060   22.2260 C.ar  629  PHE629     -0.0042
    135  CE1       18.6630   -7.4330   23.4430 C.ar  629  PHE629     -0.0003
    136  CE2       17.8280   -6.3820   21.4700 C.ar  629  PHE629     -0.0003
    137  CZ        18.4640   -7.4450   22.0850 C.ar  629  PHE629     -0.0000
    138  N         20.5890   -1.6700   28.8190 N.3   652  PHE652     -0.1227
    139  CA        21.2540   -2.8440   29.3900 C.3   652  PHE652      0.1736
    140  C         22.1480   -3.5340   28.3740 C.2   652  PHE652      0.2595
    141  O         23.1680   -4.1320   28.7300 O.2   652  PHE652     -0.2718
    142  CB        20.2260   -3.8640   29.8780 C.3   652  PHE652      0.0547
    143  CG        19.2730   -3.3250   30.8880 C.ar  652  PHE652     -0.0202
    144  CD1       19.7360   -2.8190   32.0940 C.ar  652  PHE652     -0.0042
    145  CD2       17.9080   -3.3360   30.6430 C.ar  652  PHE652     -0.0042
    146  CE1       18.8560   -2.3170   33.0410 C.ar  652  PHE652     -0.0003
    147  CE2       17.0210   -2.8370   31.5830 C.ar  652  PHE652     -0.0003
    148  CZ        17.4960   -2.3250   32.7860 C.ar  652  PHE652     -0.0000
    149  N         21.7530   -3.4630   27.1050 N.am  653  ILE653     -0.1980
    150  CA        22.4630   -4.1830   26.0600 C.3   653  ILE653      0.1595
    151  C         22.6690   -3.2960   24.8510 C.2   653  ILE653      0.2287
    152  O         21.7190   -2.7290   24.3190 O.2   653  ILE653     -0.2864
    153  CB        21.6890   -5.4610   25.6430 C.3   653  ILE653      0.0276
    154  CG1       21.6550   -6.4670   26.7980 C.3   653  ILE653      0.0022
    155  CG2       22.2850   -6.0720   24.3910 C.3   653  ILE653      0.0022
    156  CD1       20.8670   -7.7340   26.5070 C.3   653  ILE653      0.0001
    157  N         25.0150   -3.8030   30.7410 N.3   676  ASN676     -0.1225
    158  CA        25.5200   -5.1410   31.0560 C.3   676  ASN676      0.1785
    159  C         26.3390   -5.7120   29.9020 C.2   676  ASN676      0.2597
    160  O         27.3240   -6.4230   30.1150 O.2   676  ASN676     -0.2718
    161  CB        24.3880   -6.1240   31.3770 C.3   676  ASN676      0.1169
    162  CG        23.4600   -5.6260   32.4880 C.2   676  ASN676      0.2627
    163  OD1       22.2430   -5.6220   32.3400 O.2   676  ASN676     -0.2716
    164  ND2       24.0320   -5.2020   33.5760 N.am  676  ASN676     -0.0877
    165  N         25.9250   -5.4060   28.6780 N.am  677  ILE677     -0.1980
    166  CA        26.5580   -6.0010   27.5060 C.3   677  ILE677      0.1595
    167  C         26.9050   -4.9480   26.4840 C.2   677  ILE677      0.2287
    168  O         26.0430   -4.1930   26.0250 O.2   677  ILE677     -0.2864
    169  CB        25.6530   -7.0450   26.8530 C.3   677  ILE677      0.0276
    170  CG1       25.4320   -8.2100   27.8230 C.3   677  ILE677      0.0022
    171  CG2       26.2490   -7.5140   25.5250 C.3   677  ILE677      0.0022
    172  CD1       24.5340   -9.2990   27.2830 C.3   677  ILE677      0.0001
    173  N         28.7290   -7.3300   32.2490 N.3   700  THR700     -0.1203
    174  CA        28.9270   -8.7680   32.3440 C.3   700  THR700      0.1994
    175  C         29.5560   -9.3040   31.0550 C.2   700  THR700      0.2617
    176  O         30.0880  -10.4110   31.0400 O.2   700  THR700     -0.2717
    177  CB        27.6120   -9.5020   32.5790 C.3   700  THR700      0.1784
    178  OG1       26.7030   -9.1930   31.5130 O.3   700  THR700     -0.2211
    179  CG2       26.9940   -9.0800   33.9110 C.3   700  THR700      0.0376
    180  N         29.4800   -8.5260   29.9740 N.am  701  GLU701     -0.1979
    181  CA        30.0840   -8.9130   28.6930 C.3   701  GLU701      0.1602
    182  C         30.5580   -7.7080   27.8890 C.2   701  GLU701      0.2287
    183  O         29.8120   -6.7470   27.6860 O.2   701  GLU701     -0.2864
    184  CB        29.1010   -9.7020   27.8250 C.3   701  GLU701      0.0415
    185  CG        28.7050  -11.0770   28.3480 C.3   701  GLU701      0.1163
    186  CD        27.7760  -11.8220   27.3860 C.2   701  GLU701      0.3649
    187  OE1       27.6600  -11.4000   26.2080 O.co2 701  GLU701     -0.2457
    188  OE2       27.1630  -12.8260   27.8080 O.co2 701  GLU701     -0.2457
@<TRIPOS>BOND
     1     4     3    2
     2     3     2    1
     3    20    19    2
     4    75    74    2
     5     2     1    1
     6     2     5    1
     7    19    18    1
     8     7     5    1
     9   136   137   ar
    10   136   134   ar
    11     5     6    1
    12    23    25   ar
    13    23    22   ar
    14    72    73    1
    15   137   135   ar
    16    74    73    1
    17    25    26   ar
    18   134   132   ar
    19   130   129    2
    20    18    17    1
    21    18    21    1
    22    73    76    1
    23   129   128    1
    24    22    21    1
    25    22    24   ar
    26    17    11   am
    27     6     8    1
    28    76    77    1
    29   135   133   ar
    30    26    24   ar
    31    26    28   ar
    32   132   133   ar
    33   132   131    1
    34     9    10    1
    35    66    65    2
    36    65    64    1
    37    77    79    1
    38    77    78    1
    39    24    27   ar
    40    11    10    1
    41    11    12    2
    42   152   151    2
    43    28    30   ar
    44   128   131    1
    45   128   127    1
    46   155   153    1
    47    10    13    1
    48    59    57   ar
    49    59    61   ar
    50   151   150    1
    51    62    61    1
    52    64    63    1
    53    64    67    1
    54   127   121   am
    55    57    56   ar
    56    38    36    1
    57    61    60   ar
    58    27    29   ar
    59   171   169    1
    60   153   150    1
    61   153   154    1
    62    30    29   ar
    63    14    13    1
    64    14    16    1
    65    53    52    1
    66    53    54    2
    67    13    15    1
    68   168   167    2
    69   150   149    1
    70    52    51    1
    71    52    55    1
    72   187   186   ar
    73   119   120    1
    74    67    68    1
    75    56    55    1
    76    56    58   ar
    77   121   122    2
    78   121   120    1
    79    36    35    1
    80   167   166    1
    81   156   154    1
    82    68    69    1
    83    60    58   ar
    84   169   166    1
    85   169   170    1
    86    71    70    1
    87    35    32    1
    88    35    37    1
    89    43    40    1
    90    43    44    1
    91    40    41    1
    92    40    39    1
    93   149   140   am
    94   120   123    1
    95   172   170    1
    96   186   188   ar
    97   186   185    1
    98    41    42    2
    99   166   165    1
   100    32    31    1
   101    32    33    1
   102   183   182    2
   103   184   185    1
   104   184   181    1
   105    69    70    1
   106   182   181    1
   107   123   124    1
   108    44    45   ar
   109    44    46   ar
   110   140   141    2
   111   140   139    1
   112    98    96    1
   113    45    47   ar
   114    34    33    2
   115   165   159   am
   116   181   180    1
   117   138   139    1
   118   124   125    1
   119    83    82    2
   120   139   142    1
   121    46    48   ar
   122    80    81    1
   123    47    49   ar
   124    96    97    1
   125    96    93    1
   126   125   126    1
   127    86    88   ar
   128    86    85   ar
   129   142   143    1
   130   159   160    2
   131   159   158    1
   132   180   175   am
   133    88    90   ar
   134    82    81    1
   135    48    49   ar
   136    81    84    1
   137    84    85    1
   138    49    50    1
   139   145   143   ar
   140   145   147   ar
   141   157   158    1
   142    85    87   ar
   143   143   144   ar
   144    93    92    1
   145    93    94    1
   146   176   175    2
   147   175   174    1
   148   158   161    1
   149    90    91    1
   150    90    89   ar
   151   161   162    1
   152   178   177    1
   153   110   111    1
   154   110   109    1
   155   147   148   ar
   156   111   105    1
   157   109   106    1
   158   144   146   ar
   159    94    99   am
   160    94    95    2
   161    87    89   ar
   162   173   174    1
   163   163   162    2
   164   174   177    1
   165   162   164   am
   166   177   179    1
   167    99   100    1
   168   106   105    1
   169   106   107    1
   170   148   146   ar
   171   105   101   am
   172   101   100    1
   173   101   102    2
   174   100   103    1
   175   117   116    1
   176   107   112   am
   177   107   108    2
   178   112   113    1
   179   104   103    1
   180   116   113    1
   181   116   118    1
   182   113   114    1
   183   114   115    2
