@<TRIPOS>MOLECULE
tmp/3rgzA02.pdb
 126 121 0 0 0
SMALL
GASTEIGER

@<TRIPOS>ATOM
      1  N          9.2550  -15.9090   12.6450 N.3   468  PHE468     -0.1241
      2  CA         9.4500  -17.2960   12.2300 C.3   468  PHE468      0.1605
      3  C          8.3360  -17.8100   11.3210 C.2   468  PHE468      0.2264
      4  O          7.7090  -18.8500   11.5760 O.2   468  PHE468     -0.2867
      5  CB         9.6520  -18.2040   13.4490 C.3   468  PHE468      0.0534
      6  CG        10.9520  -17.9470   14.1980 C.ar  468  PHE468     -0.0203
      7  CD1       12.1540  -18.4550   13.7240 C.ar  468  PHE468     -0.0042
      8  CD2       10.9640  -17.2080   15.3810 C.ar  468  PHE468     -0.0042
      9  CE1       13.3550  -18.2340   14.4170 C.ar  468  PHE468     -0.0003
     10  CE2       12.1590  -16.9760   16.0670 C.ar  468  PHE468     -0.0003
     11  CZ        13.3460  -17.4820   15.5880 C.ar  468  PHE468     -0.0000
     12  N         12.8320  -13.1250   11.5180 N.3   492  ASN492     -0.1225
     13  CA        12.9020  -14.4540   10.9270 C.3   492  ASN492      0.1785
     14  C         11.8290  -14.7280    9.8730 C.2   492  ASN492      0.2597
     15  O         11.1000  -15.7310    9.9060 O.2   492  ASN492     -0.2718
     16  CB        12.9310  -15.5060   12.0330 C.3   492  ASN492      0.1169
     17  CG        14.2600  -15.5050   12.7750 C.2   492  ASN492      0.2627
     18  OD1       15.1760  -16.2390   12.4060 O.2   492  ASN492     -0.2716
     19  ND2       14.3860  -14.6400   13.7930 N.am  492  ASN492     -0.0877
     20  N         11.7460  -13.7950    8.9400 N.am  493  ASN493     -0.1960
     21  CA        10.9560  -13.9610    7.7450 C.3   493  ASN493      0.1819
     22  C         11.8590  -13.6740    6.5620 C.2   493  ASN493      0.2621
     23  O         13.0730  -13.8330    6.6630 O.2   493  ASN493     -0.2715
     24  CB         9.7440  -13.0320    7.8040 C.3   493  ASN493      0.1195
     25  CG         8.6350  -13.6110    8.6620 C.2   493  ASN493      0.2630
     26  OD1        7.9680  -14.5450    8.2390 O.2   493  ASN493     -0.2716
     27  ND2        8.4730  -13.1030    9.8970 N.am  493  ASN493     -0.0877
     28  N         11.2860  -13.2520    5.4460 N.am  494  ARG494     -0.1977
     29  CA        12.0980  -12.8460    4.3050 C.3   494  ARG494      0.1597
     30  C         11.6120  -11.5030    3.8150 C.2   494  ARG494      0.2287
     31  O         11.4600  -11.2900    2.6240 O.2   494  ARG494     -0.2864
     32  CB        12.0190  -13.8630    3.1690 C.3   494  ARG494      0.0334
     33  CG        12.4300  -15.2770    3.5500 C.3   494  ARG494      0.0492
     34  CD        11.7410  -16.2610    2.6100 C.3   494  ARG494      0.2205
     35  NE        11.7760  -17.6430    3.0770 N.pl3 494  ARG494     -0.0865
     36  CZ        11.2140  -18.6530    2.4230 C.cat 494  ARG494      0.5346
     37  NH1       10.5740  -18.4270    1.2820 N.pl3 494  ARG494      0.1354
     38  NH2       11.2870  -19.8860    2.9040 N.pl3 494  ARG494      0.1354
     39  N         16.9350  -10.8100   11.3480 N.3   516  ASN516     -0.1240
     40  CA        17.0180  -11.8850   10.3550 C.3   516  ASN516      0.1653
     41  C         15.9830  -11.8080    9.2140 C.2   516  ASN516      0.2266
     42  O         15.1880  -12.7330    8.9790 O.2   516  ASN516     -0.2867
     43  CB        17.0270  -13.2640   11.0200 C.3   516  ASN516      0.1155
     44  CG        17.3980  -14.3610   10.0460 C.2   516  ASN516      0.2627
     45  OD1       18.1090  -14.1120    9.0870 O.2   516  ASN516     -0.2716
     46  ND2       16.8910  -15.5720   10.2760 N.am  516  ASN516     -0.0877
     47  N         21.0310   -8.6590   11.6970 N.3   540  THR540     -0.1218
     48  CA        21.0160   -9.5470   10.5290 C.3   540  THR540      0.1862
     49  C         20.0240   -9.1050    9.4550 C.2   540  THR540      0.2287
     50  O         19.0140   -9.7630    9.1880 O.2   540  THR540     -0.2866
     51  CB        20.7790  -11.0120   10.9190 C.3   540  THR540      0.1770
     52  OG1       21.6670  -11.3380   11.9850 O.3   540  THR540     -0.2211
     53  CG2       21.0630  -11.9460    9.7070 C.3   540  THR540      0.0375
     54  N         28.5770  -20.1860   18.5950 N.3   577  LYS577     -0.1245
     55  CA        28.3170  -20.6240   17.2300 C.3   577  LYS577      0.1561
     56  C         28.2900  -19.4250   16.2920 C.2   577  LYS577      0.2260
     57  O         27.5110  -18.4950   16.4980 O.2   577  LYS577     -0.2867
     58  CB        26.9740  -21.3560   17.1890 C.3   577  LYS577      0.0271
     59  CG        26.8360  -22.4120   16.1050 C.3   577  LYS577      0.0035
     60  CD        25.4880  -23.1170   16.2260 C.3   577  LYS577      0.0206
     61  CE        25.2710  -24.1090   15.1000 C.3   577  LYS577      0.1093
     62  NZ        23.8770  -24.6310   15.0930 N.3   577  LYS577     -0.1314
     63  N         27.1020  -18.9550   13.3940 N.3   579  GLU579     -0.1245
     64  CA        25.8750  -18.7290   12.6460 C.3   579  GLU579      0.1567
     65  C         24.8000  -18.0950   13.5110 C.2   579  GLU579      0.2260
     66  O         23.8150  -17.5780   12.9920 O.2   579  GLU579     -0.2867
     67  CB        25.3660  -20.0360   12.0420 C.3   579  GLU579      0.0388
     68  CG        26.3510  -20.6960   11.0900 C.3   579  GLU579      0.1160
     69  CD        26.7630  -22.0850   11.5570 C.2   579  GLU579      0.3649
     70  OE1       26.0920  -23.0660   11.1580 O.co2 579  GLU579     -0.2457
     71  OE2       27.7480  -22.1940   12.3250 O.co2 579  GLU579     -0.2457
     72  N         23.4080  -15.1960   15.5560 N.3   581  HIS581     -0.1241
     73  CA        23.6490  -13.7460   15.5870 C.3   581  HIS581      0.1621
     74  C         22.8320  -12.9950   16.6320 C.2   581  HIS581      0.2264
     75  O         21.7350  -13.4160   16.9830 O.2   581  HIS581     -0.2867
     76  CB        23.3650  -13.1140   14.2210 C.3   581  HIS581      0.0745
     77  CG        24.2210  -13.6390   13.1180 C.ar  581  HIS581      0.0817
     78  ND1       24.0950  -13.2080   11.8160 N.ar  581  HIS581     -0.2268
     79  CD2       25.2060  -14.5720   13.1160 C.ar  581  HIS581      0.1154
     80  CE1       24.9660  -13.8520   11.0560 C.ar  581  HIS581      0.1986
     81  NE2       25.6520  -14.6830   11.8210 N.ar  581  HIS581     -0.2212
     82  N         14.5250  -25.4730   16.1190 N.3   601  SER601     -0.1202
     83  CA        15.8110  -25.9700   15.6070 C.3   601  SER601      0.2020
     84  C         15.9320  -25.9240   14.0770 C.2   601  SER601      0.2619
     85  O         17.0300  -25.8900   13.5410 O.2   601  SER601     -0.2717
     86  CB        16.1010  -27.3930   16.1070 C.3   601  SER601      0.2103
     87  OG        15.0770  -28.2990   15.7170 O.3   601  SER601     -0.2182
     88  N         14.8030  -25.9170   13.3810 N.am  602  THR602     -0.1938
     89  CA        14.8110  -25.9180   11.9210 C.3   602  THR602      0.2028
     90  C         14.8060  -24.5120   11.3370 C.2   602  THR602      0.2642
     91  O         14.8430  -24.3430   10.1210 O.2   602  THR602     -0.2714
     92  CB        13.5880  -26.6710   11.3730 C.3   602  THR602      0.1808
     93  OG1       12.4040  -26.1440   11.9860 O.3   602  THR602     -0.2208
     94  CG2       13.6990  -28.1710   11.6790 C.3   602  THR602      0.0379
     95  N         14.7550  -23.5070   12.2060 N.am  603  ARG603     -0.1963
     96  CA        14.6230  -22.1220   11.7690 C.3   603  ARG603      0.1729
     97  C         15.7620  -21.2870   12.3080 C.2   603  ARG603      0.2616
     98  O         16.0700  -20.2210   11.7890 O.2   603  ARG603     -0.2715
     99  CB        13.3130  -21.5260   12.2920 C.3   603  ARG603      0.0348
    100  CG        12.0860  -22.3940   12.0510 C.3   603  ARG603      0.0492
    101  CD        11.7460  -22.5150   10.5800 C.3   603  ARG603      0.2205
    102  NE        10.4420  -23.1510   10.4440 N.pl3 603  ARG603     -0.0865
    103  CZ         9.2850  -22.4930   10.4680 C.cat 603  ARG603      0.5346
    104  NH1        9.2730  -21.1710   10.5930 N.pl3 603  ARG603      0.1354
    105  NH2        8.1410  -23.1550   10.3650 N.pl3 603  ARG603      0.1354
    106  N         16.3860  -21.8000   13.3560 N.am  604  ASN604     -0.1959
    107  CA        17.1960  -21.0000   14.2510 C.3   604  ASN604      0.1804
    108  C         18.4670  -21.7770   14.5910 C.2   604  ASN604      0.2463
    109  O         18.4020  -22.8450   15.1900 O.2   604  ASN604     -0.2730
    110  CB        16.3610  -20.7160   15.5130 C.3   604  ASN604      0.1195
    111  CG        17.0720  -19.8100   16.5180 C.2   604  ASN604      0.2630
    112  OD1       18.1780  -19.3400   16.2820 O.2   604  ASN604     -0.2716
    113  ND2       16.4160  -19.5560   17.6440 N.am  604  ASN604     -0.0877
    114  N         19.6300  -21.2450   14.2030 N.am  605  PRO605     -0.2716
    115  CA        20.8710  -22.0140   14.3490 C.3   605  PRO605      0.1536
    116  C         21.4250  -21.9920   15.7840 C.2   605  PRO605      0.2598
    117  O         22.4560  -22.5990   16.0570 O.2   605  PRO605     -0.2715
    118  CB        21.8220  -21.3170   13.3740 C.3   605  PRO605      0.0310
    119  CG        21.3380  -19.8890   13.3480 C.3   605  PRO605      0.0237
    120  CD        19.8590  -19.9090   13.6180 C.3   605  PRO605      0.0939
    121  N         20.7210  -21.3170   16.6860 N.am  606  CYS606     -0.1968
    122  CA        21.1430  -21.1910   18.0750 C.3   606  CYS606      0.1712
    123  C         20.9490  -22.4660   18.8850 C.2   606  CYS606      0.2296
    124  O         19.9310  -23.1430   18.7550 O.2   606  CYS606     -0.2864
    125  CB        20.3890  -20.0390   18.7360 C.3   606  CYS606      0.0983
    126  SG        20.7520  -18.4480   17.9530 S.3   606  CYS606     -0.0798
@<TRIPOS>BOND
     1    37    36    1
     2    36    38    1
     3    36    35    2
     4    34    35    1
     5    34    33    1
     6    31    30    2
     7    32    33    1
     8    32    29    1
     9    30    29    1
    10    29    28    1
    11    28    22   am
    12    22    23    2
    13    22    21    1
    14    21    24    1
    15    21    20    1
    16    24    25    1
    17    26    25    2
    18    25    27   am
    19    20    14   am
    20    42    41    2
    21    45    44    2
    22    50    49    2
    23    41    40    1
    24    49    48    1
    25    53    51    1
    26    14    15    2
    27    14    13    1
    28    44    46   am
    29    44    43    1
    30    91    90    2
    31    40    43    1
    32    40    39    1
    33   105   103    1
    34   102   103    2
    35   102   101    1
    36   103   104    1
    37    48    51    1
    38    48    47    1
    39   101   100    1
    40    51    52    1
    41    13    12    1
    42    13    16    1
    43    80    78   ar
    44    80    81   ar
    45    68    69    1
    46    68    67    1
    47    70    69   ar
    48     3     4    2
    49     3     2    1
    50    90    89    1
    51    90    95   am
    52    92    94    1
    53    92    89    1
    54    92    93    1
    55    69    71   ar
    56    96    95    1
    57    96    99    1
    58    96    97    1
    59    98    97    2
    60    78    77   ar
    61    81    79   ar
    62    89    88    1
    63    16    17    1
    64    67    64    1
    65   100    99    1
    66     2     1    1
    67     2     5    1
    68    97   106   am
    69    18    17    2
    70    64    63    1
    71    64    65    1
    72    17    19   am
    73    66    65    2
    74    79    77   ar
    75    77    76    1
    76   119   118    1
    77   119   120    1
    78   106   107    1
    79   118   115    1
    80    88    84   am
    81     5     6    1
    82    85    84    2
    83   120   114    1
    84     7     6   ar
    85     7     9   ar
    86    84    83    1
    87     6     8   ar
    88   114   115    1
    89   114   108   am
    90    76    73    1
    91   107   108    1
    92   107   110    1
    93   115   116    1
    94     9    11   ar
    95   108   109    2
    96    62    61    1
    97    61    60    1
    98     8    10   ar
    99   110   111    1
   100    72    73    1
   101    73    74    1
   102    11    10   ar
   103    83    86    1
   104    83    82    1
   105    87    86    1
   106   116   117    2
   107   116   121   am
   108    59    60    1
   109    59    58    1
   110   112   111    2
   111    56    57    2
   112    56    55    1
   113   111   113   am
   114    74    75    2
   115   121   122    1
   116    58    55    1
   117    55    54    1
   118   126   125    1
   119   122   125    1
   120   122   123    1
   121   124   123    2
