@<TRIPOS>MOLECULE
tmp/3rh4D01.pdb
 96 89 0 0 0
SMALL
GASTEIGER

@<TRIPOS>ATOM
      1  N        -12.6980   15.1990   11.6860 N.3   165  ILE165     -0.1245
      2  CA       -12.6170   13.7680   11.4380 C.3   165  ILE165      0.1561
      3  C        -11.2670   13.2720   11.9580 C.2   165  ILE165      0.2260
      4  O        -10.2270   13.8040   11.5730 O.2   165  ILE165     -0.2867
      5  CB       -12.7380   13.4260    9.9430 C.3   165  ILE165      0.0252
      6  CG1      -13.9860   14.0650    9.3280 C.3   165  ILE165      0.0019
      7  CG2      -12.7830   11.9240    9.7630 C.3   165  ILE165      0.0019
      8  CD1      -14.1450   13.7590    7.8420 C.3   165  ILE165      0.0001
      9  N         -8.7250    9.9750   12.3550 N.3   167  THR167     -0.1218
     10  CA        -8.4470    8.6610   11.7910 C.3   167  THR167      0.1862
     11  C         -7.2300    8.0640   12.4640 C.2   167  THR167      0.2287
     12  O         -6.1590    8.6680   12.4360 O.2   167  THR167     -0.2866
     13  CB        -8.1130    8.7730   10.3080 C.3   167  THR167      0.1770
     14  OG1       -9.1510    9.4990    9.6460 O.3   167  THR167     -0.2211
     15  CG2       -7.9250    7.3730    9.6670 C.3   167  THR167      0.0375
     16  N         -3.7010    1.1570   11.6580 N.3   173  ARG173     -0.1245
     17  CA        -4.3530    1.1810   10.3580 C.3   173  ARG173      0.1563
     18  C         -3.7920    0.0820    9.4490 C.2   173  ARG173      0.2260
     19  O         -4.4740   -0.3870    8.5370 O.2   173  ARG173     -0.2867
     20  CB        -4.2400    2.5700    9.7300 C.3   173  ARG173      0.0307
     21  CG        -4.8940    2.7060    8.3720 C.3   173  ARG173      0.0489
     22  CD        -5.0360    4.1720    7.9860 C.3   173  ARG173      0.2205
     23  NE        -5.9210    4.3200    6.8430 N.pl3 173  ARG173     -0.0865
     24  CZ        -5.5200    4.3430    5.5770 C.cat 173  ARG173      0.5346
     25  NH1       -4.2290    4.2440    5.2780 N.pl3 173  ARG173      0.1354
     26  NH2       -6.4150    4.4720    4.6040 N.pl3 173  ARG173      0.1354
     27  N         -4.6320   10.8920   13.0070 N.3   185  LEU185     -0.1245
     28  CA        -4.6350   11.9670   12.0330 C.3   185  LEU185      0.1561
     29  C         -5.9190   12.7230   12.2710 C.2   185  LEU185      0.2260
     30  O         -6.9650   12.1170   12.4780 O.2   185  LEU185     -0.2867
     31  CB        -4.5990   11.4180   10.6130 C.3   185  LEU185      0.0270
     32  CG        -4.3980   12.4330    9.4850 C.3   185  LEU185      0.0019
     33  CD1       -3.0480   13.0620    9.6190 C.3   185  LEU185      0.0001
     34  CD2       -4.4870   11.7500    8.1230 C.3   185  LEU185      0.0001
     35  N         -8.4210   16.1030   11.0030 N.3   187  THR187     -0.1218
     36  CA        -8.7290   17.1770   10.0730 C.3   187  THR187      0.1862
     37  C         -9.9240   17.9960   10.5460 C.2   187  THR187      0.2287
     38  O        -10.6880   17.5750   11.4250 O.2   187  THR187     -0.2866
     39  CB        -9.0350   16.6710    8.6540 C.3   187  THR187      0.1770
     40  OG1      -10.2220   15.8680    8.6770 O.3   187  THR187     -0.2211
     41  CG2       -7.8670   15.8840    8.0790 C.3   187  THR187      0.0375
     42  N         -7.1720   19.7040    5.4420 N.3   253  LYS253     -0.1245
     43  CA        -8.2300   18.7610    5.0720 C.3   253  LYS253      0.1561
     44  C         -8.1490   18.3030    3.6290 C.2   253  LYS253      0.2260
     45  O         -8.3450   17.1310    3.3340 O.2   253  LYS253     -0.2867
     46  CB        -9.6290   19.3240    5.3710 C.3   253  LYS253      0.0271
     47  CG       -10.7600   18.2960    5.1380 C.3   253  LYS253      0.0035
     48  CD       -12.1140   18.8940    5.4530 C.3   253  LYS253      0.0206
     49  CE       -13.2310   17.9080    5.1740 C.3   253  LYS253      0.1093
     50  NZ       -13.3150   16.8420    6.2120 N.3   253  LYS253     -0.1314
     51  N         -5.6950   15.3620    2.8170 N.3   256  TYR256     -0.1227
     52  CA        -5.9140   14.1300    3.5820 C.3   256  TYR256      0.1736
     53  C         -5.1790   12.9080    3.0180 C.2   256  TYR256      0.2595
     54  O         -4.5520   12.1510    3.7610 O.2   256  TYR256     -0.2718
     55  CB        -7.4120   13.8150    3.6770 C.3   256  TYR256      0.0548
     56  CG        -7.6770   12.4130    4.1660 C.ar  256  TYR256     -0.0200
     57  CD1       -7.5730   12.0930    5.5170 C.ar  256  TYR256     -0.0009
     58  CD2       -8.0220   11.4070    3.2800 C.ar  256  TYR256     -0.0009
     59  CE1       -7.8130   10.8060    5.9670 C.ar  256  TYR256      0.0417
     60  CE2       -8.2570   10.1130    3.7200 C.ar  256  TYR256      0.0417
     61  CZ        -8.1470    9.8200    5.0620 C.ar  256  TYR256      0.1957
     62  OH        -8.3760    8.5320    5.4960 O.3   256  TYR256     -0.2866
     63  N         -5.2650   12.7020    1.7070 N.am  257  TYR257     -0.1976
     64  CA        -4.6900   11.5010    1.1140 C.3   257  TYR257      0.1639
     65  C         -3.1860   11.4490    1.3020 C.2   257  TYR257      0.2290
     66  O         -2.6440   10.4030    1.6610 O.2   257  TYR257     -0.2864
     67  CB        -5.0550   11.3700   -0.3720 C.3   257  TYR257      0.0560
     68  CG        -6.5330   11.1740   -0.5850 C.ar  257  TYR257     -0.0198
     69  CD1       -7.1880   10.0690   -0.0480 C.ar  257  TYR257     -0.0009
     70  CD2       -7.2850   12.1010   -1.3050 C.ar  257  TYR257     -0.0009
     71  CE1       -8.5410    9.8920   -0.2260 C.ar  257  TYR257      0.0417
     72  CE2       -8.6470   11.9240   -1.4900 C.ar  257  TYR257      0.0417
     73  CZ        -9.2640   10.8170   -0.9510 C.ar  257  TYR257      0.1957
     74  OH       -10.6140   10.6300   -1.1340 O.3   257  TYR257     -0.2866
     75  N         -2.5880   10.8970    5.2340 N.3   260  VAL260     -0.1245
     76  CA        -2.9290    9.5570    5.6670 C.3   260  VAL260      0.1561
     77  C         -1.9260    8.5060    5.1470 C.2   260  VAL260      0.2260
     78  O         -1.5970    7.5700    5.8610 O.2   260  VAL260     -0.2867
     79  CB        -4.3910    9.2000    5.2890 C.3   260  VAL260      0.0252
     80  CG1       -4.4760    8.7120    3.8360 C.3   260  VAL260      0.0019
     81  CG2       -4.9350    8.1600    6.2350 C.3   260  VAL260      0.0019
     82  N         -6.9570   10.2810   -4.1790 N.3   306  SER306     -0.1202
     83  CA        -6.9450    8.9940   -3.4980 C.3   306  SER306      0.2020
     84  C         -5.5190    8.6310   -3.1160 C.2   306  SER306      0.2618
     85  O         -4.5630    9.1550   -3.6890 O.2   306  SER306     -0.2717
     86  CB        -7.5670    7.9050   -4.3870 C.3   306  SER306      0.2103
     87  OG        -6.8400    7.7340   -5.5970 O.3   306  SER306     -0.2182
     88  N         -5.3640    7.7570   -2.1320 N.am  307  GLU307     -0.1979
     89  CA        -4.0450    7.1940   -1.8650 C.3   307  GLU307      0.1602
     90  C         -3.4800    6.5520   -3.1240 C.2   307  GLU307      0.2287
     91  O         -2.2770    6.6500   -3.4060 O.2   307  GLU307     -0.2864
     92  CB        -4.1080    6.1410   -0.7540 C.3   307  GLU307      0.0415
     93  CG        -4.0630    6.7150    0.6370 C.3   307  GLU307      0.1163
     94  CD        -3.9900    5.6460    1.7070 C.2   307  GLU307      0.3649
     95  OE1       -2.8910    5.4260    2.2450 O.co2 307  GLU307     -0.2457
     96  OE2       -5.0320    5.0330    2.0110 O.co2 307  GLU307     -0.2457
@<TRIPOS>BOND
     1    87    86    1
     2    86    83    1
     3    82    83    1
     4    85    84    2
     5    83    84    1
     6    91    90    2
     7    90    89    1
     8    84    88   am
     9    88    89    1
    10    89    92    1
    11    72    70   ar
    12    72    73   ar
    13    70    68   ar
    14    74    73    1
    15    73    71   ar
    16    92    93    1
    17    68    67    1
    18    68    69   ar
    19    67    64    1
    20    71    69   ar
    21    93    94    1
    22    64    65    1
    23    64    63    1
    24    65    66    2
    25    94    96   ar
    26    94    95   ar
    27    63    53   am
    28    51    52    1
    29    53    52    1
    30    53    54    2
    31    58    60   ar
    32    58    56   ar
    33    45    44    2
    34    52    55    1
    35    44    43    1
    36    55    56    1
    37    60    61   ar
    38    80    79    1
    39    56    57   ar
    40    26    24    1
    41    61    62    1
    42    61    59   ar
    43    43    46    1
    44    43    42    1
    45    47    46    1
    46    47    48    1
    47    77    76    1
    48    77    78    2
    49    49    48    1
    50    49    50    1
    51    75    76    1
    52    25    24    1
    53    79    76    1
    54    79    81    1
    55    57    59   ar
    56    24    23    2
    57    23    22    1
    58     8     6    1
    59    22    21    1
    60    41    39    1
    61    34    32    1
    62    21    20    1
    63    19    18    2
    64    39    40    1
    65    39    36    1
    66     6     5    1
    67    18    17    1
    68    32    33    1
    69    32    31    1
    70    14    13    1
    71    15    13    1
    72    20    17    1
    73     7     5    1
    74     5     2    1
    75    36    37    1
    76    36    35    1
    77    13    10    1
    78    17    16    1
    79    37    38    2
    80    31    28    1
    81     2     1    1
    82     2     3    1
    83     4     3    2
    84    10     9    1
    85    10    11    1
    86    28    29    1
    87    28    27    1
    88    29    30    2
    89    12    11    2
