@<TRIPOS>MOLECULE
tmp/3rh7A00.pdb
 181 175 0 0 0
SMALL
GASTEIGER

@<TRIPOS>ATOM
      1  N         68.9610   18.9840   99.2610 N.3    23  VAL23      -0.1245
      2  CA        68.0510   17.9070   98.8500 C.3    23  VAL23       0.1561
      3  C         68.8850   16.6970   98.4170 C.2    23  VAL23       0.2260
      4  O         69.8370   16.8460   97.6170 O.2    23  VAL23      -0.2867
      5  CB        67.0630   18.3420   97.7280 C.3    23  VAL23       0.0252
      6  CG1       66.1020   17.2130   97.3870 C.3    23  VAL23       0.0019
      7  CG2       66.2970   19.6200   98.0880 C.3    23  VAL23       0.0019
      8  N         64.3490    7.2030   96.8240 N.3    38  PHE38      -0.1227
      9  CA        63.4420    8.1780   97.4200 C.3    38  PHE38       0.1736
     10  C         64.1650    9.4750   97.7460 C.2    38  PHE38       0.2596
     11  O         65.3180    9.4580   98.1660 O.2    38  PHE38      -0.2718
     12  CB        62.7530    7.6290   98.6710 C.3    38  PHE38       0.0547
     13  CG        63.5950    7.4440   99.9110 C.ar   38  PHE38      -0.0202
     14  CD1       64.3780    6.3060  100.0770 C.ar   38  PHE38      -0.0042
     15  CD2       63.5150    8.3450  100.9640 C.ar   38  PHE38      -0.0042
     16  CE1       65.1170    6.1060  101.2470 C.ar   38  PHE38      -0.0003
     17  CE2       64.2740    8.1580  102.1190 C.ar   38  PHE38      -0.0003
     18  CZ        65.0680    7.0370  102.2530 C.ar   38  PHE38      -0.0000
     19  N         63.4690   10.5970   97.5750 N.am   39  THR39      -0.1939
     20  CA        63.9820   11.9150   97.9150 C.3    39  THR39       0.2028
     21  C         63.9250   12.0910   99.4320 C.2    39  THR39       0.2642
     22  O         62.8930   11.8010  100.0330 O.2    39  THR39      -0.2714
     23  CB        63.1780   12.9940   97.1830 C.3    39  THR39       0.1808
     24  OG1       63.3690   12.8380   95.7870 O.3    39  THR39      -0.2208
     25  CG2       63.6130   14.3820   97.5450 C.3    39  THR39       0.0379
     26  N         65.0180   12.5630  100.0440 N.am   40  ALA40      -0.1963
     27  CA        65.0790   12.8340  101.4850 C.3    40  ALA40       0.1728
     28  C         65.9160   14.0960  101.7900 C.2    40  ALA40       0.2616
     29  O         67.0340   14.2690  101.2670 O.2    40  ALA40      -0.2715
     30  CB        65.6370   11.6350  102.2390 C.3    40  ALA40       0.0334
     31  N         65.3650   14.9760  102.6380 N.am   41  ASN41      -0.1958
     32  CA        66.0530   16.1950  103.0510 C.3    41  ASN41       0.1819
     33  C         66.3670   16.1060  104.5550 C.2    41  ASN41       0.2622
     34  O         67.0810   16.9540  105.1130 O.2    41  ASN41      -0.2715
     35  CB        65.2290   17.4200  102.6850 C.3    41  ASN41       0.1195
     36  CG        64.0980   17.7790  103.6120 C.2    41  ASN41       0.2630
     37  OD1       63.4040   16.9190  104.1750 O.2    41  ASN41      -0.2716
     38  ND2       63.8570   19.0770  103.7670 N.am   41  ASN41      -0.0877
     39  N         65.8240   15.0500  105.1990 N.am   42  SER42      -0.1950
     40  CA        66.0420   14.7670  106.6060 C.3    42  SER42       0.1924
     41  C         67.2720   13.8720  106.6810 C.2    42  SER42       0.2314
     42  O         67.1640   12.6690  106.9500 O.2    42  SER42      -0.2863
     43  CB        64.7830   14.1720  107.2460 C.3    42  SER42       0.2116
     44  OG        63.8280   15.1870  107.5520 O.3    42  SER42      -0.2180
     45  N         66.6250    9.8450  107.3560 N.3    56  CYS56      -0.1221
     46  CA        65.4260    9.2820  107.9780 C.3    56  CYS56       0.1808
     47  C         64.4040    8.8510  106.9360 C.2    56  CYS56       0.2601
     48  O         64.1270    9.5970  105.9910 O.2    56  CYS56      -0.2717
     49  CB        64.8210   10.2590  108.9820 C.3    56  CYS56       0.0970
     50  SG        66.0270   10.9570  110.1430 S.3    56  CYS56      -0.0800
     51  N         63.8500    7.6390  107.1220 N.am   57  LEU57      -0.1965
     52  CA        62.8670    7.0440  106.2200 C.3    57  LEU57       0.1728
     53  C         61.5680    6.7920  106.9370 C.2    57  LEU57       0.2616
     54  O         61.5790    6.1730  108.0060 O.2    57  LEU57      -0.2715
     55  CB        63.4100    5.7320  105.6450 C.3    57  LEU57       0.0311
     56  CG        62.4340    4.8590  104.8700 C.3    57  LEU57       0.0022
     57  CD1       62.1010    5.4780  103.5340 C.3    57  LEU57       0.0001
     58  CD2       62.9870    3.4710  104.6860 C.3    57  LEU57       0.0001
     59  N         60.4460    7.2390  106.3380 N.am   58  ALA58      -0.1977
     60  CA        59.0940    7.0640  106.8990 C.3    58  ALA58       0.1597
     61  C         58.6910    5.5920  106.9300 C.2    58  ALA58       0.2287
     62  O         58.9560    4.8520  105.9850 O.2    58  ALA58      -0.2864
     63  CB        58.0800    7.8560  106.0930 C.3    58  ALA58       0.0319
     64  N         55.7830    4.5590  106.6660 N.3    60  SER60      -0.1202
     65  CA        54.7250    4.5490  105.6570 C.3    60  SER60       0.2020
     66  C         55.2450    4.2850  104.2390 C.2    60  SER60       0.2619
     67  O         54.4340    4.0130  103.3540 O.2    60  SER60      -0.2717
     68  CB        53.9900    5.8890  105.6630 C.3    60  SER60       0.2103
     69  OG        54.8280    6.9840  105.3200 O.3    60  SER60      -0.2182
     70  N         56.5750    4.4130  103.9940 N.am   61  SER61      -0.1937
     71  CA        57.1850    4.2350  102.6760 C.3    61  SER61       0.2055
     72  C         56.8890    2.8710  102.0820 C.2    61  SER61       0.2643
     73  O         56.8290    1.8680  102.8000 O.2    61  SER61      -0.2714
     74  CB        58.6920    4.4320  102.7430 C.3    61  SER61       0.2130
     75  OG        59.2650    4.5220  101.4490 O.3    61  SER61      -0.2179
     76  N         56.6740    2.8530  100.7530 N.am   62  ARG62      -0.1963
     77  CA        56.4130    1.6410   99.9720 C.3    62  ARG62       0.1729
     78  C         57.6840    0.7910   99.9420 C.2    62  ARG62       0.2616
     79  O         57.6260   -0.4260  100.1270 O.2    62  ARG62      -0.2715
     80  CB        55.9570    2.0110   98.5540 C.3    62  ARG62       0.0348
     81  CG        54.5970    2.7280   98.5210 C.3    62  ARG62       0.0492
     82  CD        54.2600    3.3010   97.1310 C.3    62  ARG62       0.2205
     83  NE        55.4580    3.4870   96.3090 N.pl3  62  ARG62      -0.0865
     84  CZ        55.6710    4.5140   95.4970 C.cat  62  ARG62       0.5346
     85  NH1       54.7720    5.4890   95.3690 N.pl3  62  ARG62       0.1354
     86  NH2       56.8030    4.5600   94.8140 N.pl3  62  ARG62       0.1354
     87  N         58.8370    1.4650   99.7850 N.am   63  ASN63      -0.1972
     88  CA        60.1740    0.8820   99.7290 C.3    63  ASN63       0.1688
     89  C         60.7410    0.5400  101.1210 C.2    63  ASN63       0.2292
     90  O         61.8360   -0.0250  101.1690 O.2    63  ASN63      -0.2864
     91  CB        61.1300    1.8680   99.0150 C.3    63  ASN63       0.1181
     92  CG        60.8700    2.0790   97.5380 C.2    63  ASN63       0.2629
     93  OD1       60.3620    1.1900   96.8290 O.2    63  ASN63      -0.2716
     94  ND2       61.2660    3.2530   97.0410 N.am   63  ASN63      -0.0877
     95  N         64.3870   15.5830   92.3170 N.3    85  SER85      -0.1217
     96  CA        63.7840   15.6970   93.6350 C.3    85  SER85       0.1889
     97  C         62.3010   15.4360   93.5340 C.2    85  SER85       0.2288
     98  O         61.7830   14.6410   94.3060 O.2    85  SER85      -0.2866
     99  CB        64.0450   17.0800   94.2190 C.3    85  SER85       0.2089
    100  OG        63.3740   17.2480   95.4540 O.3    85  SER85      -0.2183
    101  N         61.5530   11.6120   92.3610 N.3    88  PHE88      -0.1227
    102  CA        61.8730   10.6900   93.4410 C.3    88  PHE88       0.1736
    103  C         61.1030   10.9460   94.7430 C.2    88  PHE88       0.2595
    104  O         61.4040   10.3080   95.7520 O.2    88  PHE88      -0.2718
    105  CB        63.3940   10.6680   93.6800 C.3    88  PHE88       0.0547
    106  CG        64.0990    9.7030   92.7500 C.ar   88  PHE88      -0.0202
    107  CD1       64.5100   10.1070   91.4860 C.ar   88  PHE88      -0.0042
    108  CD2       64.2860    8.3710   93.1130 C.ar   88  PHE88      -0.0042
    109  CE1       65.1280    9.2020   90.6200 C.ar   88  PHE88      -0.0003
    110  CE2       64.9150    7.4710   92.2450 C.ar   88  PHE88      -0.0003
    111  CZ        65.3300    7.8910   91.0020 C.ar   88  PHE88      -0.0000
    112  N         60.0810   11.8180   94.7120 N.am   89  ALA89      -0.1980
    113  CA        59.2160   12.1110   95.8670 C.3    89  ALA89       0.1597
    114  C         57.7580   11.8030   95.5270 C.2    89  ALA89       0.2287
    115  O         56.9850   11.4530   96.4150 O.2    89  ALA89      -0.2864
    116  CB        59.3620   13.5640   96.2830 C.3    89  ALA89       0.0319
    117  N         60.9940    5.7030   88.2460 N.3    95  ARG95      -0.1245
    118  CA        61.6790    6.8900   88.7380 C.3    95  ARG95       0.1563
    119  C         63.0560    7.0470   88.1110 C.2    95  ARG95       0.2260
    120  O         63.4480    8.1770   87.7940 O.2    95  ARG95      -0.2867
    121  CB        61.8350    6.8140   90.2500 C.3    95  ARG95       0.0307
    122  CG        60.8500    7.6480   91.0160 C.3    95  ARG95       0.0489
    123  CD        60.7790    7.1640   92.4380 C.3    95  ARG95       0.2205
    124  NE        59.6970    7.7980   93.1740 N.pl3  95  ARG95      -0.0865
    125  CZ        59.4550    7.5860   94.4560 C.cat  95  ARG95       0.5346
    126  NH1       60.2340    6.7750   95.1610 N.pl3  95  ARG95       0.1354
    127  NH2       58.4430    8.1940   95.0520 N.pl3  95  ARG95       0.1354
    128  N         59.0770    7.3570  111.6530 N.3   130  HIS130     -0.1241
    129  CA        60.2520    7.1800  110.8080 C.3   130  HIS130      0.1621
    130  C         61.2750    6.2330  111.4520 C.2   130  HIS130      0.2264
    131  O         61.1150    5.8200  112.6040 O.2   130  HIS130     -0.2867
    132  CB        60.9350    8.5510  110.5540 C.3   130  HIS130      0.0745
    133  CG        60.3040    9.4040  109.4940 C.ar  130  HIS130      0.0817
    134  ND1       58.9770    9.8030  109.5710 N.ar  130  HIS130     -0.2268
    135  CD2       60.8760   10.0090  108.4300 C.ar  130  HIS130      0.1154
    136  CE1       58.7670   10.5740  108.5170 C.ar  130  HIS130      0.1986
    137  NE2       59.8760   10.7330  107.8030 N.ar  130  HIS130     -0.2212
    138  N         66.0700   23.3420   99.7760 N.3   150  TYR150     -0.1241
    139  CA        64.6670   23.3350  100.1840 C.3   150  TYR150      0.1605
    140  C         64.5420   24.0920  101.4580 C.2   150  TYR150      0.2264
    141  O         65.1560   23.6910  102.4480 O.2   150  TYR150     -0.2867
    142  CB        64.1200   21.9040  100.3920 C.3   150  TYR150      0.0534
    143  CG        62.6220   21.7620  100.1860 C.ar  150  TYR150     -0.0201
    144  CD1       62.0710   21.7510   98.9040 C.ar  150  TYR150     -0.0009
    145  CD2       61.7630   21.5590  101.2630 C.ar  150  TYR150     -0.0009
    146  CE1       60.7030   21.5350   98.6960 C.ar  150  TYR150      0.0417
    147  CE2       60.3870   21.3540  101.0680 C.ar  150  TYR150      0.0417
    148  CZ        59.8640   21.3210   99.7780 C.ar  150  TYR150      0.1957
    149  OH        58.5150   21.1420   99.5340 O.3   150  TYR150     -0.2866
    150  N         61.9470   24.9270   97.0390 N.3   155  TYR155     -0.1241
    151  CA        63.3170   25.0050   96.5850 C.3   155  TYR155      0.1605
    152  C         63.8290   26.4190   96.3780 C.2   155  TYR155      0.2264
    153  O         63.1130   27.3180   95.9060 O.2   155  TYR155     -0.2867
    154  CB        63.4700   24.2780   95.2430 C.3   155  TYR155      0.0534
    155  CG        62.8900   22.8900   95.1780 C.ar  155  TYR155     -0.0201
    156  CD1       63.5540   21.8110   95.7580 C.ar  155  TYR155     -0.0009
    157  CD2       61.7340   22.6320   94.4470 C.ar  155  TYR155     -0.0009
    158  CE1       63.0430   20.5200   95.6810 C.ar  155  TYR155      0.0417
    159  CE2       61.2240   21.3400   94.3440 C.ar  155  TYR155      0.0417
    160  CZ        61.8790   20.2880   94.9740 C.ar  155  TYR155      0.1957
    161  OH        61.3900   19.0120   94.9170 O.3   155  TYR155     -0.2866
    162  N         54.0980   17.2710   97.8260 N.3   285  ILE285     -0.1231
    163  CA        55.3730   16.6560   98.1930 C.3   285  ILE285      0.1692
    164  C         55.9600   17.3290   99.4640 C.2   285  ILE285      0.2593
    165  O         55.4870   18.3850   99.9260 O.2   285  ILE285     -0.2718
    166  CB        56.4000   16.6030   97.0030 C.3   285  ILE285      0.0266
    167  CG1       56.7620   18.0030   96.4110 C.3   285  ILE285      0.0019
    168  CG2       55.9370   15.6160   95.9100 C.3   285  ILE285      0.0020
    169  CD1       57.9660   18.7470   96.9950 C.3   285  ILE285      0.0001
    170  N         56.9950   16.6780   99.9820 N.am  286  GLY286     -0.1942
    171  CA        57.7170   17.0610  101.1810 C.3   286  GLY286      0.2014
    172  C         57.6680   15.9330  102.1990 C.2   286  GLY286      0.2638
    173  O         56.8730   14.9870  102.0570 O.2   286  GLY286     -0.2714
    174  N         58.5210   16.0310  103.2470 N.am  287  ASN287     -0.1972
    175  CA        58.5730   15.0370  104.3240 C.3   287  ASN287      0.1688
    176  C         57.2660   15.1130  105.1530 C.2   287  ASN287      0.2292
    177  O         56.6320   16.1830  105.2240 O.2   287  ASN287     -0.2864
    178  CB        59.8300   15.2400  105.2120 C.3   287  ASN287      0.1181
    179  CG        60.3110   14.0110  105.9850 C.2   287  ASN287      0.2629
    180  OD1       59.7340   12.9010  105.9120 O.2   287  ASN287     -0.2716
    181  ND2       61.3910   14.1870  106.7580 N.am  287  ASN287     -0.0877
@<TRIPOS>BOND
     1   120   119    2
     2   119   118    1
     3   117   118    1
     4   118   121    1
     5   121   122    1
     6   109   111   ar
     7   109   107   ar
     8   111   110   ar
     9   122   123    1
    10   107   106   ar
    11   110   108   ar
    12    95    96    1
    13   101   102    1
    14   123   124    1
    15   106   108   ar
    16   106   105    1
    17   124   125    2
    18   102   105    1
    19   102   103    1
    20    97    96    1
    21    97    98    2
    22    96    99    1
    23    99   100    1
    24   159   157   ar
    25   159   160   ar
    26   157   155   ar
    27   125   127    1
    28   125   126    1
    29   112   103   am
    30   112   113    1
    31   103   104    2
    32    86    84    1
    33   161   160    1
    34   160   158   ar
    35   155   154    1
    36   155   156   ar
    37   154   151    1
    38    85    84    1
    39    84    83    2
    40   114   113    1
    41   114   115    2
    42   158   156   ar
    43    24    23    1
    44   113   116    1
    45   153   152    2
    46   168   166    1
    47    83    82    1
    48   152   151    1
    49   167   169    1
    50   167   166    1
    51   151   150    1
    52     8     9    1
    53    93    92    2
    54   166   163    1
    55    94    92   am
    56    82    81    1
    57    23    25    1
    58    23    20    1
    59     6     5    1
    60     9    10    1
    61     9    12    1
    62    92    91    1
    63    19    10   am
    64    19    20    1
    65     4     3    2
    66     5     7    1
    67     5     2    1
    68    10    11    2
    69   162   163    1
    70    20    21    1
    71   163   164    1
    72     3     2    1
    73    81    80    1
    74    80    77    1
    75    12    13    1
    76   146   144   ar
    77   146   148   ar
    78     2     1    1
    79   144   143   ar
    80    91    88    1
    81    21    22    2
    82    21    26   am
    83   164   165    2
    84   164   170   am
    85   149   148    1
    86    88    87    1
    87    88    89    1
    88   138   139    1
    89   148   147   ar
    90    87    78   am
    91    13    14   ar
    92    13    15   ar
    93    78    77    1
    94    78    79    2
    95    77    76    1
    96   170   171    1
    97    26    27    1
    98    14    16   ar
    99   139   142    1
   100   139   140    1
   101   143   142    1
   102   143   145   ar
   103    76    72   am
   104    15    17   ar
   105   147   145   ar
   106    89    90    2
   107   171   172    1
   108    16    18   ar
   109    29    28    2
   110    75    74    1
   111   140   141    2
   112    27    28    1
   113    27    30    1
   114    28    31   am
   115   173   172    2
   116    72    71    1
   117    72    73    2
   118    17    18   ar
   119   172   174   am
   120    31    32    1
   121    71    74    1
   122    71    70    1
   123    35    32    1
   124    35    36    1
   125    32    33    1
   126   174   175    1
   127    67    66    2
   128    57    56    1
   129    36    38   am
   130    36    37    2
   131    70    66   am
   132    66    65    1
   133   175   176    1
   134   175   178    1
   135    33    34    2
   136    33    39   am
   137    58    56    1
   138    56    55    1
   139   176   177    2
   140    39    40    1
   141   178   179    1
   142    69    68    1
   143    55    52    1
   144    65    68    1
   145    65    64    1
   146   180   179    2
   147   179   181   am
   148    62    61    2
   149    48    47    2
   150    63    60    1
   151    52    53    1
   152    52    51    1
   153    59    60    1
   154    59    53   am
   155    40    41    1
   156    40    43    1
   157    41    42    2
   158    60    61    1
   159    47    51   am
   160    47    46    1
   161    53    54    2
   162    43    44    1
   163    45    46    1
   164   137   135   ar
   165   137   136   ar
   166    46    49    1
   167   135   133   ar
   168   136   134   ar
   169    49    50    1
   170   133   134   ar
   171   133   132    1
   172   132   129    1
   173   129   130    1
   174   129   128    1
   175   130   131    2
