@<TRIPOS>MOLECULE
tmp/3rhcB00.pdb
 106 105 0 0 0
SMALL
GASTEIGER

@<TRIPOS>ATOM
      1  N        -12.7050   -5.5370    1.6680 N.3    21  LYS21      -0.1245
      2  CA       -11.6180   -5.6190    0.6170 C.3    21  LYS21       0.1561
      3  C        -11.7430   -4.4620   -0.2490 C.2    21  LYS21       0.2260
      4  O        -12.8760   -4.0960   -0.5860 O.2    21  LYS21      -0.2867
      5  CB       -11.6030   -6.9170   -0.1260 C.3    21  LYS21       0.0271
      6  CG       -10.9220   -7.9430    0.7200 C.3    21  LYS21       0.0035
      7  CD       -11.3510   -9.3040    0.3700 C.3    21  LYS21       0.0206
      8  CE       -10.5420  -10.3240    1.2320 C.3    21  LYS21       0.1093
      9  NZ       -10.8310  -11.8060    0.8700 N.3    21  LYS21      -0.1314
     10  N        -11.2680   -3.9120   -3.2010 N.3    23  TRP23      -0.1227
     11  CA       -11.6870   -4.0330   -4.5650 C.3    23  TRP23       0.1737
     12  C        -13.1790   -4.4690   -4.6760 C.2    23  TRP23       0.2595
     13  O        -13.6900   -4.6500   -5.7930 O.2    23  TRP23      -0.2718
     14  CB       -10.7830   -5.0490   -5.2370 C.3    23  TRP23       0.0564
     15  CG       -10.8780   -6.3830   -4.6540 C.ar   23  TRP23       0.0003
     16  CD1      -12.0140   -7.1900   -4.5260 C.ar   23  TRP23       0.0946
     17  CD2       -9.8000   -7.1130   -4.1100 C.ar   23  TRP23       0.0152
     18  NE1      -11.6680   -8.4080   -3.8580 N.ar   23  TRP23      -0.2442
     19  CE2      -10.3070   -8.3510   -3.6190 C.ar   23  TRP23       0.0810
     20  CE3       -8.4500   -6.8570   -4.0220 C.ar   23  TRP23       0.0012
     21  CZ2       -9.4880   -9.3140   -3.1070 C.ar   23  TRP23       0.0191
     22  CZ3       -7.6440   -7.7880   -3.4790 C.ar   23  TRP23       0.0001
     23  CH2       -8.1600   -9.0060   -3.0160 C.ar   23  TRP23       0.0015
     24  N        -13.8790   -4.5790   -3.5440 N.am   24  CYS24      -0.1970
     25  CA       -15.1610   -5.2740   -3.5050 C.3    24  CYS24       0.1712
     26  C        -16.3460   -4.2890   -3.5190 C.2    24  CYS24       0.2296
     27  O        -16.4640   -3.4500   -2.5880 O.2    24  CYS24      -0.2864
     28  CB       -15.1960   -6.2420   -2.2820 C.3    24  CYS24       0.0983
     29  SG       -16.9160   -6.9450   -2.0620 S.3    24  CYS24      -0.0798
     30  N        -19.5990   -4.8920   -3.0430 N.3    26  TYR26      -0.1241
     31  CA       -20.4540   -5.0640   -1.8530 C.3    26  TYR26       0.1605
     32  C        -19.9160   -4.2810   -0.6330 C.2    26  TYR26       0.2264
     33  O        -20.7020   -3.5780    0.0620 O.2    26  TYR26      -0.2867
     34  CB       -20.5230   -6.5300   -1.4420 C.3    26  TYR26       0.0534
     35  CG       -21.6190   -7.3080   -2.1210 C.ar   26  TYR26      -0.0201
     36  CD1      -22.1850   -8.3980   -1.5150 C.ar   26  TYR26      -0.0009
     37  CD2      -22.1050   -6.9130   -3.3310 C.ar   26  TYR26      -0.0009
     38  CE1      -23.2090   -9.1070   -2.1360 C.ar   26  TYR26       0.0417
     39  CE2      -23.0960   -7.5870   -3.9650 C.ar   26  TYR26       0.0417
     40  CZ       -23.6520   -8.6750   -3.3680 C.ar   26  TYR26       0.1957
     41  OH       -24.6500   -9.3280   -4.0330 O.3    26  TYR26      -0.2866
     42  N         -9.2180  -13.2200    8.1260 N.3    57  GLN57      -0.1245
     43  CA       -10.5090  -13.6900    7.5910 C.3    57  GLN57       0.1566
     44  C        -10.9620  -15.0310    8.1430 C.2    57  GLN57       0.2260
     45  O        -12.1850  -15.3070    8.2540 O.2    57  GLN57      -0.2867
     46  CB       -10.4970  -13.7250    6.0400 C.3    57  GLN57       0.0367
     47  CG       -11.8640  -13.5410    5.3680 C.3    57  GLN57       0.0905
     48  CD       -11.7910  -13.4680    3.8540 C.2    57  GLN57       0.2608
     49  OE1      -10.7570  -13.1400    3.2780 O.2    57  GLN57      -0.2717
     50  NE2      -12.9000  -13.7380    3.2070 N.am   57  GLN57      -0.0878
     51  N        -17.4760  -16.4500    6.3620 N.3    67  HIS67      -0.1226
     52  CA       -16.2210  -16.5410    5.5890 C.3    67  HIS67       0.1752
     53  C        -16.1580  -15.3390    4.6570 C.2    67  HIS67       0.2597
     54  O        -15.0910  -14.9210    4.2640 O.2    67  HIS67      -0.2718
     55  CB       -16.1070  -17.9300    4.8670 C.3    67  HIS67       0.0759
     56  CG       -15.5630  -17.8910    3.4490 C.ar   67  HIS67       0.0818
     57  ND1      -15.7900  -18.9180    2.5370 N.ar   67  HIS67      -0.2268
     58  CD2      -14.8220  -16.9590    2.7780 C.ar   67  HIS67       0.1154
     59  CE1      -15.2060  -18.6260    1.3820 C.ar   67  HIS67       0.1986
     60  NE2      -14.6180  -17.4410    1.4980 N.ar   67  HIS67      -0.2212
     61  N        -17.3030  -14.7670    4.3350 N.am   68  THR68      -0.1939
     62  CA       -17.3640  -13.7280    3.3410 C.3    68  THR68       0.2028
     63  C        -17.0590  -12.2990    3.8940 C.2    68  THR68       0.2642
     64  O        -17.0370  -12.0500    5.1510 O.2    68  THR68      -0.2714
     65  CB       -18.7240  -13.7000    2.6840 C.3    68  THR68       0.1808
     66  OG1      -19.6990  -13.3270    3.6560 O.3    68  THR68      -0.2208
     67  CG2      -19.0980  -15.0540    2.0140 C.3    68  THR68       0.0379
     68  N        -16.8080  -11.3890    2.9440 N.am   69  VAL69      -0.1963
     69  CA       -16.7750   -9.9930    3.1680 C.3    69  VAL69       0.1712
     70  C        -17.8950   -9.3950    2.3730 C.2    69  VAL69       0.2458
     71  O        -18.2410   -9.9260    1.3670 O.2    69  VAL69      -0.2730
     72  CB       -15.4280   -9.2890    2.7290 C.3    69  VAL69       0.0289
     73  CG1      -14.2800   -9.6810    3.6600 C.3    69  VAL69       0.0023
     74  CG2      -15.0900   -9.4380    1.1830 C.3    69  VAL69       0.0023
     75  N        -18.4510   -8.2500    2.8180 N.am   70  PRO70      -0.2727
     76  CA       -18.0250   -7.5150    4.0490 C.3    70  PRO70       0.1402
     77  C        -18.5680   -8.2030    5.3270 C.2    70  PRO70       0.2269
     78  O        -19.6290   -8.8560    5.2840 O.2    70  PRO70      -0.2865
     79  CB       -18.6270   -6.0910    3.8460 C.3    70  PRO70       0.0296
     80  CG       -19.9400   -6.3860    3.0300 C.3    70  PRO70       0.0237
     81  CD       -19.6210   -7.6290    2.1440 C.3    70  PRO70       0.0939
     82  N        -23.3460   -9.5080    6.7340 N.3    81  GLY81      -0.1210
     83  CA       -22.8470   -9.0670    5.4340 C.3    81  GLY81       0.1956
     84  C        -23.5510   -7.8850    4.8290 C.2    81  GLY81       0.2612
     85  O        -24.1720   -7.1260    5.5320 O.2    81  GLY81      -0.2717
     86  N        -23.4220   -7.7080    3.5140 N.am   82  CYS82      -0.1956
     87  CA       -23.9760   -6.5460    2.8210 C.3    82  CYS82       0.1843
     88  C        -25.5170   -6.5220    2.7660 C.2    82  CYS82       0.2626
     89  O        -26.1270   -5.5090    3.0740 O.2    82  CYS82      -0.2714
     90  CB       -23.4580   -6.4860    1.3930 C.3    82  CYS82       0.0997
     91  SG       -24.0350   -4.9630    0.5220 S.3    82  CYS82      -0.0797
     92  N        -26.1400   -7.6280    2.3780 N.am   83  THR83      -0.1936
     93  CA       -27.6070   -7.6370    2.1840 C.3    83  THR83       0.2028
     94  C        -28.2760   -7.6690    3.5460 C.2    83  THR83       0.2642
     95  O        -29.2800   -7.0050    3.7850 O.2    83  THR83      -0.2714
     96  CB       -28.0640   -8.8470    1.3670 C.3    83  THR83       0.1808
     97  OG1      -27.4850  -10.0070    1.9740 O.3    83  THR83      -0.2208
     98  CG2      -27.6050   -8.7100   -0.1090 C.3    83  THR83       0.0379
     99  N        -27.6860   -8.4280    4.4420 N.am   84  ASP84      -0.1971
    100  CA       -28.0660   -8.3810    5.8200 C.3    84  ASP84       0.1709
    101  C        -28.0540   -6.8970    6.3500 C.2    84  ASP84       0.2293
    102  O        -29.0410   -6.4480    6.9300 O.2    84  ASP84      -0.2864
    103  CB       -27.2250   -9.3770    6.6540 C.3    84  ASP84       0.1436
    104  CG       -26.4740  -10.4720    5.7810 C.2    84  ASP84       0.3671
    105  OD1      -26.0780  -10.2350    4.5680 O.co2  84  ASP84      -0.2456
    106  OD2      -26.2150  -11.5680    6.3660 O.co2  84  ASP84      -0.2456
@<TRIPOS>BOND
     1    13    12    2
     2    14    15    1
     3    14    11    1
     4    12    11    1
     5    12    24   am
     6    15    16   ar
     7    15    17   ar
     8    11    10    1
     9    16    18   ar
    10    17    20   ar
    11    17    19   ar
    12    41    40    1
    13    20    22   ar
    14    39    40   ar
    15    39    37   ar
    16    18    19   ar
    17    19    21   ar
    18    24    25    1
    19    26    25    1
    20    26    27    2
    21    25    28    1
    22    22    23   ar
    23    40    38   ar
    24    37    35   ar
    25    21    23   ar
    26    30    31    1
    27    28    29    1
    28    38    36   ar
    29    35    36   ar
    30    35    34    1
    31    31    34    1
    32    31    32    1
    33    32    33    2
    34     4     3    2
    35     3     2    1
    36     5     2    1
    37     5     6    1
    38    98    96    1
    39     7     6    1
    40     7     8    1
    41    91    90    1
    42     2     1    1
    43     9     8    1
    44    74    72    1
    45    71    70    2
    46    96    97    1
    47    96    93    1
    48    59    60   ar
    49    59    57   ar
    50    90    87    1
    51    60    58   ar
    52    67    65    1
    53    81    75    1
    54    81    80    1
    55    93    92    1
    56    93    94    1
    57    70    75   am
    58    70    69    1
    59    92    88   am
    60    57    56   ar
    61    65    62    1
    62    65    66    1
    63    72    69    1
    64    72    73    1
    65    88    87    1
    66    88    89    2
    67    58    56   ar
    68    75    76    1
    69    87    86    1
    70    68    69    1
    71    68    63   am
    72    80    79    1
    73    50    48   am
    74    49    48    2
    75    62    63    1
    76    62    61    1
    77    56    55    1
    78    86    84   am
    79    94    95    2
    80    94    99   am
    81    79    76    1
    82    48    47    1
    83    63    64    2
    84    76    77    1
    85    54    53    2
    86    61    53   am
    87    99   100    1
    88   105   104   ar
    89    53    52    1
    90    84    83    1
    91    84    85    2
    92    55    52    1
    93    78    77    2
    94    47    46    1
    95    83    82    1
    96    52    51    1
    97   104   106   ar
    98   104   103    1
    99   100   101    1
   100   100   103    1
   101    46    43    1
   102   101   102    2
   103    43    42    1
   104    43    44    1
   105    44    45    2
