@<TRIPOS>MOLECULE
tmp/3rhdA00.pdb
 172 166 0 0 0
SMALL
GASTEIGER

@<TRIPOS>ATOM
      1  N          8.3680  -17.6430   14.1880 N.3   129  ILE129     -0.1231
      2  CA         7.0830  -17.0900   13.7700 C.3   129  ILE129      0.1692
      3  C          6.2520  -16.8310   15.0080 C.2   129  ILE129      0.2593
      4  O          6.0050  -17.7350   15.8150 O.2   129  ILE129     -0.2718
      5  CB         6.3480  -17.9830   12.7470 C.3   129  ILE129      0.0266
      6  CG1        7.2220  -18.2070   11.5040 C.3   129  ILE129      0.0019
      7  CG2        5.0190  -17.3400   12.3280 C.3   129  ILE129      0.0020
      8  CD1        6.7330  -19.3470   10.5950 C.3   129  ILE129      0.0001
      9  N          5.8530  -15.5770   15.1700 N.am  130  THR130     -0.1940
     10  CA         5.2910  -15.1410   16.4480 C.3   130  THR130      0.2013
     11  C          3.8760  -14.6100   16.2830 C.2   130  THR130      0.2484
     12  O          3.4690  -14.2740   15.1500 O.2   130  THR130     -0.2729
     13  CB         6.2090  -14.1170   17.1400 C.3   130  THR130      0.1807
     14  OG1        6.4270  -13.0000   16.2610 O.3   130  THR130     -0.2208
     15  CG2        7.5540  -14.7730   17.4780 C.3   130  THR130      0.0379
     16  N          3.1130  -14.5830   17.4030 N.am  131  PRO131     -0.2715
     17  CA         1.7040  -14.2240   17.4530 C.3   131  PRO131      0.1536
     18  C          1.4540  -12.7770   17.8770 C.2   131  PRO131      0.2598
     19  O          2.3920  -12.0670   18.3110 O.2   131  PRO131     -0.2715
     20  CB         1.1750  -15.1500   18.5450 C.3   131  PRO131      0.0310
     21  CG         2.2760  -15.1540   19.5130 C.3   131  PRO131      0.0237
     22  CD         3.5550  -15.1140   18.7120 C.3   131  PRO131      0.0939
     23  N          0.1830  -12.3810   17.7910 N.am  132  PHE132     -0.1974
     24  CA        -0.2410  -11.0240   18.0810 C.3   132  PHE132      0.1639
     25  C         -0.2830  -10.7020   19.5750 C.2   132  PHE132      0.2290
     26  O         -0.1970   -9.5380   19.9430 O.2   132  PHE132     -0.2864
     27  CB        -1.6120  -10.7310   17.4420 C.3   132  PHE132      0.0560
     28  CG        -2.7960  -11.2950   18.2100 C.ar  132  PHE132     -0.0200
     29  CD1       -3.3440  -10.6080   19.2870 C.ar  132  PHE132     -0.0042
     30  CD2       -3.3630  -12.5120   17.8430 C.ar  132  PHE132     -0.0042
     31  CE1       -4.4340  -11.1240   19.9950 C.ar  132  PHE132     -0.0003
     32  CE2       -4.4550  -13.0370   18.5440 C.ar  132  PHE132     -0.0003
     33  CZ        -4.9920  -12.3330   19.6190 C.ar  132  PHE132     -0.0000
     34  N          9.1390  -13.9480   11.1940 N.3   156  HIS156     -0.1241
     35  CA         7.8960  -13.3150   10.7710 C.3   156  HIS156      0.1621
     36  C          7.0180  -12.9770   11.9720 C.2   156  HIS156      0.2264
     37  O          6.6470  -13.8600   12.7360 O.2   156  HIS156     -0.2867
     38  CB         7.0900  -14.1880    9.8120 C.3   156  HIS156      0.0745
     39  CG         5.7450  -13.6150    9.5100 C.ar  156  HIS156      0.0817
     40  ND1        5.5750  -12.5180    8.6950 N.ar  156  HIS156     -0.2268
     41  CD2        4.5130  -13.9440    9.9620 C.ar  156  HIS156      0.1154
     42  CE1        4.2910  -12.2100    8.6370 C.ar  156  HIS156      0.1986
     43  NE2        3.6260  -13.0590    9.4000 N.ar  156  HIS156     -0.2212
     44  N          3.3860  -11.4470   13.6870 N.3   158  SER158     -0.1202
     45  CA         1.9580  -11.3520   13.3430 C.3   158  SER158      0.2020
     46  C          1.6060  -10.0260   12.6520 C.2   158  SER158      0.2619
     47  O          2.0620   -8.9570   13.0620 O.2   158  SER158     -0.2717
     48  CB         1.0890  -11.5340   14.5880 C.3   158  SER158      0.2103
     49  OG        -0.2870  -11.3330   14.2910 O.3   158  SER158     -0.2182
     50  N          0.7680  -10.0970   11.6180 N.am  159  SER159     -0.1937
     51  CA         0.3280   -8.8950   10.9120 C.3   159  SER159      0.2055
     52  C         -0.6950   -8.1100   11.7310 C.2   159  SER159      0.2642
     53  O         -1.0290   -6.9600   11.4020 O.2   159  SER159     -0.2714
     54  CB        -0.2490   -9.2520    9.5500 C.3   159  SER159      0.2130
     55  OG         0.7400   -9.8850    8.7630 O.3   159  SER159     -0.2179
     56  N         -1.1790   -8.7240   12.8050 N.am  160  LYS160     -0.1977
     57  CA        -2.2210   -8.1010   13.6040 C.3   160  LYS160      0.1596
     58  C         -1.6480   -7.0700   14.5890 C.2   160  LYS160      0.2287
     59  O         -2.3520   -6.1270   14.9590 O.2   160  LYS160     -0.2864
     60  CB        -3.0340   -9.1510   14.3490 C.3   160  LYS160      0.0298
     61  CG        -3.8940  -10.0560   13.4920 C.3   160  LYS160      0.0038
     62  CD        -4.4310  -11.2210   14.3610 C.3   160  LYS160      0.0206
     63  CE        -5.4380  -12.0990   13.6450 C.3   160  LYS160      0.1093
     64  NZ        -4.8240  -12.8920   12.5650 N.3   160  LYS160     -0.1314
     65  N          2.0390  -11.1960    4.5630 N.3   192  ALA192     -0.1231
     66  CA         1.0950  -12.2960    4.7840 C.3   192  ALA192      0.1694
     67  C          1.8270  -13.5040    5.3190 C.2   192  ALA192      0.2593
     68  O          2.7250  -14.0280    4.6580 O.2   192  ALA192     -0.2718
     69  CB         0.3540  -12.6580    3.4760 C.3   192  ALA192      0.0304
     70  N          1.4510  -13.9340    6.5190 N.am  193  GLY193     -0.1942
     71  CA         2.0500  -15.1090    7.1570 C.3   193  GLY193      0.2014
     72  C          1.9860  -16.3560    6.2920 C.2   193  GLY193      0.2638
     73  O          2.9260  -17.1530    6.2820 O.2   193  GLY193     -0.2714
     74  N          0.9000  -16.5080    5.5320 N.am  194  GLU194     -0.1977
     75  CA         0.7630  -17.6580    4.6290 C.3   194  GLU194      0.1602
     76  C          1.6760  -17.5550    3.4070 C.2   194  GLU194      0.2287
     77  O          1.8670  -18.5340    2.6890 O.2   194  GLU194     -0.2864
     78  CB        -0.7020  -17.9220    4.2320 C.3   194  GLU194      0.0415
     79  CG        -1.2970  -16.9610    3.2120 C.3   194  GLU194      0.1163
     80  CD        -2.7140  -17.3670    2.7960 C.2   194  GLU194      0.3649
     81  OE1       -3.6780  -16.8950    3.4400 O.co2 194  GLU194     -0.2457
     82  OE2       -2.8640  -18.1630    1.8430 O.co2 194  GLU194     -0.2457
     83  N          5.6070  -16.3380    6.2490 N.3   197  GLY197     -0.1210
     84  CA         5.7980  -17.3420    7.2910 C.3   197  GLY197      0.1956
     85  C          5.8980  -18.7210    6.6570 C.2   197  GLY197      0.2611
     86  O          6.7780  -19.5150    6.9940 O.2   197  GLY197     -0.2717
     87  N          5.0020  -18.9950    5.7120 N.am  198  ASP198     -0.1973
     88  CA         5.0360  -20.2580    4.9950 C.3   198  ASP198      0.1709
     89  C          6.3930  -20.5050    4.3350 C.2   198  ASP198      0.2293
     90  O          6.9160  -21.6110    4.3960 O.2   198  ASP198     -0.2864
     91  CB         3.9230  -20.3180    3.9680 C.3   198  ASP198      0.1436
     92  CG         3.8950  -21.6140    3.2440 C.2   198  ASP198      0.3671
     93  OD1        3.5330  -22.6140    3.8790 O.co2 198  ASP198     -0.2456
     94  OD2        4.2470  -21.6390    2.0430 O.co2 198  ASP198     -0.2456
     95  N          8.7740  -21.7220    6.8090 N.3   201  VAL201     -0.1245
     96  CA         8.4670  -23.1040    7.1370 C.3   201  VAL201      0.1561
     97  C          8.9370  -24.0630    6.0520 C.2   201  VAL201      0.2260
     98  O          9.4460  -25.1550    6.3380 O.2   201  VAL201     -0.2867
     99  CB         6.9600  -23.2600    7.3700 C.3   201  VAL201      0.0252
    100  CG1        6.5430  -24.7540    7.4530 C.3   201  VAL201      0.0019
    101  CG2        6.5610  -22.4940    8.6230 C.3   201  VAL201      0.0019
    102  N          7.4720  -21.9480   16.2080 N.3   211  PHE211     -0.1227
    103  CA         6.1550  -21.3530   15.9050 C.3   211  PHE211      0.1736
    104  C          5.2970  -21.2460   17.1700 C.2   211  PHE211      0.2596
    105  O          5.1780  -22.2030   17.9370 O.2   211  PHE211     -0.2718
    106  CB         5.4090  -22.1480   14.8050 C.3   211  PHE211      0.0547
    107  CG         3.9950  -21.6580   14.5290 C.ar  211  PHE211     -0.0202
    108  CD1        3.7650  -20.6090   13.6410 C.ar  211  PHE211     -0.0042
    109  CD2        2.9010  -22.2540   15.1540 C.ar  211  PHE211     -0.0042
    110  CE1        2.4730  -20.1470   13.3850 C.ar  211  PHE211     -0.0003
    111  CE2        1.5920  -21.8120   14.9040 C.ar  211  PHE211     -0.0003
    112  CZ         1.3780  -20.7470   14.0150 C.ar  211  PHE211     -0.0000
    113  N          4.7370  -20.0560   17.3910 N.am  212  THR212     -0.1939
    114  CA         3.7230  -19.8510   18.4210 C.3   212  THR212      0.2028
    115  C          2.5750  -19.1990   17.6890 C.2   212  THR212      0.2643
    116  O          2.7630  -18.2240   16.9440 O.2   212  THR212     -0.2714
    117  CB         4.2480  -18.9770   19.5960 C.3   212  THR212      0.1808
    118  OG1        5.3660  -19.6290   20.2110 O.3   212  THR212     -0.2208
    119  CG2        3.1690  -18.7470   20.6650 C.3   212  THR212      0.0379
    120  N          1.3870  -19.7660   17.8730 N.am  213  GLY213     -0.1939
    121  CA         0.2160  -19.3650   17.1300 C.3   213  GLY213      0.2014
    122  C         -0.9110  -20.3710   17.2650 C.2   213  GLY213      0.2639
    123  O         -1.0250  -21.0610   18.2870 O.2   213  GLY213     -0.2714
    124  N         -1.7540  -20.4410   16.2380 N.am  214  SER214     -0.1949
    125  CA        -2.9600  -21.2540   16.2910 C.3   214  SER214      0.1924
    126  C         -2.6600  -22.7160   15.9590 C.2   214  SER214      0.2314
    127  O         -1.6890  -23.0250   15.2560 O.2   214  SER214     -0.2863
    128  CB        -4.0260  -20.6860   15.3460 C.3   214  SER214      0.2116
    129  OG        -3.6100  -20.7840   13.9890 O.3   214  SER214     -0.2180
    130  N         -2.6650  -23.6750   12.0590 N.3   217  VAL217     -0.1245
    131  CA        -1.4280  -23.3510   11.3620 C.3   217  VAL217      0.1561
    132  C         -0.3090  -24.2650   11.8660 C.2   217  VAL217      0.2260
    133  O          0.4220  -24.8420   11.0690 O.2   217  VAL217     -0.2867
    134  CB        -1.0620  -21.8450   11.5230 C.3   217  VAL217      0.0252
    135  CG1        0.2090  -21.5120   10.7560 C.3   217  VAL217      0.0019
    136  CG2       -2.2120  -20.9700   11.0400 C.3   217  VAL217      0.0019
    137  N         -0.6140  -27.6730   10.3230 N.3   220  LEU220     -0.1231
    138  CA        -0.1800  -27.5980    8.9390 C.3   220  LEU220      0.1693
    139  C          1.3580  -27.6110    8.8410 C.2   220  LEU220      0.2591
    140  O          1.9270  -28.3090    7.9970 O.2   220  LEU220     -0.2718
    141  CB        -0.7660  -26.3580    8.2430 C.3   220  LEU220      0.0284
    142  CG        -1.4770  -26.5190    6.8860 C.3   220  LEU220      0.0019
    143  CD1       -0.9580  -27.7250    6.0930 C.3   220  LEU220      0.0001
    144  CD2       -2.9970  -26.6240    7.0560 C.3   220  LEU220      0.0001
    145  N          2.0200  -26.8690    9.7230 N.am  221  ILE221     -0.1980
    146  CA         3.4840  -26.7850    9.7200 C.3   221  ILE221      0.1595
    147  C          4.1560  -28.1560    9.8860 C.2   221  ILE221      0.2287
    148  O          5.1570  -28.4470    9.2220 O.2   221  ILE221     -0.2864
    149  CB         3.9940  -25.7580   10.7470 C.3   221  ILE221      0.0276
    150  CG1        3.6380  -24.3440   10.2710 C.3   221  ILE221      0.0022
    151  CG2        5.4980  -25.9000   10.9570 C.3   221  ILE221      0.0022
    152  CD1        4.0510  -23.2240   11.2150 C.3   221  ILE221      0.0001
    153  N          4.3410  -29.6500    6.6000 N.3   224  LYS224     -0.1245
    154  CA         5.0180  -28.8410    5.5750 C.3   224  LYS224      0.1561
    155  C          6.4840  -28.5320    5.8530 C.2   224  LYS224      0.2260
    156  O          7.2340  -28.2480    4.9230 O.2   224  LYS224     -0.2867
    157  CB         4.2330  -27.5510    5.2850 C.3   224  LYS224      0.0271
    158  CG         3.2460  -27.7210    4.1410 C.3   224  LYS224      0.0035
    159  CD         1.9910  -26.8570    4.2990 C.3   224  LYS224      0.0206
    160  CE         2.1670  -25.4310    3.7770 C.3   224  LYS224      0.1093
    161  NZ         2.4900  -25.3340    2.3200 N.3   224  LYS224     -0.1314
    162  N        -10.3140  -17.1280   22.5900 N.3   362  PHE362     -0.1241
    163  CA        -9.4230  -15.9600   22.6190 C.3   362  PHE362      0.1605
    164  C        -10.2460  -14.6930   22.8540 C.2   362  PHE362      0.2264
    165  O        -10.2120  -13.7380   22.0630 O.2   362  PHE362     -0.2867
    166  CB        -8.5930  -15.8660   21.3240 C.3   362  PHE362      0.0534
    167  CG        -7.1570  -16.3180   21.4730 C.ar  362  PHE362     -0.0203
    168  CD1       -6.7650  -17.1300   22.5250 C.ar  362  PHE362     -0.0042
    169  CD2       -6.2060  -15.9390   20.5400 C.ar  362  PHE362     -0.0042
    170  CE1       -5.4470  -17.5420   22.6620 C.ar  362  PHE362     -0.0003
    171  CE2       -4.8830  -16.3540   20.6570 C.ar  362  PHE362     -0.0003
    172  CZ        -4.5060  -17.1590   21.7290 C.ar  362  PHE362     -0.0000
@<TRIPOS>BOND
     1    82    80   ar
     2    94    92   ar
     3   161   160    1
     4    77    76    2
     5    80    79    1
     6    80    81   ar
     7    79    78    1
     8    92    93   ar
     9    92    91    1
    10    76    75    1
    11    69    66    1
    12   160   159    1
    13    91    88    1
    14   158   159    1
    15   158   157    1
    16    78    75    1
    17    89    90    2
    18    89    88    1
    19    65    66    1
    20    75    74    1
    21    68    67    2
    22    66    67    1
    23   156   155    2
    24    88    87    1
    25   157   154    1
    26    67    70   am
    27    74    72   am
    28   154   155    1
    29   154   153    1
    30    87    85   am
    31    97    98    2
    32    97    96    1
    33   143   142    1
    34    83    84    1
    35    73    72    2
    36    72    71    1
    37    70    71    1
    38    85    86    2
    39    85    84    1
    40    95    96    1
    41   142   144    1
    42   142   141    1
    43    96    99    1
    44    99   100    1
    45    99   101    1
    46   140   139    2
    47   141   138    1
    48    42    40   ar
    49    42    43   ar
    50    40    39   ar
    51    55    54    1
    52   139   138    1
    53   139   145   am
    54   138   137    1
    55   148   147    2
    56    43    41   ar
    57    39    38    1
    58    39    41   ar
    59    54    51    1
    60   146   145    1
    61   146   147    1
    62   146   149    1
    63    38    35    1
    64   150   149    1
    65   150   152    1
    66     8     6    1
    67   149   151    1
    68   135   134    1
    69    35    34    1
    70    35    36    1
    71    51    50    1
    72    51    52    1
    73   136   134    1
    74   133   132    2
    75   131   134    1
    76   131   132    1
    77   131   130    1
    78    53    52    2
    79     6     5    1
    80    50    46   am
    81    52    56   am
    82    36    37    2
    83     7     5    1
    84    64    63    1
    85    46    47    2
    86    46    45    1
    87     5     2    1
    88    56    57    1
    89    45    44    1
    90    45    48    1
    91   110   108   ar
    92   110   112   ar
    93    61    60    1
    94    61    62    1
    95    57    60    1
    96    57    58    1
    97   108   107   ar
    98    63    62    1
    99     2     1    1
   100     2     3    1
   101   129   128    1
   102   112   111   ar
   103    49    48    1
   104   107   106    1
   105   107   109   ar
   106    58    59    2
   107   106   103    1
   108   111   109   ar
   109     3     9   am
   110     3     4    2
   111    12    11    2
   112     9    10    1
   113   127   126    2
   114   128   125    1
   115   103   102    1
   116   103   104    1
   117   126   125    1
   118   124   125    1
   119   124   122   am
   120    14    13    1
   121    11    10    1
   122    11    16   am
   123    10    13    1
   124   116   115    2
   125   121   122    1
   126   121   120    1
   127    13    15    1
   128   104   113   am
   129   104   105    2
   130   122   123    2
   131   113   114    1
   132    16    17    1
   133    16    22    1
   134    27    24    1
   135    27    28    1
   136    17    18    1
   137    17    20    1
   138   115   120   am
   139   115   114    1
   140    23    18   am
   141    23    24    1
   142    30    28   ar
   143    30    32   ar
   144    18    19    2
   145    24    25    1
   146    28    29   ar
   147   114   117    1
   148    32    33   ar
   149    20    21    1
   150    22    21    1
   151    29    31   ar
   152    25    26    2
   153   117   118    1
   154   117   119    1
   155    33    31   ar
   156   169   171   ar
   157   169   167   ar
   158   171   172   ar
   159   166   167    1
   160   166   163    1
   161   167   168   ar
   162   172   170   ar
   163   165   164    2
   164   168   170   ar
   165   162   163    1
   166   163   164    1
