@<TRIPOS>MOLECULE
tmp/3rhfA00.pdb
 82 77 0 0 0
SMALL
GASTEIGER

@<TRIPOS>ATOM
      1  N         53.8850   23.5740   85.6010 N.3    11  ALA11      -0.1245
      2  CA        54.0980   22.3640   86.3980 C.3    11  ALA11       0.1562
      3  C         53.2300   21.2440   85.8120 C.2    11  ALA11       0.2260
      4  O         53.4460   20.0690   86.0820 O.2    11  ALA11      -0.2867
      5  CB        53.7710   22.6070   87.8610 C.3    11  ALA11       0.0290
      6  N         63.0510   21.5140   97.7120 N.3   171  THR171     -0.1203
      7  CA        62.1820   21.3180   96.5590 C.3   171  THR171      0.1994
      8  C         62.9960   21.3600   95.2730 C.2   171  THR171      0.2618
      9  O         63.6300   22.3850   94.9600 O.2   171  THR171     -0.2717
     10  CB        61.0780   22.3580   96.4790 C.3   171  THR171      0.1784
     11  OG1       60.2990   22.3050   97.6860 O.3   171  THR171     -0.2211
     12  CG2       60.1620   22.0620   95.2690 C.3   171  THR171      0.0376
     13  N         62.9490   20.2710   94.4990 N.am  172  ILE172     -0.1965
     14  CA        63.8160   20.1600   93.3190 C.3   172  ILE172      0.1727
     15  C         63.0440   20.4560   92.0830 C.2   172  ILE172      0.2616
     16  O         62.1290   19.7340   91.7520 O.2   172  ILE172     -0.2715
     17  CB        64.4860   18.7390   93.1700 C.3   172  ILE172      0.0290
     18  CG1       65.4190   18.4680   94.3530 C.3   172  ILE172      0.0022
     19  CG2       65.2350   18.5880   91.7750 C.3   172  ILE172      0.0023
     20  CD1       65.8260   16.9730   94.5030 C.3   172  ILE172      0.0001
     21  N         63.4440   21.5070   91.3830 N.am  173  VAL173     -0.1977
     22  CA        62.8450   21.8680   90.0930 C.3   173  VAL173      0.1596
     23  C         63.7720   21.5200   88.9240 C.2   173  VAL173      0.2287
     24  O         64.7770   22.2270   88.7120 O.2   173  VAL173     -0.2864
     25  CB        62.5640   23.3500   90.0260 C.3   173  VAL173      0.0276
     26  CG1       62.2000   23.7220   88.6310 C.3   173  VAL173      0.0022
     27  CG2       61.4330   23.7190   90.9900 C.3   173  VAL173      0.0022
     28  N         57.4900   11.4740   91.1060 N.3   227  GLU227     -0.1231
     29  CA        56.5320   12.3000   91.8080 C.3   227  GLU227      0.1699
     30  C         57.2150   13.4140   92.6610 C.2   227  GLU227      0.2592
     31  O         56.7650   14.5380   92.6320 O.2   227  GLU227     -0.2718
     32  CB        55.5820   11.4260   92.6610 C.3   227  GLU227      0.0402
     33  CG        54.7450   10.4660   91.8530 C.3   227  GLU227      0.1161
     34  CD        53.7390   11.1020   90.9500 C.2   227  GLU227      0.3649
     35  OE1       53.4150   12.3090   91.1040 O.co2 227  GLU227     -0.2457
     36  OE2       53.1870   10.3390   90.1420 O.co2 227  GLU227     -0.2457
     37  N         58.2900   13.1140   93.3970 N.am  228  ILE228     -0.1980
     38  CA        58.9550   14.1420   94.2200 C.3   228  ILE228      0.1595
     39  C         59.9530   15.0180   93.4340 C.2   228  ILE228      0.2287
     40  O         60.2940   16.1230   93.8770 O.2   228  ILE228     -0.2864
     41  CB        59.6900   13.5640   95.4900 C.3   228  ILE228      0.0276
     42  CG1       60.9110   12.7170   95.1180 C.3   228  ILE228      0.0022
     43  CG2       58.7160   12.7870   96.3810 C.3   228  ILE228      0.0022
     44  CD1       61.3230   11.7730   96.1650 C.3   228  ILE228      0.0001
     45  N         59.8970   15.7080   89.4990 N.3   230  PRO230     -0.2116
     46  CA        59.5100   15.5490   88.1310 C.3   230  PRO230      0.1372
     47  C         60.4960   16.2300   87.2400 C.2   230  PRO230      0.2244
     48  O         61.0620   17.2490   87.6540 O.2   230  PRO230     -0.2868
     49  CB        58.1770   16.2870   88.0510 C.3   230  PRO230      0.0268
     50  CG        57.7270   16.4750   89.4440 C.3   230  PRO230      0.0207
     51  CD        58.9690   16.5820   90.2270 C.3   230  PRO230      0.0892
     52  N         60.8530   18.4920   83.7370 N.3   232  HIS232     -0.1241
     53  CA        60.0490   19.3160   82.8930 C.3   232  HIS232      0.1621
     54  C         60.8590   19.5900   81.6550 C.2   232  HIS232      0.2264
     55  O         62.0320   19.8900   81.7430 O.2   232  HIS232     -0.2867
     56  CB        59.7030   20.6330   83.5620 C.3   232  HIS232      0.0745
     57  CG        59.0320   20.4810   84.8840 C.ar  232  HIS232      0.0817
     58  ND1       59.7370   20.3320   86.0510 N.ar  232  HIS232     -0.2268
     59  CD2       57.7200   20.4610   85.2230 C.ar  232  HIS232      0.1154
     60  CE1       58.8840   20.2080   87.0510 C.ar  232  HIS232      0.1986
     61  NE2       57.6540   20.3000   86.5760 N.ar  232  HIS232     -0.2212
     62  N         57.8840   28.2410   86.7980 N.3   249  LEU249     -0.1245
     63  CA        58.1340   26.9670   87.5100 C.3   249  LEU249      0.1561
     64  C         58.7030   27.1890   88.8970 C.2   249  LEU249      0.2260
     65  O         58.2590   26.5660   89.8740 O.2   249  LEU249     -0.2867
     66  CB        59.0930   26.0900   86.7000 C.3   249  LEU249      0.0270
     67  CG        58.4650   25.2080   85.6160 C.3   249  LEU249      0.0019
     68  CD1       59.5820   24.5230   84.8760 C.3   249  LEU249      0.0001
     69  CD2       57.4640   24.1520   86.1440 C.3   249  LEU249      0.0001
     70  N         55.9510   28.9280   91.1560 N.3   252  ASP252     -0.1225
     71  CA        54.9190   27.9850   91.5440 C.3   252  ASP252      0.1805
     72  C         55.4890   26.9970   92.5920 C.2   252  ASP252      0.2597
     73  O         54.7990   26.6430   93.5180 O.2   252  ASP252     -0.2718
     74  CB        54.3970   27.2370   90.3210 C.3   252  ASP252      0.1424
     75  CG        53.5610   28.1370   89.3330 C.2   252  ASP252      0.3668
     76  OD1       53.3000   29.3610   89.5660 O.co2 252  ASP252     -0.2456
     77  OD2       53.1250   27.5640   88.2900 O.co2 252  ASP252     -0.2456
     78  N         56.7470   26.5760   92.4360 N.am  253  ALA253     -0.1979
     79  CA        57.4470   25.7440   93.4340 C.3   253  ALA253      0.1597
     80  C         57.5900   26.4990   94.7820 C.2   253  ALA253      0.2287
     81  O         57.3230   25.9450   95.8400 O.2   253  ALA253     -0.2864
     82  CB        58.8130   25.3190   92.9170 C.3   253  ALA253      0.0319
@<TRIPOS>BOND
     1    54    55    2
     2    54    53    1
     3    53    56    1
     4    53    52    1
     5    56    57    1
     6    68    67    1
     7    57    59   ar
     8    57    58   ar
     9    59    61   ar
    10     1     2    1
    11    67    69    1
    12    67    66    1
    13     3     4    2
    14     3     2    1
    15    58    60   ar
    16     2     5    1
    17    61    60   ar
    18    66    63    1
    19    62    63    1
    20    47    48    2
    21    47    46    1
    22    63    64    1
    23    49    46    1
    24    49    50    1
    25    46    45    1
    26    77    75   ar
    27    26    25    1
    28    24    23    2
    29    64    65    2
    30    23    22    1
    31    75    76   ar
    32    75    74    1
    33    50    51    1
    34    45    51    1
    35    25    22    1
    36    25    27    1
    37    22    21    1
    38    36    34   ar
    39    74    71    1
    40    34    35   ar
    41    34    33    1
    42    28    29    1
    43    70    71    1
    44    21    15   am
    45    71    72    1
    46    16    15    2
    47    19    17    1
    48    29    30    1
    49    29    32    1
    50    33    32    1
    51    15    14    1
    52    78    72   am
    53    78    79    1
    54    72    73    2
    55    31    30    2
    56    30    37   am
    57    82    79    1
    58    17    14    1
    59    17    18    1
    60    14    13    1
    61    37    38    1
    62    79    80    1
    63    39    40    2
    64    39    38    1
    65    38    41    1
    66    18    20    1
    67    13     8   am
    68    80    81    2
    69     9     8    2
    70    42    41    1
    71    42    44    1
    72    12    10    1
    73     8     7    1
    74    41    43    1
    75    10     7    1
    76    10    11    1
    77     7     6    1
