@<TRIPOS>MOLECULE
tmp/3rhfC01.pdb
 102 95 0 0 0
SMALL
GASTEIGER

@<TRIPOS>ATOM
      1  N         75.5970   49.8520  108.5030 N.3    75  ASP75      -0.1225
      2  CA        74.3680   49.1320  108.2270 C.3    75  ASP75       0.1805
      3  C         73.2700   50.1360  107.9530 C.2    75  ASP75       0.2598
      4  O         73.2980   51.2630  108.4400 O.2    75  ASP75      -0.2718
      5  CB        73.9350   48.2090  109.3620 C.3    75  ASP75       0.1424
      6  CG        74.7820   46.8970  109.4510 C.2    75  ASP75       0.3668
      7  OD1       75.6030   46.5950  108.5530 O.co2  75  ASP75      -0.2456
      8  OD2       74.6240   46.1480  110.4450 O.co2  75  ASP75      -0.2456
      9  N         72.3180   49.6980  107.1310 N.am   76  THR76      -0.1939
     10  CA        71.2060   50.5190  106.7030 C.3    76  THR76       0.2028
     11  C         71.4610   51.3920  105.4730 C.2    76  THR76       0.2642
     12  O         70.5320   51.9900  104.8770 O.2    76  THR76      -0.2714
     13  CB        70.8320   51.4550  107.8440 C.3    76  THR76       0.1808
     14  OG1       69.5030   51.7620  107.6430 O.3    76  THR76      -0.2208
     15  CG2       71.5530   52.7810  107.8060 C.3    76  THR76       0.0379
     16  N         72.7300   51.4830  105.0990 N.am   77  ALA77      -0.1963
     17  CA        73.1680   52.4520  104.1130 C.3    77  ALA77       0.1728
     18  C         73.0040   52.0140  102.6710 C.2    77  ALA77       0.2617
     19  O         73.3060   52.7820  101.7960 O.2    77  ALA77      -0.2715
     20  CB        74.5720   52.8820  104.3740 C.3    77  ALA77       0.0334
     21  N         72.4690   50.8270  102.4100 N.am   78  GLY78      -0.1940
     22  CA        72.1260   50.4120  101.0470 C.3    78  GLY78       0.2014
     23  C         73.1070   49.4510  100.3510 C.2    78  GLY78       0.2639
     24  O         72.8970   49.0650   99.1990 O.2    78  GLY78      -0.2714
     25  N         74.1740   49.0870  101.0360 N.am   79  LYS79      -0.1963
     26  CA        75.2980   48.3080  100.4620 C.3    79  LYS79       0.1728
     27  C         74.8510   46.9670   99.8160 C.2    79  LYS79       0.2617
     28  O         75.1240   46.7130   98.6240 O.2    79  LYS79      -0.2715
     29  CB        76.3230   48.1200  101.5880 C.3    79  LYS79       0.0311
     30  CG        77.6220   47.3670  101.3140 C.3    79  LYS79       0.0038
     31  CD        78.4420   47.1490  102.7090 C.3    79  LYS79       0.0206
     32  CE        77.6260   46.3620  103.8200 C.3    79  LYS79       0.1093
     33  NZ        77.1940   47.1760  105.1260 N.3    79  LYS79      -0.1314
     34  N         74.0960   46.1500  100.5540 N.am   80  GLY80      -0.1940
     35  CA        73.5500   44.9230  100.0050 C.3    80  GLY80       0.2014
     36  C         72.6770   45.1420   98.7870 C.2    80  GLY80       0.2639
     37  O         72.7690   44.4560   97.7960 O.2    80  GLY80      -0.2714
     38  N         71.8020   46.1100   98.8700 N.am   81  GLY81      -0.1954
     39  CA        70.9790   46.4910   97.7450 C.3    81  GLY81       0.1869
     40  C         71.7910   46.8660   96.5530 C.2    81  GLY81       0.2309
     41  O         71.5250   46.3580   95.4820 O.2    81  GLY81      -0.2863
     42  N         80.7910   38.2470  100.5590 N.3    98  ALA98      -0.1245
     43  CA        80.3120   39.1220  101.6180 C.3    98  ALA98       0.1562
     44  C         81.0800   38.6880  102.8490 C.2    98  ALA98       0.2260
     45  O         80.7170   37.7020  103.4480 O.2    98  ALA98      -0.2867
     46  CB        78.8500   38.9840  101.8190 C.3    98  ALA98       0.0290
     47  N         82.1500   38.2250  106.5440 N.3   100  LYS100     -0.1245
     48  CA        81.5940   38.2770  107.8780 C.3   100  LYS100      0.1561
     49  C         82.6650   38.2060  109.0150 C.2   100  LYS100      0.2260
     50  O         83.8320   38.4460  108.7900 O.2   100  LYS100     -0.2867
     51  CB        80.5530   37.1570  107.9870 C.3   100  LYS100      0.0271
     52  CG        79.4420   37.2430  106.9130 C.3   100  LYS100      0.0035
     53  CD        78.6940   38.6390  106.8640 C.3   100  LYS100      0.0206
     54  CE        77.7320   38.7350  105.6300 C.3   100  LYS100      0.1093
     55  NZ        77.3260   40.1280  105.1870 N.3   100  LYS100     -0.1314
     56  N         81.6130   42.8000   99.4130 N.3   128  ASP128     -0.1225
     57  CA        80.6760   43.4290  100.3190 C.3   128  ASP128      0.1805
     58  C         81.2700   43.3180  101.7310 C.2   128  ASP128      0.2597
     59  O         81.2370   42.2360  102.3650 O.2   128  ASP128     -0.2718
     60  CB        79.3250   42.7640  100.1940 C.3   128  ASP128      0.1424
     61  CG        78.3090   43.2100  101.2900 C.2   128  ASP128      0.3668
     62  OD1       78.6720   43.9590  102.2160 O.co2 128  ASP128     -0.2456
     63  OD2       77.1400   42.7460  101.1840 O.co2 128  ASP128     -0.2456
     64  N         81.8000   44.4680  102.1840 N.am  129  ARG129     -0.1979
     65  CA        82.8150   44.5700  103.2570 C.3   129  ARG129      0.1597
     66  C         84.1000   43.9310  102.7710 C.2   129  ARG129      0.2287
     67  O         84.0790   43.2900  101.7070 O.2   129  ARG129     -0.2864
     68  CB        82.3830   43.9380  104.5750 C.3   129  ARG129      0.0334
     69  CG        81.1020   44.5090  105.1210 C.3   129  ARG129      0.0492
     70  CD        80.8180   43.8610  106.4370 C.3   129  ARG129      0.2205
     71  NE        79.7120   44.4360  107.1830 N.pl3 129  ARG129     -0.0865
     72  CZ        78.4280   44.1140  107.0420 C.cat 129  ARG129      0.5346
     73  NH1       78.0020   43.2430  106.0980 N.pl3 129  ARG129      0.1354
     74  NH2       77.5500   44.6930  107.8540 N.pl3 129  ARG129      0.1354
     75  N         62.5090   49.9130  109.3630 N.3   188  ARG188     -0.1245
     76  CA        62.5630   48.5020  109.5300 C.3   188  ARG188      0.1563
     77  C         61.6030   48.0330  110.6090 C.2   188  ARG188      0.2260
     78  O         60.9460   47.0360  110.4270 O.2   188  ARG188     -0.2867
     79  CB        63.9580   48.0540  109.8940 C.3   188  ARG188      0.0307
     80  CG        64.7450   47.7400  108.7050 C.3   188  ARG188      0.0489
     81  CD        66.1600   47.3420  109.0550 C.3   188  ARG188      0.2205
     82  NE        66.9960   47.4740  107.8740 N.pl3 188  ARG188     -0.0865
     83  CZ        68.2940   47.2750  107.8420 C.cat 188  ARG188      0.5346
     84  NH1       68.9730   46.9470  108.9300 N.pl3 188  ARG188      0.1354
     85  NH2       68.9200   47.4150  106.6970 N.pl3 188  ARG188      0.1354
     86  N         64.9180   41.5070  109.5220 N.3   197  LYS197     -0.1245
     87  CA        66.1500   42.1080  109.0980 C.3   197  LYS197      0.1561
     88  C         66.7510   42.9720  110.1980 C.2   197  LYS197      0.2260
     89  O         67.8440   43.4080  110.0370 O.2   197  LYS197     -0.2867
     90  CB        65.7990   43.0790  107.9440 C.3   197  LYS197      0.0271
     91  CG        66.6550   43.0640  106.7340 C.3   197  LYS197      0.0035
     92  CD        66.1420   44.0570  105.6830 C.3   197  LYS197      0.0206
     93  CE        65.5260   43.4180  104.4130 C.3   197  LYS197      0.1093
     94  NZ        66.0210   44.0260  103.1120 N.3   197  LYS197     -0.1314
     95  N         72.7850   47.3090  115.2410 N.3   202  ASP202     -0.1239
     96  CA        72.8890   48.5860  114.5290 C.3   202  ASP202      0.1674
     97  C         72.6420   49.8010  115.4360 C.2   202  ASP202      0.2266
     98  O         73.0750   50.8990  115.1580 O.2   202  ASP202     -0.2867
     99  CB        71.9050   48.6460  113.3650 C.3   202  ASP202      0.1410
    100  CG        72.1110   47.5360  112.3460 C.2   202  ASP202      0.3668
    101  OD1       73.2680   47.0940  112.1800 O.co2 202  ASP202     -0.2456
    102  OD2       71.1260   47.1340  111.6800 O.co2 202  ASP202     -0.2456
@<TRIPOS>BOND
     1    41    40    2
     2    40    39    1
     3    39    38    1
     4    37    36    2
     5    28    27    2
     6    36    38   am
     7    36    35    1
     8    24    23    2
     9    56    57    1
    10    27    26    1
    11    27    34   am
    12    35    34    1
    13    60    57    1
    14    60    61    1
    15    57    58    1
    16    23    25   am
    17    23    22    1
    18    26    25    1
    19    26    29    1
    20    42    43    1
    21    22    21    1
    22    63    61   ar
    23    61    62   ar
    24    30    29    1
    25    30    31    1
    26    43    46    1
    27    43    44    1
    28    67    66    2
    29    58    64   am
    30    58    59    2
    31    19    18    2
    32    64    65    1
    33    21    18   am
    34    18    17    1
    35    31    32    1
    36    66    65    1
    37    44    45    2
    38    94    93    1
    39    65    68    1
    40    32    33    1
    41    17    20    1
    42    17    16    1
    43    93    92    1
    44    68    69    1
    45    12    11    2
    46    16    11   am
    47    69    70    1
    48    55    54    1
    49    11    10    1
    50    54    53    1
    51    92    91    1
    52    73    72    1
    53    70    71    1
    54    47    48    1
    55    85    83    1
    56    10     9    1
    57    10    13    1
    58    91    90    1
    59    53    52    1
    60    52    51    1
    61    72    71    2
    62    72    74    1
    63     9     3   am
    64    14    13    1
    65    15    13    1
    66    83    82    2
    67    83    84    1
    68    82    81    1
    69    48    51    1
    70    48    49    1
    71    90    87    1
    72     3     2    1
    73     3     4    2
    74     2     1    1
    75     2     5    1
    76     7     6   ar
    77    80    81    1
    78    80    79    1
    79    50    49    2
    80    87    86    1
    81    87    88    1
    82     5     6    1
    83    75    76    1
    84     6     8   ar
    85    76    79    1
    86    76    77    1
    87    89    88    2
    88    78    77    2
    89   102   100   ar
    90   101   100   ar
    91   100    99    1
    92    99    96    1
    93    96    95    1
    94    96    97    1
    95    98    97    2
