@<TRIPOS>MOLECULE
tmp/3rhfC00.pdb
 103 95 0 0 0
SMALL
GASTEIGER

@<TRIPOS>ATOM
      1  N         82.4480   63.5530   86.1720 N.3     7  SER7       -0.1217
      2  CA        82.5610   62.1350   86.4810 C.3     7  SER7        0.1889
      3  C         82.7210   61.9200   87.9920 C.2     7  SER7        0.2288
      4  O         83.4440   62.6480   88.6740 O.2     7  SER7       -0.2866
      5  CB        83.7250   61.4910   85.7490 C.3     7  SER7        0.2089
      6  OG        83.9080   60.1570   86.2400 O.3     7  SER7       -0.2183
      7  N         84.4460   59.8510   89.4950 N.3     9  ALA9       -0.1245
      8  CA        85.8450   59.6500   89.8230 C.3     9  ALA9        0.1562
      9  C         86.5860   60.9640   90.1180 C.2     9  ALA9        0.2260
     10  O         87.7080   60.9550   90.6270 O.2     9  ALA9       -0.2867
     11  CB        86.5440   58.9000   88.7020 C.3     9  ALA9        0.0290
     12  N         86.0070   61.4960   94.5670 N.3    13  ARG13      -0.1245
     13  CA        87.3300   60.9870   94.9490 C.3    13  ARG13       0.1563
     14  C         87.8120   61.5490   96.2810 C.2    13  ARG13       0.2260
     15  O         87.4110   62.6450   96.6810 O.2    13  ARG13      -0.2867
     16  CB        88.3080   61.3730   93.8150 C.3    13  ARG13       0.0307
     17  CG        89.7270   60.8810   93.8610 C.3    13  ARG13       0.0489
     18  CD        90.4760   61.5780   92.6960 C.3    13  ARG13       0.2205
     19  NE        91.7340   60.9150   92.3450 N.pl3  13  ARG13      -0.0865
     20  CZ        91.8240   59.7450   91.7050 C.cat  13  ARG13       0.5346
     21  NH1       93.0430   59.2470   91.4200 N.pl3  13  ARG13       0.1354
     22  NH2       90.7030   59.0620   91.3510 N.pl3  13  ARG13       0.1354
     23  N         91.9750   46.3460   88.4310 N.3   169  THR169     -0.1203
     24  CA        91.5790   47.7030   88.7520 C.3   169  THR169      0.1994
     25  C         90.7240   47.6560   89.9920 C.2   169  THR169      0.2618
     26  O         89.6790   46.9760   89.9900 O.2   169  THR169     -0.2717
     27  CB        90.7570   48.3190   87.6320 C.3   169  THR169      0.1784
     28  OG1       91.5180   48.2130   86.4270 O.3   169  THR169     -0.2211
     29  CG2       90.4660   49.7840   87.9410 C.3   169  THR169      0.0376
     30  N         91.1630   48.3560   91.0400 N.am  170  ILE170     -0.1965
     31  CA        90.4500   48.3730   92.3430 C.3   170  ILE170      0.1727
     32  C         89.6120   49.6370   92.4780 C.2   170  ILE170      0.2616
     33  O         90.1420   50.7590   92.4880 O.2   170  ILE170     -0.2715
     34  CB        91.4450   48.2950   93.4950 C.3   170  ILE170      0.0290
     35  CG1       92.3570   47.0600   93.3070 C.3   170  ILE170      0.0022
     36  CG2       90.7550   48.2290   94.8440 C.3   170  ILE170      0.0023
     37  CD1       93.5460   47.0790   94.2270 C.3   170  ILE170      0.0001
     38  N         88.3000   49.4580   92.5210 N.am  171  VAL171     -0.1977
     39  CA        87.3540   50.5580   92.7010 C.3   171  VAL171      0.1596
     40  C         86.8380   50.5350   94.1250 C.2   171  VAL171      0.2287
     41  O         86.1590   49.5840   94.4650 O.2   171  VAL171     -0.2864
     42  CB        86.1370   50.3820   91.7520 C.3   171  VAL171      0.0276
     43  CG1       85.0900   51.4080   92.0690 C.3   171  VAL171      0.0022
     44  CG2       86.5510   50.4810   90.2380 C.3   171  VAL171      0.0022
     45  N         97.0200   56.7750   94.6310 N.3   225  GLU225     -0.1231
     46  CA        96.8460   56.9890   93.2150 C.3   225  GLU225      0.1699
     47  C         96.3680   55.7490   92.4740 C.2   225  GLU225      0.2592
     48  O         95.5930   55.8550   91.5870 O.2   225  GLU225     -0.2718
     49  CB        98.0920   57.5990   92.5870 C.3   225  GLU225      0.0402
     50  CG        97.8880   58.1230   91.2050 C.3   225  GLU225      0.1161
     51  CD        99.0910   58.8600   90.5810 C.2   225  GLU225      0.3649
     52  OE1      100.1560   58.9970   91.1940 O.co2 225  GLU225     -0.2457
     53  OE2       98.9760   59.3020   89.4440 O.co2 225  GLU225     -0.2457
     54  N         96.8120   54.5810   92.8710 N.am  226  ILE226     -0.1980
     55  CA        96.4290   53.3560   92.1800 C.3   226  ILE226      0.1595
     56  C         95.1270   52.7790   92.6870 C.2   226  ILE226      0.2287
     57  O         94.4810   52.0450   91.9420 O.2   226  ILE226     -0.2864
     58  CB        97.5020   52.2310   92.2430 C.3   226  ILE226      0.0276
     59  CG1       97.8830   51.9040   93.7040 C.3   226  ILE226      0.0022
     60  CG2       98.7110   52.5830   91.3190 C.3   226  ILE226      0.0022
     61  CD1       98.7930   50.7400   93.7800 C.3   226  ILE226      0.0001
     62  N         92.3840   54.8570   94.6810 N.3   228  PRO228     -0.2116
     63  CA        91.7680   55.9500   95.4000 C.3   228  PRO228      0.1372
     64  C         90.4830   55.5170   96.0890 C.2   228  PRO228      0.2244
     65  O         89.8110   54.6150   95.5720 O.2   228  PRO228     -0.2868
     66  CB        91.4300   56.9480   94.2830 C.3   228  PRO228      0.0268
     67  CG        91.3750   56.1620   93.0350 C.3   228  PRO228      0.0207
     68  CD        92.2530   54.9840   93.2210 C.3   228  PRO228      0.0892
     69  N         86.5620   56.6170   97.0010 N.3   230  HIS230     -0.1241
     70  CA        85.4420   57.4660   96.6570 C.3   230  HIS230      0.1621
     71  C         84.3850   57.3750   97.7620 C.2   230  HIS230      0.2264
     72  O         84.0390   56.2720   98.2010 O.2   230  HIS230     -0.2867
     73  CB        84.7960   57.0170   95.3430 C.3   230  HIS230      0.0745
     74  CG        85.7730   56.8090   94.2470 C.ar  230  HIS230      0.0817
     75  ND1       86.4910   55.6410   94.1140 N.ar  230  HIS230     -0.2268
     76  CD2       86.2370   57.6520   93.2960 C.ar  230  HIS230      0.1154
     77  CE1       87.3330   55.7620   93.0990 C.ar  230  HIS230      0.1986
     78  NE2       87.1890   56.9680   92.5780 N.ar  230  HIS230     -0.2212
     79  N         81.0610   54.6280   88.5190 N.3   247  LEU247     -0.1245
     80  CA        82.4650   54.4450   88.8730 C.3   247  LEU247      0.1561
     81  C         83.0000   53.2020   88.1850 C.2   247  LEU247      0.2260
     82  O         84.0460   53.1940   87.5680 O.2   247  LEU247     -0.2867
     83  CB        82.6170   54.3170   90.3690 C.3   247  LEU247      0.0270
     84  CG        82.6690   55.6680   91.0780 C.3   247  LEU247      0.0019
     85  CD1       82.4020   55.5370   92.6090 C.3   247  LEU247      0.0001
     86  CD2       84.0390   56.3070   90.7870 C.3   247  LEU247      0.0001
     87  N         83.1760   53.6610   84.3550 N.3   250  ASP250     -0.1225
     88  CA        84.3270   54.4180   84.0110 C.3   250  ASP250      0.1805
     89  C         85.6170   53.6060   84.1950 C.2   250  ASP250      0.2597
     90  O         86.5410   53.7680   83.4200 O.2   250  ASP250     -0.2718
     91  CB        84.3260   55.7290   84.7610 C.3   250  ASP250      0.1424
     92  CG        83.2140   56.6740   84.2700 C.2   250  ASP250      0.3668
     93  OD1       82.4730   56.2800   83.3350 O.co2 250  ASP250     -0.2456
     94  OD2       83.0900   57.8260   84.7770 O.co2 250  ASP250     -0.2456
     95  N         85.6850   52.7150   85.1760 N.am  251  ALA251     -0.1979
     96  CA        86.9130   52.0100   85.4160 C.3   251  ALA251      0.1597
     97  C         87.0740   50.9430   84.3140 C.2   251  ALA251      0.2287
     98  O         88.1240   50.8460   83.6860 O.2   251  ALA251     -0.2864
     99  CB        86.9130   51.4040   86.8270 C.3   251  ALA251      0.0319
    100  N         88.1450   52.4550   81.0450 N.3   254  GLY254     -0.1225
    101  CA        89.5770   52.7610   80.9960 C.3   254  GLY254      0.1811
    102  C         90.4820   51.5740   80.6830 C.2   254  GLY254      0.2280
    103  O         91.6600   51.7520   80.3870 O.2   254  GLY254     -0.2866
@<TRIPOS>BOND
     1   103   102    2
     2   102   101    1
     3   101   100    1
     4    93    92   ar
     5    90    89    2
     6    98    97    2
     7    88    89    1
     8    88    87    1
     9    88    91    1
    10    89    95   am
    11    92    91    1
    12    92    94   ar
    13    97    96    1
    14    95    96    1
    15    96    99    1
    16     5     6    1
    17     5     2    1
    18     1     2    1
    19    28    27    1
    20     2     3    1
    21    82    81    2
    22    27    29    1
    23    27    24    1
    24     3     4    2
    25    81    80    1
    26    23    24    1
    27    79    80    1
    28    11     8    1
    29    24    25    1
    30    80    83    1
    31    53    51   ar
    32     7     8    1
    33     8     9    1
    34    26    25    2
    35    25    30   am
    36     9    10    2
    37    44    42    1
    38    83    84    1
    39    51    52   ar
    40    51    50    1
    41    86    84    1
    42    30    31    1
    43    84    85    1
    44    50    49    1
    45    60    58    1
    46    22    20    1
    47    21    20    1
    48    48    47    2
    49    20    19    2
    50    42    43    1
    51    42    39    1
    52    57    56    2
    53    55    58    1
    54    55    56    1
    55    55    54    1
    56    58    59    1
    57    31    32    1
    58    31    34    1
    59    19    18    1
    60    47    54   am
    61    47    46    1
    62    32    33    2
    63    32    38   am
    64    38    39    1
    65    78    77   ar
    66    78    76   ar
    67    49    46    1
    68    18    17    1
    69    39    40    1
    70    67    68    1
    71    67    66    1
    72    77    75   ar
    73    46    45    1
    74    68    62    1
    75    76    74   ar
    76    35    34    1
    77    35    37    1
    78    34    36    1
    79    59    61    1
    80    16    17    1
    81    16    13    1
    82    75    74   ar
    83    40    41    2
    84    74    73    1
    85    66    63    1
    86    12    13    1
    87    62    63    1
    88    13    14    1
    89    73    70    1
    90    63    64    1
    91    65    64    2
    92    14    15    2
    93    70    69    1
    94    70    71    1
    95    71    72    2
