@<TRIPOS>MOLECULE
tmp/3rhgA00.pdb
 132 131 0 0 0
SMALL
GASTEIGER

@<TRIPOS>ATOM
      1  N         20.4240   16.9860   12.1300 N.3    63  TYR63      -0.1241
      2  CA        21.3100   16.0830   12.8670 C.3    63  TYR63       0.1605
      3  C         20.6910   15.4830   14.1240 C.2    63  TYR63       0.2264
      4  O         21.3090   14.6250   14.7630 O.2    63  TYR63      -0.2867
      5  CB        22.6030   16.8110   13.2520 C.3    63  TYR63       0.0534
      6  CG        23.4500   17.2840   12.0810 C.ar   63  TYR63      -0.0201
      7  CD1       23.4630   16.5980   10.8670 C.ar   63  TYR63      -0.0009
      8  CD2       24.2540   18.4130   12.2000 C.ar   63  TYR63      -0.0009
      9  CE1       24.2570   17.0260    9.8070 C.ar   63  TYR63       0.0417
     10  CE2       25.0570   18.8560   11.1420 C.ar   63  TYR63       0.0417
     11  CZ        25.0530   18.1660    9.9490 C.ar   63  TYR63       0.1957
     12  OH        25.8450   18.6260    8.9140 O.3    63  TYR63      -0.2866
     13  N         38.9590   11.8290    8.0500 N.3   126  TYR126     -0.1241
     14  CA        38.0270   12.9460    8.1430 C.3   126  TYR126      0.1605
     15  C         38.4520   13.8700    9.3130 C.2   126  TYR126      0.2264
     16  O         39.6200   13.8430    9.7310 O.2   126  TYR126     -0.2867
     17  CB        36.6080   12.3740    8.3160 C.3   126  TYR126      0.0534
     18  CG        35.4880   13.3540    8.1160 C.ar  126  TYR126     -0.0201
     19  CD1       35.4490   14.1720    6.9850 C.ar  126  TYR126     -0.0009
     20  CD2       34.4550   13.4670    9.0460 C.ar  126  TYR126     -0.0009
     21  CE1       34.4150   15.0660    6.7810 C.ar  126  TYR126      0.0417
     22  CE2       33.4290   14.3700    8.8610 C.ar  126  TYR126      0.0417
     23  CZ        33.4010   15.1530    7.7160 C.ar  126  TYR126      0.1957
     24  OH        32.3730   16.0500    7.5580 O.3   126  TYR126     -0.2866
     25  N         37.9010   18.2400    2.4430 N.3   199  HIS199     -0.1226
     26  CA        36.7640   18.7760    3.1480 C.3   199  HIS199      0.1752
     27  C         37.2080   20.1030    3.7540 C.2   199  HIS199      0.2596
     28  O         38.0460   20.1290    4.6700 O.2   199  HIS199     -0.2718
     29  CB        36.3320   17.8250    4.2800 C.3   199  HIS199      0.0759
     30  CG        35.4050   18.4650    5.2690 C.ar  199  HIS199      0.0818
     31  ND1       34.0330   18.3680    5.1770 N.ar  199  HIS199     -0.2268
     32  CD2       35.6570   19.2130    6.3770 C.ar  199  HIS199      0.1154
     33  CE1       33.4790   19.0400    6.1760 C.ar  199  HIS199      0.1986
     34  NE2       34.4440   19.5570    6.9190 N.ar  199  HIS199     -0.2212
     35  N         36.6750   21.2030    3.2420 N.am  200  MET200     -0.1966
     36  CA        36.9650   22.5230    3.7910 C.3   200  MET200      0.1721
     37  C         35.8490   22.9390    4.7190 C.2   200  MET200      0.2458
     38  O         34.7030   22.5470    4.5350 O.2   200  MET200     -0.2730
     39  CB        37.0800   23.5690    2.6740 C.3   200  MET200      0.0427
     40  CG        38.2550   23.2860    1.7540 C.3   200  MET200      0.0599
     41  SD        39.8730   23.4560    2.5580 S.3   200  MET200     -0.1393
     42  CE        39.9070   25.2460    2.7310 C.3   200  MET200      0.0692
     43  N         36.1860   23.7690    5.7090 N.am  201  PRO201     -0.2716
     44  CA        35.1400   24.4000    6.5230 C.3   201  PRO201      0.1536
     45  C         34.5610   25.5400    5.6910 C.2   201  PRO201      0.2599
     46  O         35.1560   26.6090    5.5970 O.2   201  PRO201     -0.2715
     47  CB        35.9050   24.8950    7.7480 C.3   201  PRO201      0.0310
     48  CG        37.3340   25.1200    7.2430 C.3   201  PRO201      0.0237
     49  CD        37.5580   24.1050    6.1440 C.3   201  PRO201      0.0939
     50  N         33.4300   25.2780    5.0340 N.am  202  GLY202     -0.1941
     51  CA        33.0010   26.1150    3.9300 C.3   202  GLY202      0.2014
     52  C         32.5300   27.5040    4.2860 C.2   202  GLY202      0.2638
     53  O         32.5040   28.4080    3.4080 O.2   202  GLY202     -0.2714
     54  N         32.1640   27.7000    5.5540 N.am  203  TRP203     -0.1973
     55  CA        31.7870   29.0330    6.0160 C.3   203  TRP203      0.1640
     56  C         32.9830   29.8260    6.5730 C.2   203  TRP203      0.2290
     57  O         32.8230   30.9500    7.0480 O.2   203  TRP203     -0.2864
     58  CB        30.6600   28.9630    7.0530 C.3   203  TRP203      0.0576
     59  CG        29.3480   28.4840    6.4740 C.ar  203  TRP203      0.0006
     60  CD1       28.3440   29.2580    5.9820 C.ar  203  TRP203      0.0946
     61  CD2       28.9170   27.1200    6.3270 C.ar  203  TRP203      0.0152
     62  NE1       27.3010   28.4670    5.5460 N.ar  203  TRP203     -0.2442
     63  CE2       27.6230   27.1490    5.7640 C.ar  203  TRP203      0.0810
     64  CE3       29.4810   25.8830    6.6570 C.ar  203  TRP203      0.0012
     65  CZ2       26.8930   25.9820    5.4920 C.ar  203  TRP203      0.0191
     66  CZ3       28.7490   24.7210    6.3870 C.ar  203  TRP203      0.0001
     67  CH2       27.4700   24.7850    5.8120 C.ar  203  TRP203      0.0015
     68  N         33.1910   21.8900   -0.7390 N.3   229  HIS229     -0.1241
     69  CA        32.3610   22.8230   -0.0050 C.3   229  HIS229      0.1621
     70  C         32.7960   24.2720   -0.2580 C.2   229  HIS229      0.2264
     71  O         32.8790   25.0980    0.6560 O.2   229  HIS229     -0.2867
     72  CB        32.3980   22.4900    1.4930 C.3   229  HIS229      0.0745
     73  CG        32.2810   21.0290    1.7930 C.ar  229  HIS229      0.0817
     74  ND1       31.4640   20.1840    1.0730 N.ar  229  HIS229     -0.2268
     75  CD2       32.8710   20.2600    2.7390 C.ar  229  HIS229      0.1154
     76  CE1       31.5740   18.9520    1.5400 C.ar  229  HIS229      0.1986
     77  NE2       32.4080   18.9700    2.5640 N.ar  229  HIS229     -0.2212
     78  N         27.4200   21.3440   -2.9190 N.3   254  MET254     -0.1245
     79  CA        26.2500   21.4520   -2.0270 C.3   254  MET254      0.1570
     80  C         25.0500   21.9110   -2.8330 C.2   254  MET254      0.2261
     81  O         24.1210   22.5300   -2.3150 O.2   254  MET254     -0.2867
     82  CB        26.5400   22.4050   -0.8720 C.3   254  MET254      0.0387
     83  CG        27.7260   21.9380   -0.0550 C.3   254  MET254      0.0595
     84  SD        28.4390   23.2090    1.0250 S.3   254  MET254     -0.1393
     85  CE        27.1190   23.4640    2.1950 C.3   254  MET254      0.0692
     86  N         21.4010   21.3920   -1.7100 N.3   257  LEU257     -0.1245
     87  CA        21.4210   20.8710   -0.3520 C.3   257  LEU257      0.1561
     88  C         20.1710   21.3520    0.4450 C.2   257  LEU257      0.2260
     89  O         19.4590   20.5530    1.0830 O.2   257  LEU257     -0.2867
     90  CB        22.7550   21.2380    0.3220 C.3   257  LEU257      0.0270
     91  CG        22.8880   20.9050    1.8100 C.3   257  LEU257      0.0019
     92  CD1       22.9170   19.4310    1.9390 C.3   257  LEU257      0.0001
     93  CD2       24.1360   21.5190    2.3690 C.3   257  LEU257      0.0001
     94  N         21.7490   24.6570    9.0330 N.3   261  PHE261     -0.1241
     95  CA        22.3180   23.9870   10.1800 C.3   261  PHE261      0.1605
     96  C         22.2810   24.9180   11.3930 C.2   261  PHE261      0.2264
     97  O         22.5000   26.1280   11.2750 O.2   261  PHE261     -0.2867
     98  CB        23.7300   23.5060    9.8310 C.3   261  PHE261      0.0534
     99  CG        23.7520   22.5890    8.6490 C.ar  261  PHE261     -0.0203
    100  CD1       23.5210   21.2290    8.8070 C.ar  261  PHE261     -0.0042
    101  CD2       23.9360   23.0990    7.3620 C.ar  261  PHE261     -0.0042
    102  CE1       23.5090   20.3850    7.7160 C.ar  261  PHE261     -0.0003
    103  CE2       23.9200   22.2600    6.2580 C.ar  261  PHE261     -0.0003
    104  CZ        23.7110   20.9060    6.4210 C.ar  261  PHE261     -0.0000
    105  N         27.1620   25.5800   12.1720 N.3   264  GLU264     -0.1245
    106  CA        27.9440   25.8320   10.9670 C.3   264  GLU264      0.1567
    107  C         27.4490   27.0420   10.1890 C.2   264  GLU264      0.2260
    108  O         28.1870   28.0100    9.9900 O.2   264  GLU264     -0.2867
    109  CB        27.9790   24.5960   10.0610 C.3   264  GLU264      0.0388
    110  CG        27.0460   23.4780   10.4920 C.3   264  GLU264      0.1160
    111  CD        27.6350   22.6510   11.6200 C.2   264  GLU264      0.3649
    112  OE1       28.8090   22.8960   11.9740 O.co2 264  GLU264     -0.2457
    113  OE2       26.9340   21.7580   12.1460 O.co2 264  GLU264     -0.2457
    114  N         26.6630   16.3290   -2.7610 N.3   294  ASP294     -0.1239
    115  CA        27.0230   15.9200   -1.3960 C.3   294  ASP294      0.1674
    116  C         25.8710   15.2760   -0.6550 C.2   294  ASP294      0.2266
    117  O         25.6700   15.5590    0.5280 O.2   294  ASP294     -0.2867
    118  CB        27.6150   17.0890   -0.5760 C.3   294  ASP294      0.1410
    119  CG        28.3750   16.6130    0.6450 C.2   294  ASP294      0.3668
    120  OD1       28.8610   15.4520    0.6230 O.co2 294  ASP294     -0.2456
    121  OD2       28.4820   17.3870    1.6490 O.co2 294  ASP294     -0.2456
    122  N         24.2770   13.1430    1.7810 N.3   296  PHE296     -0.1241
    123  CA        24.9070   12.5190    2.9370 C.3   296  PHE296      0.1605
    124  C         23.9250   12.2840    4.0710 C.2   296  PHE296      0.2264
    125  O         24.3190   11.7930    5.1330 O.2   296  PHE296     -0.2867
    126  CB        26.1300   13.3230    3.4200 C.3   296  PHE296      0.0534
    127  CG        25.8050   14.5360    4.2860 C.ar  296  PHE296     -0.0203
    128  CD1       26.0000   14.4800    5.6670 C.ar  296  PHE296     -0.0042
    129  CD2       25.3640   15.7420    3.7150 C.ar  296  PHE296     -0.0042
    130  CE1       25.7190   15.5930    6.4920 C.ar  296  PHE296     -0.0003
    131  CE2       25.0830   16.8730    4.5130 C.ar  296  PHE296     -0.0003
    132  CZ        25.2800   16.8040    5.8990 C.ar  296  PHE296     -0.0000
@<TRIPOS>BOND
     1    78    79    1
     2    80    81    2
     3    80    79    1
     4   114   115    1
     5    79    82    1
     6    86    87    1
     7   115   116    1
     8   115   118    1
     9    82    83    1
    10    68    69    1
    11   116   117    2
    12   118   119    1
    13    87    90    1
    14    87    88    1
    15    70    69    1
    16    70    71    2
    17    83    84    1
    18    69    72    1
    19    90    91    1
    20    88    89    2
    21   120   119   ar
    22   119   121   ar
    23    84    85    1
    24    74    76   ar
    25    74    73   ar
    26    72    73    1
    27    76    77   ar
    28    40    41    1
    29    40    39    1
    30   122   123    1
    31    73    75   ar
    32    91    92    1
    33    91    93    1
    34    25    26    1
    35    41    42    1
    36    77    75   ar
    37    39    36    1
    38   123   126    1
    39   123   124    1
    40    26    27    1
    41    26    29    1
    42    35    27   am
    43    35    36    1
    44    53    52    2
    45   126   127    1
    46   129   127   ar
    47   129   131   ar
    48    27    28    2
    49    36    37    1
    50    51    52    1
    51    51    50    1
    52   124   125    2
    53    29    30    1
    54   127   128   ar
    55    52    54   am
    56   131   132   ar
    57    38    37    2
    58    37    43   am
    59    50    45   am
    60    31    30   ar
    61    31    33   ar
    62    30    32   ar
    63    65    63   ar
    64    65    67   ar
    65    62    63   ar
    66    62    60   ar
    67    54    55    1
    68    46    45    2
    69   128   130   ar
    70    45    44    1
    71    43    49    1
    72    43    44    1
    73    63    61   ar
    74    67    66   ar
    75   132   130   ar
    76    60    59   ar
    77    55    56    1
    78    55    58    1
    79    49    48    1
    80    33    34   ar
    81   103   104   ar
    82   103   101   ar
    83    61    59   ar
    84    61    64   ar
    85    32    34   ar
    86    66    64   ar
    87   104   102   ar
    88    59    58    1
    89    44    47    1
    90    56    57    2
    91    21    19   ar
    92    21    23   ar
    93    19    18   ar
    94    48    47    1
    95   101    99   ar
    96    24    23    1
    97   102   100   ar
    98    23    22   ar
    99    13    14    1
   100    18    17    1
   101    18    20   ar
   102    14    17    1
   103    14    15    1
   104    99   100   ar
   105    99    98    1
   106    22    20   ar
   107    12    11    1
   108    94    95    1
   109    15    16    2
   110     9    11   ar
   111     9     7   ar
   112    98    95    1
   113    11    10   ar
   114   108   107    2
   115   109   110    1
   116   109   106    1
   117    95    96    1
   118   107   106    1
   119   110   111    1
   120     7     6   ar
   121   106   105    1
   122    10     8   ar
   123    97    96    2
   124   111   112   ar
   125   111   113   ar
   126     6     8   ar
   127     6     5    1
   128     1     2    1
   129     2     5    1
   130     2     3    1
   131     3     4    2
