@<TRIPOS>MOLECULE
tmp/3rhgA01.pdb
 113 108 0 0 0
SMALL
GASTEIGER

@<TRIPOS>ATOM
      1  N         26.4030    8.3550   10.3600 N.3    30  LEU30      -0.1245
      2  CA        26.7570    9.3930   11.3250 C.3    30  LEU30       0.1561
      3  C         26.1210    9.1070   12.6820 C.2    30  LEU30       0.2260
      4  O         25.8540   10.0270   13.4690 O.2    30  LEU30      -0.2867
      5  CB        26.3110   10.7620   10.8130 C.3    30  LEU30       0.0270
      6  CG        26.9950   11.2260    9.5260 C.3    30  LEU30       0.0019
      7  CD1       27.0800   10.0860    8.5210 C.3    30  LEU30       0.0001
      8  CD2       26.2520   12.4000    8.9300 C.3    30  LEU30       0.0001
      9  N         27.2320   10.6120   16.2200 N.3    33  VAL33      -0.1245
     10  CA        27.1650   12.0560   16.4340 C.3    33  VAL33       0.1561
     11  C         25.7520   12.6400   16.2610 C.2    33  VAL33       0.2260
     12  O         25.5940   13.7920   15.8360 O.2    33  VAL33      -0.2867
     13  CB        28.1440   12.8170   15.4880 C.3    33  VAL33       0.0252
     14  CG1       29.6030   12.5510   15.8970 C.3    33  VAL33       0.0019
     15  CG2       27.9000   12.4240   14.0040 C.3    33  VAL33       0.0019
     16  N         22.8570   14.6920   17.2700 N.3    35  ASP35      -0.1239
     17  CA        22.8070   15.8350   18.1630 C.3    35  ASP35       0.1674
     18  C         21.4880   15.8380   18.9240 C.2    35  ASP35       0.2266
     19  O         20.4850   15.3050   18.4370 O.2    35  ASP35      -0.2867
     20  CB        22.9680   17.1300   17.3540 C.3    35  ASP35       0.1410
     21  CG        24.4090   17.3750   16.9450 C.2    35  ASP35       0.3668
     22  OD1       25.3070   16.8560   17.6460 O.co2  35  ASP35      -0.2456
     23  OD2       24.6400   18.0670   15.9310 O.co2  35  ASP35      -0.2456
     24  N         20.4240   16.9860   12.1300 N.3    63  TYR63      -0.1241
     25  CA        21.3100   16.0830   12.8670 C.3    63  TYR63       0.1605
     26  C         20.6910   15.4830   14.1240 C.2    63  TYR63       0.2264
     27  O         21.3090   14.6250   14.7630 O.2    63  TYR63      -0.2867
     28  CB        22.6030   16.8110   13.2520 C.3    63  TYR63       0.0534
     29  CG        23.4500   17.2840   12.0810 C.ar   63  TYR63      -0.0201
     30  CD1       23.4630   16.5980   10.8670 C.ar   63  TYR63      -0.0009
     31  CD2       24.2540   18.4130   12.2000 C.ar   63  TYR63      -0.0009
     32  CE1       24.2570   17.0260    9.8070 C.ar   63  TYR63       0.0417
     33  CE2       25.0570   18.8560   11.1420 C.ar   63  TYR63       0.0417
     34  CZ        25.0530   18.1660    9.9490 C.ar   63  TYR63       0.1957
     35  OH        25.8450   18.6260    8.9140 O.3    63  TYR63      -0.2866
     36  N         20.6100   10.0040   10.1180 N.3    69  MET69      -0.1245
     37  CA        22.0420    9.8760   10.3730 C.3    69  MET69       0.1570
     38  C         22.5280    8.4260   10.2840 C.2    69  MET69       0.2261
     39  O         23.7250    8.1670   10.4090 O.2    69  MET69      -0.2867
     40  CB        22.3300   10.3940   11.8030 C.3    69  MET69       0.0387
     41  CG        21.8510   11.8210   12.0530 C.3    69  MET69       0.0595
     42  SD        22.8890   12.9770   11.1590 S.3    69  MET69      -0.1393
     43  CE        24.1610   13.2450   12.3930 C.3    69  MET69       0.0692
     44  N         38.9590   11.8290    8.0500 N.3   126  TYR126     -0.1227
     45  CA        38.0270   12.9460    8.1430 C.3   126  TYR126      0.1736
     46  C         38.4520   13.8700    9.3130 C.2   126  TYR126      0.2595
     47  O         39.6200   13.8430    9.7310 O.2   126  TYR126     -0.2718
     48  CB        36.6080   12.3740    8.3160 C.3   126  TYR126      0.0548
     49  CG        35.4880   13.3540    8.1160 C.ar  126  TYR126     -0.0200
     50  CD1       35.4490   14.1720    6.9850 C.ar  126  TYR126     -0.0009
     51  CD2       34.4550   13.4670    9.0460 C.ar  126  TYR126     -0.0009
     52  CE1       34.4150   15.0660    6.7810 C.ar  126  TYR126      0.0417
     53  CE2       33.4290   14.3700    8.8610 C.ar  126  TYR126      0.0417
     54  CZ        33.4010   15.1530    7.7160 C.ar  126  TYR126      0.1957
     55  OH        32.3730   16.0500    7.5580 O.3   126  TYR126     -0.2866
     56  N         37.5430   14.7080    9.8110 N.am  127  ILE127     -0.1980
     57  CA        37.9280   15.6850   10.8420 C.3   127  ILE127      0.1595
     58  C         38.1850   15.0200   12.2000 C.2   127  ILE127      0.2287
     59  O         37.7090   13.9150   12.4670 O.2   127  ILE127     -0.2864
     60  CB        36.8960   16.8320   10.9900 C.3   127  ILE127      0.0276
     61  CG1       35.5180   16.2800   11.3670 C.3   127  ILE127      0.0022
     62  CG2       36.8170   17.6410    9.7050 C.3   127  ILE127      0.0022
     63  CD1       34.4660   17.3970   11.7040 C.3   127  ILE127      0.0001
     64  N         37.0070   15.5420   15.0840 N.3   129  LYS129     -0.1231
     65  CA        35.7910   15.2510   15.8350 C.3   129  LYS129      0.1693
     66  C         35.4060   13.7740   15.6890 C.2   129  LYS129      0.2592
     67  O         34.9170   13.1450   16.6440 O.2   129  LYS129     -0.2718
     68  CB        34.6440   16.1410   15.3500 C.3   129  LYS129      0.0285
     69  CG        33.3140   15.8510   16.0040 C.3   129  LYS129      0.0035
     70  CD        32.2280   16.8320   15.5500 C.3   129  LYS129      0.0206
     71  CE        30.9170   16.5030   16.2510 C.3   129  LYS129      0.1093
     72  NZ        29.7510   17.2680   15.7010 N.3   129  LYS129     -0.1314
     73  N         35.6160   13.2240   14.4840 N.am  130  PHE130     -0.1976
     74  CA        35.2740   11.8320   14.2020 C.3   130  PHE130      0.1639
     75  C         36.4780   10.8960   14.3610 C.2   130  PHE130      0.2290
     76  O         36.3270    9.7450   14.7970 O.2   130  PHE130     -0.2864
     77  CB        34.7280   11.6820   12.7690 C.3   130  PHE130      0.0560
     78  CG        33.3560   12.2390   12.5870 C.ar  130  PHE130     -0.0200
     79  CD1       32.2520   11.4010   12.6330 C.ar  130  PHE130     -0.0042
     80  CD2       33.1650   13.6030   12.3660 C.ar  130  PHE130     -0.0042
     81  CE1       30.9610   11.9110   12.4680 C.ar  130  PHE130     -0.0003
     82  CE2       31.8930   14.1260   12.2180 C.ar  130  PHE130     -0.0003
     83  CZ        30.7850   13.2850   12.2490 C.ar  130  PHE130     -0.0000
     84  N         37.9010   18.2400    2.4430 N.3   199  HIS199     -0.1241
     85  CA        36.7640   18.7760    3.1480 C.3   199  HIS199      0.1621
     86  C         37.2080   20.1030    3.7540 C.2   199  HIS199      0.2264
     87  O         38.0460   20.1290    4.6700 O.2   199  HIS199     -0.2867
     88  CB        36.3320   17.8250    4.2800 C.3   199  HIS199      0.0745
     89  CG        35.4050   18.4650    5.2690 C.ar  199  HIS199      0.0817
     90  ND1       34.0330   18.3680    5.1770 N.ar  199  HIS199     -0.2268
     91  CD2       35.6570   19.2130    6.3770 C.ar  199  HIS199      0.1154
     92  CE1       33.4790   19.0400    6.1760 C.ar  199  HIS199      0.1986
     93  NE2       34.4440   19.5570    6.9190 N.ar  199  HIS199     -0.2212
     94  N         27.1620   25.5800   12.1720 N.3   264  GLU264     -0.1245
     95  CA        27.9440   25.8320   10.9670 C.3   264  GLU264      0.1567
     96  C         27.4490   27.0420   10.1890 C.2   264  GLU264      0.2260
     97  O         28.1870   28.0100    9.9900 O.2   264  GLU264     -0.2867
     98  CB        27.9790   24.5960   10.0610 C.3   264  GLU264      0.0388
     99  CG        27.0460   23.4780   10.4920 C.3   264  GLU264      0.1160
    100  CD        27.6350   22.6510   11.6200 C.2   264  GLU264      0.3649
    101  OE1       28.8090   22.8960   11.9740 O.co2 264  GLU264     -0.2457
    102  OE2       26.9340   21.7580   12.1460 O.co2 264  GLU264     -0.2457
    103  N         24.2770   13.1430    1.7810 N.3   296  PHE296     -0.1241
    104  CA        24.9070   12.5190    2.9370 C.3   296  PHE296      0.1605
    105  C         23.9250   12.2840    4.0710 C.2   296  PHE296      0.2264
    106  O         24.3190   11.7930    5.1330 O.2   296  PHE296     -0.2867
    107  CB        26.1300   13.3230    3.4200 C.3   296  PHE296      0.0534
    108  CG        25.8050   14.5360    4.2860 C.ar  296  PHE296     -0.0203
    109  CD1       26.0000   14.4800    5.6670 C.ar  296  PHE296     -0.0042
    110  CD2       25.3640   15.7420    3.7150 C.ar  296  PHE296     -0.0042
    111  CE1       25.7190   15.5930    6.4920 C.ar  296  PHE296     -0.0003
    112  CE2       25.0830   16.8730    4.5130 C.ar  296  PHE296     -0.0003
    113  CZ        25.2800   16.8040    5.8990 C.ar  296  PHE296     -0.0000
@<TRIPOS>BOND
     1   103   104    1
     2    84    85    1
     3   104   107    1
     4   104   105    1
     5    85    86    1
     6    85    88    1
     7   107   108    1
     8   110   108   ar
     9   110   112   ar
    10    86    87    2
    11   105   106    2
    12    88    89    1
    13   108   109   ar
    14   112   113   ar
    15    90    89   ar
    16    90    92   ar
    17    89    91   ar
    18   109   111   ar
    19   113   111   ar
    20    92    93   ar
    21    91    93   ar
    22    52    50   ar
    23    52    54   ar
    24    50    49   ar
    25    55    54    1
    26    54    53   ar
    27    44    45    1
    28    49    48    1
    29    49    51   ar
    30    45    48    1
    31    45    46    1
    32     7     6    1
    33    53    51   ar
    34    35    34    1
    35     8     6    1
    36    46    47    2
    37    46    56   am
    38     6     5    1
    39    62    60    1
    40    32    34   ar
    41    32    30   ar
    42    56    57    1
    43    34    33   ar
    44    97    96    2
    45    98    99    1
    46    98    95    1
    47    36    37    1
    48    96    95    1
    49    38    37    1
    50    38    39    2
    51     1     2    1
    52    37    40    1
    53    99   100    1
    54     5     2    1
    55    57    60    1
    56    57    58    1
    57    30    29   ar
    58    95    94    1
    59    60    61    1
    60    33    31   ar
    61    42    41    1
    62    42    43    1
    63     2     3    1
    64    61    63    1
    65   100   101   ar
    66   100   102   ar
    67    40    41    1
    68    29    31   ar
    69    29    28    1
    70    24    25    1
    71    58    59    2
    72    82    83   ar
    73    82    80   ar
    74    83    81   ar
    75    80    78   ar
    76    81    79   ar
    77    78    79   ar
    78    78    77    1
    79     3     4    2
    80    77    74    1
    81    25    28    1
    82    25    26    1
    83    15    13    1
    84    26    27    2
    85    74    75    1
    86    74    73    1
    87    75    76    2
    88    73    66   am
    89    64    65    1
    90    68    65    1
    91    68    69    1
    92    13    14    1
    93    13    10    1
    94    70    69    1
    95    70    71    1
    96    66    65    1
    97    66    67    2
    98    72    71    1
    99    12    11    2
   100    23    21   ar
   101     9    10    1
   102    11    10    1
   103    21    20    1
   104    21    22   ar
   105    16    17    1
   106    20    17    1
   107    17    18    1
   108    19    18    2
