@<TRIPOS>MOLECULE
tmp/3rhhD00.pdb
 184 180 0 0 0
SMALL
GASTEIGER

@<TRIPOS>ATOM
      1  N          7.1010  -27.0240   -9.2790 N.3   151  ILE151     -0.1231
      2  CA         6.8750  -27.6830  -10.5520 C.3   151  ILE151      0.1692
      3  C          6.6040  -29.1550  -10.2680 C.2   151  ILE151      0.2593
      4  O          7.2980  -29.7840   -9.4600 O.2   151  ILE151     -0.2718
      5  CB         8.0660  -27.4960  -11.5160 C.3   151  ILE151      0.0266
      6  CG1        8.5570  -26.0410  -11.4890 C.3   151  ILE151      0.0019
      7  CG2        7.6830  -27.8750  -12.9320 C.3   151  ILE151      0.0020
      8  CD1        9.8970  -25.8230  -12.1880 C.3   151  ILE151      0.0001
      9  N          5.5780  -29.6920  -10.9170 N.am  152  SER152     -0.1939
     10  CA         5.1050  -31.0420  -10.6340 C.3   152  SER152      0.2040
     11  C          4.8240  -31.8150  -11.9370 C.2   152  SER152      0.2485
     12  O          4.6240  -31.2080  -12.9880 O.2   152  SER152     -0.2729
     13  CB         3.8600  -30.9810   -9.7380 C.3   152  SER152      0.2129
     14  OG         2.8130  -30.2450  -10.3530 O.3   152  SER152     -0.2179
     15  N          4.8390  -33.1550  -11.8740 N.am  153  PRO153     -0.2715
     16  CA         4.6970  -33.9600  -13.0650 C.3   153  PRO153      0.1536
     17  C          3.2380  -34.4280  -13.2670 C.2   153  PRO153      0.2598
     18  O          2.3580  -34.0990  -12.4640 O.2   153  PRO153     -0.2715
     19  CB         5.5850  -35.1560  -12.7380 C.3   153  PRO153      0.0310
     20  CG         5.3320  -35.3710  -11.3100 C.3   153  PRO153      0.0237
     21  CD         5.0590  -34.0120  -10.6960 C.3   153  PRO153      0.0939
     22  N          3.0010  -35.1820  -14.3340 N.am  154  PHE154     -0.1974
     23  CA         1.6810  -35.7370  -14.6190 C.3   154  PHE154      0.1639
     24  C          1.4250  -36.9500  -13.7090 C.2   154  PHE154      0.2290
     25  O          0.2860  -37.2950  -13.4280 O.2   154  PHE154     -0.2864
     26  CB         1.5930  -36.1420  -16.0990 C.3   154  PHE154      0.0560
     27  CG         2.1210  -37.5160  -16.3830 C.ar  154  PHE154     -0.0200
     28  CD1        1.3080  -38.6290  -16.2310 C.ar  154  PHE154     -0.0042
     29  CD2        3.4310  -37.7020  -16.7820 C.ar  154  PHE154     -0.0042
     30  CE1        1.7960  -39.9060  -16.4720 C.ar  154  PHE154     -0.0003
     31  CE2        3.9220  -38.9780  -17.0290 C.ar  154  PHE154     -0.0003
     32  CZ         3.0990  -40.0810  -16.8710 C.ar  154  PHE154     -0.0000
     33  N          3.6020  -24.4110  -11.2130 N.3   178  LYS178     -0.1231
     34  CA         3.6080  -24.8500  -12.6100 C.3   178  LYS178      0.1678
     35  C          3.3160  -26.3510  -12.6960 C.2   178  LYS178      0.2434
     36  O          4.2300  -27.1770  -12.5250 O.2   178  LYS178     -0.2733
     37  CB         4.9650  -24.5180  -13.2680 C.3   178  LYS178      0.0284
     38  CG         5.1720  -25.0210  -14.7090 C.3   178  LYS178      0.0035
     39  CD         4.0340  -24.5710  -15.6790 C.3   178  LYS178      0.0206
     40  CE         4.3520  -24.9180  -17.1350 C.3   178  LYS178      0.1093
     41  NZ         4.4640  -26.3920  -17.3820 N.3   178  LYS178     -0.1314
     42  N          2.0490  -26.7130  -12.9700 N.am  179  PRO179     -0.2718
     43  CA         1.6940  -28.1180  -13.1030 C.3   179  PRO179      0.1535
     44  C          2.2030  -28.6580  -14.4270 C.2   179  PRO179      0.2598
     45  O          2.6020  -27.8750  -15.2990 O.2   179  PRO179     -0.2715
     46  CB         0.1610  -28.0900  -13.1300 C.3   179  PRO179      0.0310
     47  CG        -0.1850  -26.7660  -13.6690 C.3   179  PRO179      0.0237
     48  CD         0.8940  -25.8270  -13.2200 C.3   179  PRO179      0.0939
     49  N          2.1900  -29.9770  -14.5840 N.am  180  ALA180     -0.1964
     50  CA         2.4410  -30.5420  -15.8880 C.3   180  ALA180      0.1728
     51  C          1.2100  -30.2820  -16.7600 C.2   180  ALA180      0.2617
     52  O          0.0830  -30.5120  -16.3380 O.2   180  ALA180     -0.2715
     53  CB         2.7460  -32.0160  -15.7720 C.3   180  ALA180      0.0334
     54  N          1.4380  -29.7630  -17.9620 N.am  181  THR181     -0.1937
     55  CA         0.3640  -29.4050  -18.8890 C.3   181  THR181      0.2028
     56  C         -0.7240  -30.4810  -18.9450 C.2   181  THR181      0.2642
     57  O         -1.9230  -30.1830  -18.8220 O.2   181  THR181     -0.2714
     58  CB         0.9410  -29.0680  -20.2770 C.3   181  THR181      0.1808
     59  OG1        1.4670  -27.7340  -20.2390 O.3   181  THR181     -0.2208
     60  CG2       -0.1120  -29.1800  -21.3920 C.3   181  THR181      0.0379
     61  N         -0.2990  -31.7270  -19.1210 N.am  182  GLN182     -0.1976
     62  CA        -1.1680  -32.8680  -18.8960 C.3   182  GLN182      0.1601
     63  C         -1.1200  -33.1100  -17.3870 C.2   182  GLN182      0.2287
     64  O         -0.0570  -33.4120  -16.8220 O.2   182  GLN182     -0.2864
     65  CB        -0.6870  -34.0870  -19.6990 C.3   182  GLN182      0.0394
     66  CG        -1.6760  -35.2590  -19.7630 C.3   182  GLN182      0.0908
     67  CD        -2.8010  -35.0390  -20.7720 C.2   182  GLN182      0.2608
     68  OE1       -2.6100  -34.3920  -21.7990 O.2   182  GLN182     -0.2717
     69  NE2       -3.9760  -35.5860  -20.4770 N.am  182  GLN182     -0.0878
     70  N          1.2090  -23.2120  -19.3500 N.3   209  GLY209     -0.1210
     71  CA         1.7930  -22.9770  -20.6640 C.3   209  GLY209      0.1956
     72  C          2.6680  -24.1580  -21.0190 C.2   209  GLY209      0.2612
     73  O          2.8520  -25.0660  -20.2020 O.2   209  GLY209     -0.2717
     74  N          3.2380  -24.1260  -22.2210 N.am  210  ARG210     -0.1965
     75  CA         3.8660  -25.3100  -22.8190 C.3   210  ARG210      0.1729
     76  C          5.0730  -25.9000  -22.0870 C.2   210  ARG210      0.2617
     77  O          5.5000  -27.0120  -22.4140 O.2   210  ARG210     -0.2715
     78  CB         4.2200  -25.0660  -24.2860 C.3   210  ARG210      0.0348
     79  CG         3.0570  -25.2240  -25.2470 C.3   210  ARG210      0.0492
     80  CD         3.4160  -26.1920  -26.3640 C.3   210  ARG210      0.2205
     81  NE         2.9820  -27.5510  -26.0490 N.pl3 210  ARG210     -0.0865
     82  CZ         1.8990  -28.1300  -26.5610 C.cat 210  ARG210      0.5346
     83  NH1        1.5810  -29.3680  -26.2050 N.pl3 210  ARG210      0.1354
     84  NH2        1.1350  -27.4770  -27.4300 N.pl3 210  ARG210      0.1354
     85  N          5.6270  -25.1790  -21.1200 N.am  211  GLY211     -0.1940
     86  CA         6.7350  -25.7150  -20.3310 C.3   211  GLY211      0.2014
     87  C          8.0620  -25.6470  -21.0640 C.2   211  GLY211      0.2639
     88  O          9.0550  -25.1310  -20.5410 O.2   211  GLY211     -0.2714
     89  N          8.0700  -26.1740  -22.2850 N.am  212  SER212     -0.1949
     90  CA         9.2210  -26.0960  -23.1710 C.3   212  SER212      0.1924
     91  C          9.3690  -24.6800  -23.7310 C.2   212  SER212      0.2314
     92  O         10.4300  -24.3200  -24.2540 O.2   212  SER212     -0.2863
     93  CB         9.0710  -27.0970  -24.3150 C.3   212  SER212      0.2116
     94  OG        10.2910  -27.2410  -25.0140 O.3   212  SER212     -0.2180
     95  N          9.1510  -22.3150  -19.5180 N.3   215  GLY215     -0.1210
     96  CA         9.7870  -22.8830  -18.3350 C.3   215  GLY215      0.1956
     97  C         11.1300  -22.3040  -17.9260 C.2   215  GLY215      0.2611
     98  O         11.4390  -22.2450  -16.7290 O.2   215  GLY215     -0.2717
     99  N         11.9330  -21.8910  -18.9090 N.am  216  ASP216     -0.1973
    100  CA        13.2790  -21.3600  -18.6510 C.3   216  ASP216      0.1709
    101  C         13.2710  -19.9400  -18.1010 C.2   216  ASP216      0.2293
    102  O         14.1460  -19.5750  -17.3030 O.2   216  ASP216     -0.2864
    103  CB        14.1560  -21.4370  -19.9040 C.3   216  ASP216      0.1436
    104  CG        14.5890  -22.8640  -20.2430 C.2   216  ASP216      0.3671
    105  OD1       14.0350  -23.8330  -19.6770 O.co2 216  ASP216     -0.2456
    106  OD2       15.4860  -23.0130  -21.0980 O.co2 216  ASP216     -0.2456
    107  N         10.7340  -18.7390  -16.2040 N.3   218  LEU218     -0.1231
    108  CA        10.3960  -19.1460  -14.8420 C.3   218  LEU218      0.1693
    109  C         11.5930  -19.5580  -13.9730 C.2   218  LEU218      0.2591
    110  O         11.8250  -18.9670  -12.9120 O.2   218  LEU218     -0.2718
    111  CB         9.3880  -20.2850  -14.8890 C.3   218  LEU218      0.0284
    112  CG         7.9300  -19.8660  -14.8050 C.3   218  LEU218      0.0019
    113  CD1        7.0310  -21.0760  -15.0030 C.3   218  LEU218      0.0001
    114  CD2        7.6810  -19.2050  -13.4560 C.3   218  LEU218      0.0001
    115  N         12.3440  -20.5590  -14.4290 N.am  219  VAL219     -0.1980
    116  CA        13.4820  -21.1010  -13.6790 C.3   219  VAL219      0.1595
    117  C         14.5330  -20.0490  -13.3120 C.2   219  VAL219      0.2287
    118  O         15.0170  -20.0290  -12.1870 O.2   219  VAL219     -0.2864
    119  CB        14.1370  -22.2940  -14.4280 C.3   219  VAL219      0.0276
    120  CG1       15.4960  -22.6510  -13.8380 C.3   219  VAL219      0.0022
    121  CG2       13.2360  -23.4900  -14.3790 C.3   219  VAL219      0.0022
    122  N         11.0570  -29.4020   -7.6640 N.3   229  PHE229     -0.1227
    123  CA        10.7130  -30.0160   -8.9140 C.3   229  PHE229      0.1736
    124  C         10.6650  -31.5180   -8.7740 C.2   229  PHE229      0.2596
    125  O         11.5270  -32.1190   -8.1340 O.2   229  PHE229     -0.2718
    126  CB        11.7500  -29.6180   -9.9660 C.3   229  PHE229      0.0547
    127  CG        11.6080  -30.3370  -11.2780 C.ar  229  PHE229     -0.0202
    128  CD1       10.6040  -29.9780  -12.1860 C.ar  229  PHE229     -0.0042
    129  CD2       12.4980  -31.3540  -11.6260 C.ar  229  PHE229     -0.0042
    130  CE1       10.4810  -30.6230  -13.4170 C.ar  229  PHE229     -0.0003
    131  CE2       12.3900  -32.0040  -12.8510 C.ar  229  PHE229     -0.0003
    132  CZ        11.3620  -31.6420  -13.7540 C.ar  229  PHE229     -0.0000
    133  N          9.6310  -32.1060   -9.3720 N.am  230  THR230     -0.1939
    134  CA         9.5800  -33.5300   -9.6200 C.3   230  THR230      0.2028
    135  C          9.1870  -33.7370  -11.0770 C.2   230  THR230      0.2643
    136  O          8.1280  -33.2690  -11.5230 O.2   230  THR230     -0.2714
    137  CB         8.5540  -34.2420   -8.7160 C.3   230  THR230      0.1808
    138  OG1        8.8820  -34.0090   -7.3500 O.3   230  THR230     -0.2208
    139  CG2        8.5470  -35.7500   -8.9650 C.3   230  THR230      0.0379
    140  N         10.0400  -34.4430  -11.8120 N.am  231  GLY231     -0.1939
    141  CA         9.7380  -34.7940  -13.1890 C.3   231  GLY231      0.2014
    142  C         10.8170  -35.6370  -13.8190 C.2   231  GLY231      0.2639
    143  O         11.5670  -36.3160  -13.1090 O.2   231  GLY231     -0.2714
    144  N         10.8840  -35.5930  -15.1520 N.am  232  GLY232     -0.1954
    145  CA        11.8950  -36.3090  -15.9140 C.3   232  GLY232      0.1869
    146  C         13.2950  -35.8640  -15.5420 C.2   232  GLY232      0.2309
    147  O         13.5190  -34.7070  -15.1880 O.2   232  GLY232     -0.2863
    148  N         14.9260  -32.8250  -17.6430 N.3   235  THR235     -0.1218
    149  CA        14.4630  -31.5020  -17.2250 C.3   235  THR235      0.1862
    150  C         15.0180  -31.0760  -15.8690 C.2   235  THR235      0.2287
    151  O         15.2100  -29.8890  -15.6250 O.2   235  THR235     -0.2866
    152  CB        12.9420  -31.4440  -17.1670 C.3   235  THR235      0.1770
    153  OG1       12.4080  -31.9050  -18.4130 O.3   235  THR235     -0.2211
    154  CG2       12.4640  -30.0160  -16.9040 C.3   235  THR235      0.0375
    155  N         18.3850  -29.6570  -16.5750 N.3   238  ARG238     -0.1231
    156  CA        18.1680  -28.2870  -17.0680 C.3   238  ARG238      0.1694
    157  C         18.0940  -27.3130  -15.8960 C.2   238  ARG238      0.2591
    158  O         18.9220  -26.4040  -15.7840 O.2   238  ARG238     -0.2718
    159  CB        16.8590  -28.1650  -17.8640 C.3   238  ARG238      0.0321
    160  CG        16.9390  -28.3480  -19.3580 C.3   238  ARG238      0.0489
    161  CD        15.8800  -27.4910  -20.0510 C.3   238  ARG238      0.2205
    162  NE        16.4380  -26.2250  -20.5230 N.pl3 238  ARG238     -0.0865
    163  CZ        16.8480  -25.9950  -21.7730 C.cat 238  ARG238      0.5346
    164  NH1       17.3540  -24.8150  -22.0980 N.pl3 238  ARG238      0.1354
    165  NH2       16.7480  -26.9350  -22.7050 N.pl3 238  ARG238      0.1354
    166  N         17.1060  -27.5390  -15.0250 N.am  239  ILE239     -0.1980
    167  CA        16.7910  -26.6750  -13.8800 C.3   239  ILE239      0.1595
    168  C         18.0040  -26.3960  -12.9840 C.2   239  ILE239      0.2287
    169  O         18.3380  -25.2440  -12.7560 O.2   239  ILE239     -0.2864
    170  CB        15.5770  -27.2320  -13.0680 C.3   239  ILE239      0.0276
    171  CG1       14.2740  -26.9650  -13.8400 C.3   239  ILE239      0.0022
    172  CG2       15.5150  -26.6280  -11.6420 C.3   239  ILE239      0.0022
    173  CD1       13.1880  -27.9870  -13.6280 C.3   239  ILE239      0.0001
    174  N          9.4740  -46.1510  -17.5920 N.3   380  PHE380     -0.1241
    175  CA         8.2570  -45.4350  -17.2270 C.3   380  PHE380      0.1605
    176  C          7.0670  -46.0590  -17.9730 C.2   380  PHE380      0.2264
    177  O          6.2940  -45.3680  -18.6390 O.2   380  PHE380     -0.2867
    178  CB         8.4050  -43.9330  -17.4940 C.3   380  PHE380      0.0534
    179  CG         7.9710  -43.0610  -16.3470 C.ar  380  PHE380     -0.0203
    180  CD1        8.7360  -42.9860  -15.1840 C.ar  380  PHE380     -0.0042
    181  CD2        6.8050  -42.3030  -16.4320 C.ar  380  PHE380     -0.0042
    182  CE1        8.3440  -42.1830  -14.1110 C.ar  380  PHE380     -0.0003
    183  CE2        6.4010  -41.4890  -15.3580 C.ar  380  PHE380     -0.0003
    184  CZ         7.1810  -41.4260  -14.2000 C.ar  380  PHE380     -0.0000
@<TRIPOS>BOND
     1    84    82    1
     2    82    83    1
     3    82    81    2
     4    80    81    1
     5    80    79    1
     6    79    78    1
     7    94    93    1
     8    93    90    1
     9    78    75    1
    10    92    91    2
    11    91    90    1
    12    90    89    1
    13    75    74    1
    14    75    76    1
    15   165   163    1
    16    77    76    2
    17    89    87   am
    18    74    72   am
    19   164   163    1
    20    76    85   am
    21    68    67    2
    22   163   162    2
    23    60    58    1
    24    85    86    1
    25   106   104   ar
    26    87    88    2
    27    87    86    1
    28    72    71    1
    29    72    73    2
    30    67    69   am
    31    67    66    1
    32    71    70    1
    33   162   161    1
    34    58    59    1
    35    58    55    1
    36   104   103    1
    37   104   105   ar
    38   161   160    1
    39   103   100    1
    40    66    65    1
    41    65    62    1
    42    95    96    1
    43   160   159    1
    44    61    56   am
    45    61    62    1
    46    56    55    1
    47    56    57    2
    48    99   100    1
    49    99    97   am
    50    62    63    1
    51    55    54    1
    52   100   101    1
    53   177   176    2
    54   153   152    1
    55    96    97    1
    56   101   102    2
    57   176   175    1
    58    54    51   am
    59    97    98    2
    60   159   156    1
    61   148   149    1
    62   174   175    1
    63   178   175    1
    64   178   179    1
    65    63    64    2
    66    41    40    1
    67   149   152    1
    68   149   150    1
    69   152   154    1
    70    40    39    1
    71   156   155    1
    72   156   157    1
    73    31    32   ar
    74    31    29   ar
    75    32    30   ar
    76    29    27   ar
    77    51    52    2
    78    51    50    1
    79    30    28   ar
    80   181   179   ar
    81   181   183   ar
    82    27    28   ar
    83    27    26    1
    84   179   180   ar
    85   107   108    1
    86    26    23    1
    87   145   146    1
    88   145   144    1
    89   157   158    2
    90   157   166   am
    91    50    53    1
    92    50    49    1
    93   150   151    2
    94    39    38    1
    95   146   147    2
    96   183   184   ar
    97    45    44    2
    98   180   182   ar
    99   144   142   am
   100   166   167    1
   101   113   112    1
   102   111   108    1
   103   111   112    1
   104   108   109    1
   105   112   114    1
   106    38    37    1
   107    23    22    1
   108    23    24    1
   109    49    44   am
   110   115   109   am
   111   115   116    1
   112   119   121    1
   113   119   120    1
   114   119   116    1
   115    44    43    1
   116    22    17   am
   117   184   182   ar
   118   109   110    2
   119   167   170    1
   120   167   168    1
   121   171   173    1
   122   171   170    1
   123   142   141    1
   124   142   143    2
   125   132   130   ar
   126   132   131   ar
   127    24    25    2
   128   116   117    1
   129    47    48    1
   130    47    46    1
   131   130   128   ar
   132   117   118    2
   133    37    34    1
   134    17    16    1
   135    17    18    2
   136    48    42    1
   137   141   140    1
   138    46    43    1
   139    43    42    1
   140   170   172    1
   141    16    19    1
   142    16    15    1
   143    12    11    2
   144   168   169    2
   145    42    35   am
   146     7     5    1
   147   131   129   ar
   148    19    20    1
   149    35    34    1
   150    35    36    2
   151    34    33    1
   152     8     6    1
   153   128   127   ar
   154    11    15   am
   155    11    10    1
   156    15    21    1
   157   140   135   am
   158   129   127   ar
   159   136   135    2
   160     5     6    1
   161     5     2    1
   162    20    21    1
   163   127   126    1
   164   135   134    1
   165     9    10    1
   166     9     3   am
   167    10    13    1
   168     2     3    1
   169     2     1    1
   170    14    13    1
   171     3     4    2
   172   126   123    1
   173   134   133    1
   174   134   137    1
   175   133   124   am
   176   139   137    1
   177   123   124    1
   178   123   122    1
   179   124   125    2
   180   137   138    1
