@<TRIPOS>MOLECULE
tmp/3rhkB00.pdb
 143 136 0 0 0
SMALL
GASTEIGER

@<TRIPOS>ATOM
      1  N        -19.5740  -14.4400  -19.6810 N.3    39  ILE39      -0.1231
      2  CA       -20.0140  -15.6760  -19.0420 C.3    39  ILE39       0.1692
      3  C        -19.7660  -16.8610  -19.9830 C.2    39  ILE39       0.2592
      4  O        -19.1780  -17.8660  -19.5830 O.2    39  ILE39      -0.2718
      5  CB       -21.4970  -15.6350  -18.6100 C.3    39  ILE39       0.0266
      6  CG1      -21.7170  -14.5620  -17.5380 C.3    39  ILE39       0.0019
      7  CG2      -21.9290  -17.0020  -18.0910 C.3    39  ILE39       0.0020
      8  CD1      -23.1450  -14.4200  -17.0720 C.3    39  ILE39       0.0001
      9  N        -20.2110  -16.7210  -21.2280 N.am   40  GLY40      -0.1957
     10  CA       -20.0150  -17.7410  -22.2430 C.3    40  GLY40       0.1869
     11  C        -20.1420  -17.1610  -23.6280 C.2    40  GLY40       0.2309
     12  O        -20.7680  -16.1190  -23.8190 O.2    40  GLY40      -0.2863
     13  N        -24.9060  -18.9280  -30.1190 N.3    44  PHE44      -0.1241
     14  CA       -25.9100  -18.0070  -29.5580 C.3    44  PHE44       0.1605
     15  C        -25.4280  -16.5550  -29.4980 C.2    44  PHE44       0.2264
     16  O        -26.2390  -15.6370  -29.4470 O.2    44  PHE44      -0.2867
     17  CB       -26.3780  -18.4640  -28.1550 C.3    44  PHE44       0.0534
     18  CG       -25.2560  -18.6920  -27.1700 C.ar   44  PHE44      -0.0203
     19  CD1      -24.7740  -19.9770  -26.9350 C.ar   44  PHE44      -0.0042
     20  CD2      -24.6840  -17.6290  -26.4750 C.ar   44  PHE44      -0.0042
     21  CE1      -23.7350  -20.1960  -26.0320 C.ar   44  PHE44      -0.0003
     22  CE2      -23.6400  -17.8480  -25.5730 C.ar   44  PHE44      -0.0003
     23  CZ       -23.1780  -19.1340  -25.3540 C.ar   44  PHE44      -0.0000
     24  N        -22.6580  -13.8530  -23.9670 N.3    47  VAL47      -0.1245
     25  CA       -23.3870  -13.5470  -22.7300 C.3    47  VAL47       0.1561
     26  C        -22.4070  -12.9640  -21.7140 C.2    47  VAL47       0.2260
     27  O        -21.4090  -13.6070  -21.3790 O.2    47  VAL47      -0.2867
     28  CB       -24.1140  -14.7940  -22.1620 C.3    47  VAL47       0.0252
     29  CG1      -24.9030  -14.4480  -20.9180 C.3    47  VAL47       0.0019
     30  CG2      -25.0380  -15.3830  -23.2120 C.3    47  VAL47       0.0019
     31  N        -26.9220  -12.1100  -15.8310 N.3    63  ALA63      -0.1245
     32  CA       -26.4070  -12.4660  -17.1290 C.3    63  ALA63       0.1562
     33  C        -27.0670  -11.5720  -18.1550 C.2    63  ALA63       0.2260
     34  O        -28.2950  -11.3880  -18.1370 O.2    63  ALA63      -0.2867
     35  CB       -26.7100  -13.9370  -17.4330 C.3    63  ALA63       0.0290
     36  N        -27.5400  -10.2320  -22.2480 N.3    65  LYS65      -0.1245
     37  CA       -27.2440  -10.3660  -23.6630 C.3    65  LYS65       0.1561
     38  C        -28.0790   -9.4930  -24.5960 C.2    65  LYS65       0.2260
     39  O        -29.2470   -9.1930  -24.3320 O.2    65  LYS65      -0.2867
     40  CB       -27.1590  -11.8390  -24.0590 C.3    65  LYS65       0.0271
     41  CG       -28.4210  -12.5230  -24.3960 C.3    65  LYS65       0.0035
     42  CD       -28.4590  -12.7730  -25.8910 C.3    65  LYS65       0.0206
     43  CE       -27.0990  -13.2140  -26.4500 C.3    65  LYS65       0.1093
     44  NZ       -27.1190  -13.1540  -27.9600 N.3    65  LYS65      -0.1314
     45  N        -37.4720  -20.5260  -16.0770 N.3    95  LEU95      -0.1245
     46  CA       -36.5560  -19.3880  -16.1170 C.3    95  LEU95       0.1561
     47  C        -37.2300  -18.1460  -16.6840 C.2    95  LEU95       0.2260
     48  O        -37.7280  -18.1450  -17.8150 O.2    95  LEU95      -0.2867
     49  CB       -35.2920  -19.7240  -16.9220 C.3    95  LEU95       0.0270
     50  CG       -34.2390  -18.6250  -17.0290 C.3    95  LEU95       0.0019
     51  CD1      -33.5910  -18.3520  -15.6790 C.3    95  LEU95       0.0001
     52  CD2      -33.1960  -19.0220  -18.0430 C.3    95  LEU95       0.0001
     53  N        -30.8690  -11.8310  -17.3750 N.3   112  LEU112     -0.1231
     54  CA       -31.3030  -13.0810  -16.7550 C.3   112  LEU112      0.1678
     55  C        -30.6500  -13.3050  -15.4070 C.2   112  LEU112      0.2434
     56  O        -29.5640  -12.7660  -15.1560 O.2   112  LEU112     -0.2733
     57  CB       -31.0390  -14.2670  -17.6930 C.3   112  LEU112      0.0284
     58  CG       -32.1660  -14.2320  -18.7200 C.3   112  LEU112      0.0019
     59  CD1      -31.6990  -13.6240  -20.0260 C.3   112  LEU112      0.0001
     60  CD2      -32.7710  -15.5800  -18.8950 C.3   112  LEU112      0.0001
     61  N        -31.2900  -14.1240  -14.5410 N.am  113  PRO113     -0.2718
     62  CA       -30.6290  -14.4440  -13.2850 C.3   113  PRO113      0.1535
     63  C        -29.3810  -15.2420  -13.6080 C.2   113  PRO113      0.2599
     64  O        -29.3600  -15.9940  -14.5890 O.2   113  PRO113     -0.2715
     65  CB       -31.6480  -15.3200  -12.5370 C.3   113  PRO113      0.0310
     66  CG       -32.9130  -15.2410  -13.2940 C.3   113  PRO113      0.0237
     67  CD       -32.5810  -14.8200  -14.6900 C.3   113  PRO113      0.0939
     68  N        -28.3380  -15.0490  -12.8200 N.am  114  TYR114     -0.1960
     69  CA       -27.1090  -15.7730  -13.0290 C.3   114  TYR114      0.1771
     70  C        -27.3530  -17.2240  -12.6430 C.2   114  TYR114      0.2619
     71  O        -27.9050  -17.5250  -11.5710 O.2   114  TYR114     -0.2715
     72  CB       -25.9750  -15.1610  -12.2130 C.3   114  TYR114      0.0574
     73  CG       -24.6580  -15.8920  -12.3550 C.ar  114  TYR114     -0.0198
     74  CD1      -23.9460  -15.8730  -13.5600 C.ar  114  TYR114     -0.0009
     75  CD2      -24.1180  -16.5930  -11.2770 C.ar  114  TYR114     -0.0009
     76  CE1      -22.7310  -16.5510  -13.6880 C.ar  114  TYR114      0.0417
     77  CE2      -22.9090  -17.2670  -11.3950 C.ar  114  TYR114      0.0417
     78  CZ       -22.2200  -17.2440  -12.5980 C.ar  114  TYR114      0.1957
     79  OH       -21.0140  -17.9220  -12.6900 O.3   114  TYR114     -0.2866
     80  N        -26.9780  -18.1120  -13.5530 N.am  115  MET115     -0.1963
     81  CA       -27.1610  -19.5330  -13.3640 C.3   115  MET115      0.1736
     82  C        -25.7660  -20.1130  -13.3450 C.2   115  MET115      0.2616
     83  O        -25.1310  -20.2670  -14.3840 O.2   115  MET115     -0.2715
     84  CB       -28.0490  -20.1160  -14.4810 C.3   115  MET115      0.0427
     85  CG       -29.4520  -19.5020  -14.5300 C.3   115  MET115      0.0599
     86  SD       -30.5340  -20.1090  -13.2000 S.3   115  MET115     -0.1393
     87  CE       -31.4960  -18.6900  -12.7410 C.3   115  MET115      0.0692
     88  N        -25.2770  -20.3730  -12.1340 N.am  116  LYS116     -0.1977
     89  CA       -23.9020  -20.7920  -11.8980 C.3   116  LYS116      0.1596
     90  C        -23.4600  -21.9920  -12.7430 C.2   116  LYS116      0.2287
     91  O        -22.3340  -22.0190  -13.2450 O.2   116  LYS116     -0.2864
     92  CB       -23.6940  -21.1000  -10.4100 C.3   116  LYS116      0.0298
     93  CG       -22.2600  -21.5110  -10.0650 C.3   116  LYS116      0.0038
     94  CD       -22.1480  -21.8890   -8.5960 C.3   116  LYS116      0.0206
     95  CE       -20.7020  -21.8330   -8.1160 C.3   116  LYS116      0.1093
     96  NZ       -20.6640  -21.2610   -6.7410 N.3   116  LYS116     -0.1314
     97  N        -24.7810  -23.1850  -15.6190 N.3   118  GLY118     -0.1210
     98  CA       -25.1310  -23.1180  -17.0390 C.3   118  GLY118      0.1956
     99  C        -26.2310  -24.0950  -17.4050 C.2   118  GLY118      0.2611
    100  O        -27.1130  -24.3850  -16.5830 O.2   118  GLY118     -0.2717
    101  N        -26.1840  -24.6110  -18.6290 N.am  119  ASP119     -0.1973
    102  CA       -27.2140  -25.5390  -19.0760 C.3   119  ASP119      0.1709
    103  C        -26.9990  -26.9420  -18.5110 C.2   119  ASP119      0.2293
    104  O        -25.8770  -27.3350  -18.1850 O.2   119  ASP119     -0.2864
    105  CB       -27.3810  -25.5360  -20.6030 C.3   119  ASP119      0.1436
    106  CG       -26.2410  -26.2300  -21.3330 C.2   119  ASP119      0.3671
    107  OD1      -26.2620  -27.4730  -21.4600 O.co2 119  ASP119     -0.2456
    108  OD2      -25.3490  -25.5240  -21.8320 O.co2 119  ASP119     -0.2456
    109  N        -31.5270  -24.4950  -17.4420 N.3   166  MET166     -0.1245
    110  CA       -30.4310  -23.9110  -16.7030 C.3   166  MET166      0.1570
    111  C        -30.3760  -24.4400  -15.2260 C.2   166  MET166      0.2261
    112  O        -31.3440  -24.8340  -14.6790 O.2   166  MET166     -0.2867
    113  CB       -30.4820  -22.3970  -16.8040 C.3   166  MET166      0.0387
    114  CG       -30.5330  -21.8510  -18.2630 C.3   166  MET166      0.0595
    115  SD       -28.9940  -22.2940  -19.0140 S.3   166  MET166     -0.1393
    116  CE       -29.5750  -22.6410  -20.6250 C.3   166  MET166      0.0692
    117  N        -35.1560  -19.4790  -24.7810 N.3   178  PHE178     -0.1241
    118  CA       -34.3340  -18.4720  -25.2890 C.3   178  PHE178      0.1605
    119  C        -34.7980  -18.0410  -26.6730 C.2   178  PHE178      0.2264
    120  O        -35.3780  -16.9920  -26.7790 O.2   178  PHE178     -0.2867
    121  CB       -32.8640  -18.7760  -25.1200 C.3   178  PHE178      0.0534
    122  CG       -32.4040  -18.6290  -23.7140 C.ar  178  PHE178     -0.0203
    123  CD1      -32.3190  -17.4230  -23.1510 C.ar  178  PHE178     -0.0042
    124  CD2      -32.0960  -19.6830  -22.9770 C.ar  178  PHE178     -0.0042
    125  CE1      -31.9030  -17.3000  -21.9000 C.ar  178  PHE178     -0.0003
    126  CE2      -31.7000  -19.5650  -21.7300 C.ar  178  PHE178     -0.0003
    127  CZ       -31.6000  -18.3830  -21.1810 C.ar  178  PHE178     -0.0000
    128  N        -32.9800  -15.0440  -28.3730 N.3   181  ALA181     -0.1231
    129  CA       -31.7130  -14.6100  -27.8200 C.3   181  ALA181      0.1694
    130  C        -30.5370  -15.3190  -28.4580 C.2   181  ALA181      0.2591
    131  O        -29.4640  -14.8460  -28.3980 O.2   181  ALA181     -0.2718
    132  CB       -31.6700  -14.8270  -26.3950 C.3   181  ALA181      0.0304
    133  N        -30.7860  -16.4760  -29.0360 N.am  182  ARG182     -0.1980
    134  CA       -29.7590  -17.1860  -29.7600 C.3   182  ARG182      0.1597
    135  C        -29.5000  -16.5330  -31.1180 C.2   182  ARG182      0.2287
    136  O        -30.3260  -16.5770  -31.9360 O.2   182  ARG182     -0.2864
    137  CB       -30.0920  -18.6640  -29.9580 C.3   182  ARG182      0.0334
    138  CG       -30.2120  -19.4790  -28.7280 C.3   182  ARG182      0.0492
    139  CD       -30.6160  -20.8860  -28.9660 C.3   182  ARG182      0.2205
    140  NE       -30.7520  -21.6110  -27.7280 N.pl3 182  ARG182     -0.0865
    141  CZ       -29.7350  -22.0610  -27.0170 C.cat 182  ARG182      0.5346
    142  NH1      -28.5360  -21.8950  -27.4470 N.pl3 182  ARG182      0.1354
    143  NH2      -29.9240  -22.7100  -25.9040 N.pl3 182  ARG182      0.1354
@<TRIPOS>BOND
     1   136   135    2
     2   135   134    1
     3    13    14    1
     4   137   134    1
     5   137   138    1
     6   134   133    1
     7    14    15    1
     8    14    17    1
     9    15    16    2
    10   133   130   am
    11   139   138    1
    12   139   140    1
    13   130   131    2
    14   130   129    1
    15   128   129    1
    16    17    18    1
    17    44    43    1
    18   129   132    1
    19   140   141    2
    20   142   141    1
    21    18    19   ar
    22    18    20   ar
    23   141   143    1
    24    19    21   ar
    25   120   119    2
    26   119   118    1
    27    20    22   ar
    28    43    42    1
    29    21    23   ar
    30    42    41    1
    31    22    23   ar
    32   118   121    1
    33   118   117    1
    34   121   122    1
    35    38    39    2
    36    38    37    1
    37    41    40    1
    38    40    37    1
    39    24    25    1
    40    12    11    2
    41   122   123   ar
    42   122   124   ar
    43    37    36    1
    44    11    10    1
    45    30    28    1
    46   123   125   ar
    47   124   126   ar
    48    25    28    1
    49    25    26    1
    50    10     9    1
    51    28    29    1
    52   125   127   ar
    53   108   106   ar
    54   126   127   ar
    55    26    27    2
    56   107   106   ar
    57   106   105    1
    58     9     3   am
    59   116   115    1
    60   105   102    1
    61    59    58    1
    62     3     4    2
    63     3     2    1
    64     1     2    1
    65   102   101    1
    66   102   103    1
    67     2     5    1
    68   115   114    1
    69    60    58    1
    70    58    57    1
    71   101    99   am
    72     5     7    1
    73     5     6    1
    74   103   104    2
    75   114   113    1
    76    33    34    2
    77    33    32    1
    78    52    50    1
    79    48    47    2
    80    57    54    1
    81     6     8    1
    82   109   110    1
    83    35    32    1
    84    99    98    1
    85    99   100    2
    86    53    54    1
    87    32    31    1
    88    98    97    1
    89    50    49    1
    90    50    51    1
    91    49    46    1
    92   113   110    1
    93    54    55    1
    94   110   111    1
    95    47    46    1
    96    46    45    1
    97    55    56    2
    98    55    61   am
    99   111   112    2
   100    67    61    1
   101    67    66    1
   102    64    63    2
   103    61    62    1
   104    85    84    1
   105    85    86    1
   106    84    81    1
   107    83    82    2
   108    76    74   ar
   109    76    78   ar
   110    63    62    1
   111    63    68   am
   112    74    73   ar
   113    80    81    1
   114    80    70   am
   115    81    82    1
   116    82    88   am
   117    66    65    1
   118    62    65    1
   119    91    90    2
   120    86    87    1
   121    69    68    1
   122    69    70    1
   123    69    72    1
   124    90    89    1
   125    79    78    1
   126    70    71    2
   127    78    77   ar
   128    73    72    1
   129    73    75   ar
   130    88    89    1
   131    89    92    1
   132    77    75   ar
   133    92    93    1
   134    93    94    1
   135    94    95    1
   136    95    96    1
