@<TRIPOS>MOLECULE
tmp/3rhoD00.pdb
 152 148 0 0 0
SMALL
GASTEIGER

@<TRIPOS>ATOM
      1  N         55.8260   24.4920   54.6930 N.3   168  PRO168     -0.2102
      2  CA        55.3650   25.8490   54.3350 C.3   168  PRO168      0.1504
      3  C         53.8980   25.8570   53.7700 C.2   168  PRO168      0.2576
      4  O         53.2020   24.7850   53.6960 O.2   168  PRO168     -0.2718
      5  CB        56.4280   26.2690   53.2830 C.3   168  PRO168      0.0282
      6  CG        56.6120   24.9850   52.4810 C.3   168  PRO168      0.0208
      7  CD        56.3920   23.7840   53.5140 C.3   168  PRO168      0.0893
      8  N         53.4620   27.0300   53.2880 N.am  169  TRP169     -0.1963
      9  CA        52.0600   27.2160   52.9270 C.3   169  TRP169      0.1771
     10  C         51.8090   27.2080   51.4580 C.2   169  TRP169      0.2619
     11  O         50.6150   27.1500   51.0540 O.2   169  TRP169     -0.2715
     12  CB        51.5640   28.5250   53.4900 C.3   169  TRP169      0.0590
     13  CG        52.5900   29.6430   53.3490 C.ar  169  TRP169      0.0006
     14  CD1       53.3980   30.1130   54.3050 C.ar  169  TRP169      0.0946
     15  CD2       52.9040   30.3660   52.1520 C.ar  169  TRP169      0.0152
     16  NE1       54.2080   31.1340   53.8150 N.ar  169  TRP169     -0.2442
     17  CE2       53.9280   31.2880   52.4770 C.ar  169  TRP169      0.0810
     18  CE3       52.4250   30.3160   50.8580 C.ar  169  TRP169      0.0012
     19  CZ2       54.4990   32.1340   51.5630 C.ar  169  TRP169      0.0191
     20  CZ3       52.9700   31.1850   49.9260 C.ar  169  TRP169      0.0001
     21  CH2       54.0000   32.1210   50.2860 C.ar  169  TRP169      0.0015
     22  N         52.8460   27.1310   50.6030 N.am  170  ASN170     -0.1972
     23  CA        52.5870   27.1930   49.1630 C.3   170  ASN170      0.1688
     24  C         51.8990   25.9840   48.5320 C.2   170  ASN170      0.2292
     25  O         51.0390   26.1590   47.5970 O.2   170  ASN170     -0.2864
     26  CB        53.8330   27.5990   48.3570 C.3   170  ASN170      0.1181
     27  CG        55.0040   26.5340   48.4680 C.2   170  ASN170      0.2629
     28  OD1       55.1930   25.8770   49.4920 O.2   170  ASN170     -0.2716
     29  ND2       55.6770   26.3190   47.3840 N.am  170  ASN170     -0.0877
     30  N         62.4960   19.7710   57.1370 N.3   244  PHE244     -0.1227
     31  CA        62.0360   21.1090   57.0650 C.3   244  PHE244      0.1736
     32  C         62.0340   21.6180   55.6150 C.2   244  PHE244      0.2596
     33  O         63.0230   21.3930   54.8660 O.2   244  PHE244     -0.2718
     34  CB        62.9450   22.0080   57.9190 C.3   244  PHE244      0.0547
     35  CG        62.6130   23.5040   57.7640 C.ar  244  PHE244     -0.0202
     36  CD1       61.4740   24.0690   58.3850 C.ar  244  PHE244     -0.0042
     37  CD2       63.3880   24.3270   57.0210 C.ar  244  PHE244     -0.0042
     38  CE1       61.1160   25.5210   58.2200 C.ar  244  PHE244     -0.0003
     39  CE2       63.0970   25.8020   56.8810 C.ar  244  PHE244     -0.0003
     40  CZ        61.9420   26.3600   57.4780 C.ar  244  PHE244     -0.0000
     41  N         60.9620   22.3000   55.1760 N.am  245  THR245     -0.1939
     42  CA        61.0260   23.1260   53.9640 C.3   245  THR245      0.2028
     43  C         60.4800   24.5860   54.2970 C.2   245  THR245      0.2643
     44  O         59.4770   24.7120   55.0030 O.2   245  THR245     -0.2714
     45  CB        60.1710   22.5440   52.8470 C.3   245  THR245      0.1808
     46  OG1       60.6930   21.2700   52.4530 O.3   245  THR245     -0.2208
     47  CG2       60.0420   23.4960   51.5780 C.3   245  THR245      0.0379
     48  N         61.1650   25.6470   53.8300 N.am  246  GLY246     -0.1939
     49  CA        60.7820   27.0310   54.1570 C.3   246  GLY246      0.2014
     50  C         61.9510   27.9600   53.8430 C.2   246  GLY246      0.2639
     51  O         62.7970   27.6770   52.9580 O.2   246  GLY246     -0.2714
     52  N         62.0650   29.0320   54.5980 N.am  247  SER247     -0.1949
     53  CA        63.0110   30.0090   54.2550 C.3   247  SER247      0.1924
     54  C         64.3740   29.5620   54.8000 C.2   247  SER247      0.2314
     55  O         64.4630   28.8880   55.8490 O.2   247  SER247     -0.2863
     56  CB        62.6430   31.4130   54.8540 C.3   247  SER247      0.2116
     57  OG        62.6080   31.3430   56.2890 O.3   247  SER247     -0.2180
     58  N         64.8330   30.5780   58.6640 N.3   250  VAL250     -0.1245
     59  CA        64.1660   29.6840   59.6480 C.3   250  VAL250      0.1561
     60  C         64.9290   28.3330   59.6220 C.2   250  VAL250      0.2260
     61  O         65.1150   27.7230   60.6570 O.2   250  VAL250     -0.2867
     62  CB        62.6980   29.5240   59.3520 C.3   250  VAL250      0.0252
     63  CG1       62.0180   28.3550   60.1760 C.3   250  VAL250      0.0019
     64  CG2       61.9350   30.9880   59.5790 C.3   250  VAL250      0.0019
     65  N         65.2000   22.1950   52.9350 N.3   269  GLN269     -0.1231
     66  CA        64.8920   22.6580   51.5760 C.3   269  GLN269      0.1698
     67  C         64.5010   24.1180   51.7530 C.2   269  GLN269      0.2592
     68  O         63.4340   24.4330   52.3080 O.2   269  GLN269     -0.2718
     69  CB        63.8120   21.8300   50.9250 C.3   269  GLN269      0.0381
     70  CG        63.7950   22.0950   49.3000 C.3   269  GLN269      0.0905
     71  CD        62.6430   23.1310   48.8200 C.2   269  GLN269      0.2608
     72  OE1       61.5290   22.7220   48.4290 O.2   269  GLN269     -0.2717
     73  NE2       62.9390   24.4440   48.8920 N.am  269  GLN269     -0.0878
     74  N         65.4260   24.9730   51.4100 N.am  270  LEU270     -0.1966
     75  CA        65.3650   26.4440   51.7490 C.3   270  LEU270      0.1728
     76  C         65.0820   27.3450   50.5470 C.2   270  LEU270      0.2617
     77  O         64.4340   26.9160   49.5630 O.2   270  LEU270     -0.2715
     78  CB        66.6380   26.8740   52.4450 C.3   270  LEU270      0.0311
     79  CG        66.9970   25.8990   53.6050 C.3   270  LEU270      0.0022
     80  CD1       68.3290   26.2150   54.2180 C.3   270  LEU270      0.0001
     81  CD2       65.8030   25.8180   54.7090 C.3   270  LEU270      0.0001
     82  N         65.4770   28.6140   50.5890 N.am  271  GLY271     -0.1940
     83  CA        65.0060   29.3700   49.3760 C.3   271  GLY271      0.2014
     84  C         65.7610   29.0180   48.0420 C.2   271  GLY271      0.2639
     85  O         66.7300   28.1690   47.9850 O.2   271  GLY271     -0.2714
     86  N         65.3260   29.6470   46.9810 N.am  272  GLY272     -0.1954
     87  CA        66.0280   29.5770   45.7160 C.3   272  GLY272      0.1869
     88  C         66.0110   30.9390   44.9620 C.2   272  GLY272      0.2309
     89  O         65.1520   31.8180   45.2340 O.2   272  GLY272     -0.2863
     90  N         58.4750   26.6000   44.9910 N.3   303  CYS303     -0.1235
     91  CA        59.8980   26.5090   45.4660 C.3   303  CYS303      0.1677
     92  C         60.8590   26.5060   44.2520 C.2   303  CYS303      0.2270
     93  O         61.9340   27.1230   44.3040 O.2   303  CYS303     -0.2867
     94  CB        60.1490   25.1660   46.2940 C.3   303  CYS303      0.0956
     95  SG        58.9630   23.7430   45.8830 S.3   303  CYS303     -0.0801
     96  N         48.1260   34.4450   51.3480 N.3   347  HIS347     -0.1241
     97  CA        47.6590   35.1630   52.4990 C.3   347  HIS347      0.1621
     98  C         48.1880   36.6380   52.3770 C.2   347  HIS347      0.2264
     99  O         49.0400   36.9630   51.5480 O.2   347  HIS347     -0.2867
    100  CB        48.1410   34.5210   53.8240 C.3   347  HIS347      0.0745
    101  CG        49.6400   34.3740   53.9210 C.ar  347  HIS347      0.0817
    102  ND1       50.3440   33.3420   53.2710 N.ar  347  HIS347     -0.2268
    103  CD2       50.5690   35.1060   54.6000 C.ar  347  HIS347      0.1154
    104  CE1       51.6220   33.4490   53.5780 C.ar  347  HIS347      0.1986
    105  NE2       51.7840   34.5120   54.3710 N.ar  347  HIS347     -0.2212
    106  N         51.8620   37.8930   52.7240 N.3   350  HIS350     -0.1241
    107  CA        52.6740   37.5650   51.5670 C.3   350  HIS350      0.1621
    108  C         52.4210   38.5710   50.3940 C.2   350  HIS350      0.2264
    109  O         53.3460   39.0610   49.7510 O.2   350  HIS350     -0.2867
    110  CB        52.5100   36.0550   51.1200 C.3   350  HIS350      0.0745
    111  CG        53.3420   35.7380   49.9160 C.ar  350  HIS350      0.0817
    112  ND1       54.7240   35.9460   49.8890 N.ar  350  HIS350     -0.2268
    113  CD2       53.0060   35.2660   48.6990 C.ar  350  HIS350      0.1154
    114  CE1       55.1910   35.6290   48.6900 C.ar  350  HIS350      0.1986
    115  NE2       54.1770   35.2100   47.9490 N.ar  350  HIS350     -0.2212
    116  N         54.5000   41.7050   51.0160 N.3   353  LYS353     -0.1245
    117  CA        55.8690   41.4840   50.5950 C.3   353  LYS353      0.1561
    118  C         55.9880   41.6640   49.0800 C.2   353  LYS353      0.2260
    119  O         56.8860   42.3460   48.6170 O.2   353  LYS353     -0.2867
    120  CB        56.2800   40.0420   50.9790 C.3   353  LYS353      0.0271
    121  CG        57.7120   39.6540   50.4730 C.3   353  LYS353      0.0035
    122  CD        57.7380   38.9220   49.0690 C.3   353  LYS353      0.0206
    123  CE        59.0970   38.1710   48.8920 C.3   353  LYS353      0.1093
    124  NZ        59.1900   37.0430   49.9010 N.3   353  LYS353     -0.1314
    125  N         64.5530   36.2680   46.4440 N.3   400  GLU400     -0.1245
    126  CA        63.5480   35.4060   45.8950 C.3   400  GLU400      0.1567
    127  C         62.1940   36.1180   46.1750 C.2   400  GLU400      0.2260
    128  O         61.9120   36.4380   47.3350 O.2   400  GLU400     -0.2867
    129  CB        63.5690   34.0820   46.6640 C.3   400  GLU400      0.0388
    130  CG        62.4410   33.1390   46.2310 C.3   400  GLU400      0.1160
    131  CD        62.4960   31.6650   46.9790 C.2   400  GLU400      0.3649
    132  OE1       62.9570   31.5760   48.1490 O.co2 400  GLU400     -0.2457
    133  OE2       62.1010   30.6250   46.3620 O.co2 400  GLU400     -0.2457
    134  N         58.9630   34.6180   45.3720 N.3   402  PHE402     -0.1241
    135  CA        57.8760   33.7020   45.6180 C.3   402  PHE402      0.1605
    136  C         56.5240   34.2040   45.1670 C.2   402  PHE402      0.2264
    137  O         55.5120   33.9460   45.8520 O.2   402  PHE402     -0.2867
    138  CB        57.7870   33.3640   47.1070 C.3   402  PHE402      0.0534
    139  CG        57.7300   31.9020   47.3720 C.ar  402  PHE402     -0.0203
    140  CD1       58.7440   31.0380   46.8940 C.ar  402  PHE402     -0.0042
    141  CD2       56.6720   31.3710   48.1150 C.ar  402  PHE402     -0.0042
    142  CE1       58.6740   29.6080   47.1930 C.ar  402  PHE402     -0.0003
    143  CE2       56.5610   29.9660   48.3920 C.ar  402  PHE402     -0.0003
    144  CZ        57.5890   29.0800   47.9180 C.ar  402  PHE402     -0.0000
    145  N         68.9080   25.8660   44.1660 N.3   430  LEU430     -0.1245
    146  CA        67.8130   24.9420   44.2210 C.3   430  LEU430      0.1561
    147  C         67.4900   24.3300   42.8560 C.2   430  LEU430      0.2260
    148  O         67.6080   23.0830   42.7110 O.2   430  LEU430     -0.2867
    149  CB        66.5300   25.5490   44.8180 C.3   430  LEU430      0.0270
    150  CG        65.3320   24.6030   45.0250 C.3   430  LEU430      0.0019
    151  CD1       65.7940   23.4590   45.9650 C.3   430  LEU430      0.0001
    152  CD2       64.2150   25.4350   45.7280 C.3   430  LEU430      0.0001
@<TRIPOS>BOND
     1   148   147    2
     2   147   146    1
     3   145   146    1
     4   146   149    1
     5    92    93    2
     6    92    91    1
     7   149   150    1
     8    88    89    2
     9    88    87    1
    10    90    91    1
    11   150   152    1
    12   150   151    1
    13   136   135    1
    14   136   137    2
    15   134   135    1
    16    91    94    1
    17   135   138    1
    18    87    86    1
    19    95    94    1
    20   126   127    1
    21   126   125    1
    22   126   129    1
    23   127   128    2
    24   130   129    1
    25   130   131    1
    26   133   131   ar
    27   140   142   ar
    28   140   139   ar
    29   131   132   ar
    30    86    84   am
    31   138   139    1
    32   142   144   ar
    33   139   141   ar
    34    29    27   am
    35    25    24    2
    36   144   143   ar
    37   115   114   ar
    38   115   113   ar
    39    85    84    2
    40    84    83    1
    41   141   143   ar
    42    26    27    1
    43    26    23    1
    44    72    71    2
    45    27    28    2
    46    24    23    1
    47   119   118    2
    48   114   112   ar
    49   113   111   ar
    50    71    73   am
    51    71    70    1
    52   123   122    1
    53   123   124    1
    54   122   121    1
    55   118   117    1
    56    23    22    1
    57    70    69    1
    58    83    82    1
    59    77    76    2
    60   109   108    2
    61   112   111   ar
    62   111   110    1
    63    20    21   ar
    64    20    18   ar
    65    21    19   ar
    66   108   107    1
    67   121   120    1
    68    76    82   am
    69    76    75    1
    70   117   120    1
    71   117   116    1
    72    22    10   am
    73    18    15   ar
    74    69    66    1
    75    11    10    2
    76   110   107    1
    77    96    97    1
    78    74    75    1
    79    74    67   am
    80    10     9    1
    81    99    98    2
    82    19    17   ar
    83   107   106    1
    84    66    67    1
    85    66    65    1
    86    47    45    1
    87    75    78    1
    88    67    68    2
    89    15    17   ar
    90    15    13   ar
    91    98    97    1
    92    78    79    1
    93    46    45    1
    94    17    16   ar
    95     6     5    1
    96     6     7    1
    97    97   100    1
    98    45    42    1
    99     9     8    1
   100     9    12    1
   101    51    50    2
   102   102   104   ar
   103   102   101   ar
   104     5     2    1
   105     8     3   am
   106    13    12    1
   107    13    14   ar
   108     7     1    1
   109   104   105   ar
   110    79    80    1
   111    79    81    1
   112     4     3    2
   113     3     2    1
   114    16    14   ar
   115   100   101    1
   116    48    49    1
   117    48    43   am
   118    50    49    1
   119    50    52   am
   120   101   103   ar
   121    42    43    1
   122    42    41    1
   123    53    52    1
   124    53    54    1
   125    53    56    1
   126    43    44    2
   127     2     1    1
   128   105   103   ar
   129    54    55    2
   130    56    57    1
   131    33    32    2
   132    41    32   am
   133    32    31    1
   134    39    37   ar
   135    39    40   ar
   136    37    35   ar
   137    31    30    1
   138    31    34    1
   139    40    38   ar
   140    35    34    1
   141    35    36   ar
   142    38    36   ar
   143    58    59    1
   144    62    64    1
   145    62    59    1
   146    62    63    1
   147    60    59    1
   148    60    61    2
