@<TRIPOS>MOLECULE
tmp/3rhxA00.pdb
 149 139 0 0 0
SMALL
GASTEIGER

@<TRIPOS>ATOM
      1  N         66.3620    4.0900    2.0300 N.3    24  LEU24      -0.1231
      2  CA        65.4650    3.3120    2.8820 C.3    24  LEU24       0.1693
      3  C         64.3750    4.2080    3.4760 C.2    24  LEU24       0.2592
      4  O         63.4550    3.7100    4.1220 O.2    24  LEU24      -0.2718
      5  CB        66.2140    2.6210    4.0300 C.3    24  LEU24       0.0284
      6  CG        67.2620    1.5760    3.6660 C.3    24  LEU24       0.0019
      7  CD1       68.1650    1.2780    4.8090 C.3    24  LEU24       0.0001
      8  CD2       66.5600    0.3130    3.1860 C.3    24  LEU24       0.0001
      9  N         64.4780    5.5160    3.2590 N.am   25  GLY25      -0.1957
     10  CA        63.6510    6.4640    3.9960 C.3    25  GLY25       0.1869
     11  C         64.1810    7.8760    3.8470 C.2    25  GLY25       0.2309
     12  O         65.3950    8.1010    3.9350 O.2    25  GLY25      -0.2863
     13  N         63.8380   14.6710    8.3870 N.3    29  PHE29      -0.1241
     14  CA        64.9300   14.2340    9.2600 C.3    29  PHE29       0.1605
     15  C         66.2240   14.0110    8.4790 C.2    29  PHE29       0.2264
     16  O         67.2010   13.4480    8.9940 O.2    29  PHE29      -0.2867
     17  CB        64.5400   12.9600   10.0310 C.3    29  PHE29       0.0534
     18  CG        64.1190   11.8060    9.1590 C.ar   29  PHE29      -0.0203
     19  CD1       65.0670   11.0390    8.4630 C.ar   29  PHE29      -0.0042
     20  CD2       62.7710   11.4480    9.0660 C.ar   29  PHE29      -0.0042
     21  CE1       64.6750    9.9570    7.6730 C.ar   29  PHE29      -0.0003
     22  CE2       62.3670   10.3440    8.2640 C.ar   29  PHE29      -0.0003
     23  CZ        63.3120    9.6070    7.5750 C.ar   29  PHE29      -0.0000
     24  N         67.8100    8.3210    5.0340 N.3    32  VAL32      -0.1245
     25  CA        68.5240    7.1490    5.3890 C.3    32  VAL32       0.1561
     26  C         68.7500    6.2570    4.1550 C.2    32  VAL32       0.2260
     27  O         67.8420    6.0730    3.3480 O.2    32  VAL32      -0.2867
     28  CB        67.7630    6.3720    6.4610 C.3    32  VAL32       0.0252
     29  CG1       68.5150    5.0770    6.8270 C.3    32  VAL32       0.0019
     30  CG2       67.5580    7.2400    7.7090 C.3    32  VAL32       0.0019
     31  N         72.4600    0.6530    8.0550 N.3    48  ALA48      -0.1245
     32  CA        71.6820    1.8410    7.6180 C.3    48  ALA48       0.1562
     33  C         72.4580    3.0980    8.0290 C.2    48  ALA48       0.2260
     34  O         73.1070    3.1260    9.1190 O.2    48  ALA48      -0.2867
     35  CB        70.2910    1.8930    8.2120 C.3    48  ALA48       0.0290
     36  N         72.1940    7.3370    8.3940 N.3    50  LYS50      -0.1245
     37  CA        71.3730    8.5470    8.3620 C.3    50  LYS50       0.1561
     38  C         72.2740    9.7460    8.1330 C.2    50  LYS50       0.2260
     39  O         73.3760    9.8140    8.6780 O.2    50  LYS50      -0.2867
     40  CB        70.5380    8.7300    9.6320 C.3    50  LYS50       0.0271
     41  CG        69.5440    9.9890    9.6180 C.3    50  LYS50       0.0035
     42  CD        68.7370    9.9700   10.9400 C.3    50  LYS50       0.0206
     43  CE        67.7210   11.0720   10.9140 C.3    50  LYS50       0.1093
     44  NZ        66.6720   10.9650   11.9780 N.3    50  LYS50      -0.1314
     45  N         71.0560   13.5720   18.1400 N.3    67  GLU67      -0.1245
     46  CA        70.5410   12.1840   18.0770 C.3    67  GLU67       0.1567
     47  C         71.6490   11.1340   18.1670 C.2    67  GLU67       0.2260
     48  O         71.5010   10.1400   18.8750 O.2    67  GLU67      -0.2867
     49  CB        69.6400   11.9470   16.8350 C.3    67  GLU67       0.0388
     50  CG        69.3330   10.4580   16.5180 C.3    67  GLU67       0.1160
     51  CD        68.4420   10.2800   15.2580 C.2    67  GLU67       0.3649
     52  OE1       68.3360   11.2380   14.4370 O.co2  67  GLU67      -0.2457
     53  OE2       67.7950    9.2060   15.1230 O.co2  67  GLU67      -0.2457
     54  N         72.1830    8.4120   21.2970 N.3    71  MET71      -0.1245
     55  CA        72.4230    6.9740   21.0850 C.3    71  MET71       0.1570
     56  C         73.7030    6.4910   21.7530 C.2    71  MET71       0.2261
     57  O         73.7150    5.3640   22.3020 O.2    71  MET71      -0.2867
     58  CB        72.3710    6.5230   19.6080 C.3    71  MET71       0.0387
     59  CG        71.0490    6.9290   18.9100 C.3    71  MET71       0.0595
     60  SD        70.9900    6.5640   17.1470 S.3    71  MET71      -0.1393
     61  CE        70.9720    4.8000   17.0850 C.3    71  MET71       0.0692
     62  N         67.3030   -0.0800   17.7840 N.3    81  ILE81      -0.1245
     63  CA        68.2410    0.1490   16.6780 C.3    81  ILE81       0.1561
     64  C         69.5220    0.7440   17.2940 C.2    81  ILE81       0.2260
     65  O         69.4770    1.7720   17.9110 O.2    81  ILE81      -0.2867
     66  CB        67.6630    1.0770   15.5430 C.3    81  ILE81       0.0252
     67  CG1       66.5120    0.3880   14.7890 C.3    81  ILE81       0.0019
     68  CG2       68.7970    1.5310   14.6150 C.3    81  ILE81       0.0019
     69  CD1       66.9460   -0.7930   13.8720 C.3    81  ILE81       0.0001
     70  N         75.5580    8.8840   10.1860 N.3    95  VAL95      -0.1245
     71  CA        75.3100    8.1960   11.4930 C.3    95  VAL95       0.1561
     72  C         74.9700    6.7780   11.1420 C.2    95  VAL95       0.2260
     73  O         74.0290    6.5710   10.3550 O.2    95  VAL95      -0.2867
     74  CB        74.1990    8.8320   12.3290 C.3    95  VAL95       0.0252
     75  CG1       74.0990    8.0410   13.6190 C.3    95  VAL95       0.0019
     76  CG2       74.5020   10.3060   12.6270 C.3    95  VAL95       0.0019
     77  N         73.9430    2.9660   11.6650 N.3    97  VAL97      -0.1231
     78  CA        73.1750    2.1950   12.6370 C.3    97  VAL97       0.1692
     79  C         72.8200    0.8300   12.0710 C.2    97  VAL97       0.2592
     80  O         72.9760    0.6220   10.8820 O.2    97  VAL97      -0.2718
     81  CB        71.8940    2.9590   13.1440 C.3    97  VAL97       0.0266
     82  CG1       72.2240    4.2900   13.6960 C.3    97  VAL97       0.0020
     83  CG2       70.8760    3.1250   12.0860 C.3    97  VAL97       0.0020
     84  N         72.3140   -0.0880   12.9170 N.am   98  GLU98      -0.1966
     85  CA        71.7780   -1.3750   12.4550 C.3    98  GLU98       0.1733
     86  C         70.6880   -1.3460   11.3980 C.2    98  GLU98       0.2616
     87  O         69.7290   -0.5710   11.4470 O.2    98  GLU98      -0.2715
     88  CB        71.2780   -2.2460   13.6610 C.3    98  GLU98       0.0429
     89  CG        72.3870   -2.5740   14.6800 C.3    98  GLU98       0.1163
     90  CD        71.8600   -3.3090   15.9390 C.2    98  GLU98       0.3649
     91  OE1       70.7870   -2.9960   16.4290 O.co2  98  GLU98      -0.2457
     92  OE2       72.6030   -4.1050   16.5230 O.co2  98  GLU98      -0.2457
     93  N         70.7830   -2.2830   10.4690 N.am   99  TYR99      -0.1960
     94  CA        69.7980   -2.3220    9.3940 C.3    99  TYR99       0.1771
     95  C         68.6890   -3.3650    9.7160 C.2    99  TYR99       0.2619
     96  O         68.9810   -4.4690   10.1870 O.2    99  TYR99      -0.2715
     97  CB        70.5320   -2.6410    8.1050 C.3    99  TYR99       0.0574
     98  CG        69.6870   -3.0810    6.9230 C.ar   99  TYR99      -0.0198
     99  CD1       68.7100   -2.2490    6.3950 C.ar   99  TYR99      -0.0009
    100  CD2       69.9250   -4.3130    6.2800 C.ar   99  TYR99      -0.0009
    101  CE1       67.9470   -2.6320    5.3020 C.ar   99  TYR99       0.0417
    102  CE2       69.1750   -4.6870    5.1560 C.ar   99  TYR99       0.0417
    103  CZ        68.1990   -3.8450    4.6840 C.ar   99  TYR99       0.1957
    104  OH        67.4380   -4.1680    3.5840 O.3    99  TYR99      -0.2866
    105  N         67.4380   -3.0020    9.4620 N.am  100  ALA100     -0.1977
    106  CA        66.3000   -3.9360    9.5610 C.3   100  ALA100      0.1597
    107  C         65.7190   -4.2330    8.1660 C.2   100  ALA100      0.2287
    108  O         65.0130   -3.3970    7.5940 O.2   100  ALA100     -0.2864
    109  CB        65.1810   -3.3460   10.5040 C.3   100  ALA100      0.0319
    110  N         61.4240   -4.2150    7.2720 N.3   103  GLY103     -0.1225
    111  CA        60.5450   -3.0670    7.3510 C.3   103  GLY103      0.1811
    112  C         60.0210   -2.7140    8.7430 C.2   103  GLY103      0.2280
    113  O         60.5000   -3.2150    9.7610 O.2   103  GLY103     -0.2866
    114  N         61.1870   -1.4950   13.9860 N.3   150  LEU150     -0.1245
    115  CA        61.6900   -2.0570   12.7490 C.3   150  LEU150      0.1561
    116  C         61.9640   -3.5140   13.0420 C.2   150  LEU150      0.2260
    117  O         62.2260   -3.8890   14.1890 O.2   150  LEU150     -0.2867
    118  CB        62.9720   -1.3300   12.2890 C.3   150  LEU150      0.0270
    119  CG        62.7330    0.1540   11.9260 C.3   150  LEU150      0.0019
    120  CD1       63.9700    0.8160   11.3710 C.3   150  LEU150      0.0001
    121  CD2       61.5450    0.3840   10.9300 C.3   150  LEU150      0.0001
    122  N         62.9670    2.2780   16.7480 N.3   160  ALA160     -0.1231
    123  CA        63.7650    3.2450   16.0010 C.3   160  ALA160      0.1694
    124  C         63.3440    4.6550   16.4320 C.2   160  ALA160      0.2592
    125  O         62.2780    4.8420   17.0020 O.2   160  ALA160     -0.2718
    126  CB        63.4590    3.0840   14.5430 C.3   160  ALA160      0.0304
    127  N         64.1110    5.6550   16.0450 N.am  161  ASP161     -0.1960
    128  CA        63.7230    7.0540   16.2750 C.3   161  ASP161      0.1840
    129  C         63.5140    7.4030   17.7600 C.2   161  ASP161      0.2622
    130  O         62.6940    8.2350   18.0810 O.2   161  ASP161     -0.2715
    131  CB        62.4300    7.3990   15.5240 C.3   161  ASP161      0.1450
    132  CG        62.6280    7.6910   14.0150 C.2   161  ASP161      0.3671
    133  OD1       63.7570    7.5900   13.4750 O.co2 161  ASP161     -0.2456
    134  OD2       61.5850    8.0210   13.3680 O.co2 161  ASP161     -0.2456
    135  N         64.2370    6.7650   18.6710 N.am  162  PHE162     -0.1960
    136  CA        64.0910    7.0570   20.0870 C.3   162  PHE162      0.1771
    137  C         65.0320    8.2060   20.5400 C.2   162  PHE162      0.2620
    138  O         64.8950    8.7290   21.6470 O.2   162  PHE162     -0.2715
    139  CB        64.3580    5.7960   20.9060 C.3   162  PHE162      0.0574
    140  CG        65.7130    5.1620   20.6500 C.ar  162  PHE162     -0.0200
    141  CD1       66.8370    5.6260   21.2890 C.ar  162  PHE162     -0.0042
    142  CD2       65.8460    4.0850   19.7670 C.ar  162  PHE162     -0.0042
    143  CE1       68.0630    5.0320   21.0610 C.ar  162  PHE162     -0.0003
    144  CE2       67.0990    3.4890   19.5150 C.ar  162  PHE162     -0.0003
    145  CZ        68.1950    3.9530   20.1600 C.ar  162  PHE162     -0.0000
    146  N         66.0110    8.5250   19.7080 N.am  163  GLY163     -0.1954
    147  CA        67.0680    9.4990   20.0550 C.3   163  GLY163      0.1869
    148  C         66.7480   10.8440   19.4480 C.2   163  GLY163      0.2309
    149  O         67.5770   11.7340   19.4620 O.2   163  GLY163     -0.2863
@<TRIPOS>BOND
     1     1     2    1
     2     2     3    1
     3     2     5    1
     4     8     6    1
     5     9     3   am
     6     9    10    1
     7    27    26    2
     8     3     4    2
     9   104   103    1
    10     6     5    1
    11     6     7    1
    12    11    12    2
    13    11    10    1
    14    26    25    1
    15   103   102   ar
    16   103   101   ar
    17    24    25    1
    18   102   100   ar
    19   101    99   ar
    20    25    28    1
    21   100    98   ar
    22    99    98   ar
    23    28    29    1
    24    28    30    1
    25    98    97    1
    26   110   111    1
    27   111   112    1
    28    23    21   ar
    29    23    22   ar
    30   108   107    2
    31    32    33    1
    32    32    31    1
    33    32    35    1
    34    21    19   ar
    35    33    34    2
    36    97    94    1
    37    38    37    1
    38    38    39    2
    39   107   106    1
    40    22    20   ar
    41    37    36    1
    42    37    40    1
    43    13    14    1
    44    19    18   ar
    45    15    16    2
    46    15    14    1
    47   112   113    2
    48    20    18   ar
    49    18    17    1
    50    14    17    1
    51    94    95    1
    52    94    93    1
    53   105   106    1
    54   105    95   am
    55   106   109    1
    56    41    40    1
    57    41    42    1
    58    95    96    2
    59    70    71    1
    60    73    72    2
    61    93    86   am
    62    80    79    2
    63    43    42    1
    64    43    44    1
    65   121   119    1
    66    72    71    1
    67   120   119    1
    68    86    87    2
    69    86    85    1
    70    71    74    1
    71    77    78    1
    72   119   118    1
    73    79    78    1
    74    79    84   am
    75    83    81    1
    76   118   115    1
    77    74    76    1
    78    74    75    1
    79    85    84    1
    80    85    88    1
    81    78    81    1
    82   115   116    1
    83   115   114    1
    84   116   117    2
    85    81    82    1
    86   134   132   ar
    87   133   132   ar
    88    88    89    1
    89    69    67    1
    90   132   131    1
    91    52    51   ar
    92   126   123    1
    93    68    66    1
    94    89    90    1
    95    67    66    1
    96    53    51   ar
    97    51    50    1
    98   131   128    1
    99    66    63    1
   100    90    91   ar
   101    90    92   ar
   102   123   124    1
   103   123   122    1
   104   127   128    1
   105   127   124   am
   106   128   129    1
   107   124   125    2
   108    50    49    1
   109    63    64    1
   110    63    62    1
   111    49    46    1
   112    61    60    1
   113    60    59    1
   114    64    65    2
   115   129   130    2
   116   129   135   am
   117    46    45    1
   118    46    47    1
   119    47    48    2
   120   135   136    1
   121    59    58    1
   122   148   149    2
   123   148   147    1
   124   144   142   ar
   125   144   145   ar
   126    58    55    1
   127   146   147    1
   128   146   137   am
   129   142   140   ar
   130   136   137    1
   131   136   139    1
   132   145   143   ar
   133   137   138    2
   134   140   139    1
   135   140   141   ar
   136   143   141   ar
   137    55    54    1
   138    55    56    1
   139    56    57    2
