@<TRIPOS>MOLECULE
tmp/3rhyA00.pdb
 109 102 0 0 0
SMALL
GASTEIGER

@<TRIPOS>ATOM
      1  N         -9.0700   -5.4130   -6.5170 N.3    57  PHE57      -0.1241
      2  CA        -8.3460   -4.1860   -6.8070 C.3    57  PHE57       0.1605
      3  C         -6.8580   -4.4770   -6.8840 C.2    57  PHE57       0.2264
      4  O         -6.1000   -4.1470   -5.9710 O.2    57  PHE57      -0.2867
      5  CB        -8.6500   -3.1340   -5.7320 C.3    57  PHE57       0.0534
      6  CG       -10.1080   -2.7680   -5.6500 C.ar   57  PHE57      -0.0203
      7  CD1      -10.7760   -2.7780   -4.4300 C.ar   57  PHE57      -0.0042
      8  CD2      -10.8200   -2.4390   -6.8000 C.ar   57  PHE57      -0.0042
      9  CE1      -12.1350   -2.4690   -4.3510 C.ar   57  PHE57      -0.0003
     10  CE2      -12.1830   -2.1280   -6.7330 C.ar   57  PHE57      -0.0003
     11  CZ       -12.8390   -2.1460   -5.5020 C.ar   57  PHE57      -0.0000
     12  N         -4.6550   -3.0910   -8.5190 N.3    59  GLU59      -0.1231
     13  CA        -3.7960   -1.9270   -8.6970 C.3    59  GLU59       0.1699
     14  C         -2.8950   -1.6940   -7.4860 C.2    59  GLU59       0.2592
     15  O         -1.7360   -1.3060   -7.6270 O.2    59  GLU59      -0.2718
     16  CB        -4.6350   -0.6600   -8.9450 C.3    59  GLU59       0.0402
     17  CG        -3.8160    0.6340   -8.8730 C.3    59  GLU59       0.1161
     18  CD        -4.5260    1.8410   -9.4930 C.2    59  GLU59       0.3649
     19  OE1       -5.5520    2.3010   -8.9370 O.co2  59  GLU59      -0.2457
     20  OE2       -4.0440    2.3230  -10.5420 O.co2  59  GLU59      -0.2457
     21  N         -3.4260   -1.9400   -6.2980 N.am   60  ASP60      -0.1974
     22  CA        -2.6740   -1.6910   -5.0720 C.3    60  ASP60       0.1709
     23  C         -1.4810   -2.5750   -4.7070 C.2    60  ASP60       0.2293
     24  O         -0.4540   -2.0630   -4.2570 O.2    60  ASP60      -0.2864
     25  CB        -3.6460   -1.6260   -3.8920 C.3    60  ASP60       0.1436
     26  CG        -4.6160   -0.4740   -4.0200 C.2    60  ASP60       0.3671
     27  OD1       -4.1640    0.6280   -4.3910 O.co2  60  ASP60      -0.2456
     28  OD2       -5.8220   -0.6630   -3.7520 O.co2  60  ASP60      -0.2456
     29  N         -5.3130   -6.5680    3.5560 N.3    79  ARG79      -0.1245
     30  CA        -4.9810   -6.6530    2.1380 C.3    79  ARG79       0.1563
     31  C         -3.5170   -6.9830    1.9310 C.2    79  ARG79       0.2260
     32  O         -3.1060   -7.3610    0.8390 O.2    79  ARG79      -0.2867
     33  CB        -5.2810   -5.3360    1.4200 C.3    79  ARG79       0.0307
     34  CG        -6.7510   -4.9500    1.3600 C.3    79  ARG79       0.0489
     35  CD        -6.9670   -3.8650    0.3070 C.3    79  ARG79       0.2205
     36  NE        -6.5990   -4.3390   -1.0280 N.pl3  79  ARG79      -0.0865
     37  CZ        -6.5750   -3.5810   -2.1220 C.cat  79  ARG79       0.5346
     38  NH1       -6.9000   -2.2950   -2.0580 N.pl3  79  ARG79       0.1354
     39  NH2       -6.2200   -4.1090   -3.2870 N.pl3  79  ARG79       0.1354
     40  N         -2.5110    5.0340    3.7700 N.3   126  ARG126     -0.1245
     41  CA        -2.2150    3.7530    3.1490 C.3   126  ARG126      0.1563
     42  C         -0.7800    3.6960    2.6420 C.2   126  ARG126      0.2260
     43  O         -0.2110    2.6200    2.4900 O.2   126  ARG126     -0.2867
     44  CB        -3.1700    3.5200    1.9830 C.3   126  ARG126      0.0307
     45  CG        -4.6070    3.2740    2.3850 C.3   126  ARG126      0.0489
     46  CD        -4.7260    1.9310    3.0670 C.3   126  ARG126      0.2205
     47  NE        -6.1110    1.4990    3.2170 N.pl3 126  ARG126     -0.0865
     48  CZ        -6.9850    1.3990    2.2170 C.cat 126  ARG126      0.5346
     49  NH1       -6.6310    1.7090    0.9750 N.pl3 126  ARG126      0.1354
     50  NH2       -8.2140    0.9570    2.4570 N.pl3 126  ARG126      0.1354
     51  N         -8.4390    9.7800    0.0190 N.3   155  LEU155     -0.1231
     52  CA        -7.8870    8.5150    0.5150 C.3   155  LEU155      0.1693
     53  C         -6.7800    7.9760   -0.3870 C.2   155  LEU155      0.2592
     54  O         -5.7340    7.5370    0.0930 O.2   155  LEU155     -0.2718
     55  CB        -9.0040    7.4720    0.6480 C.3   155  LEU155      0.0284
     56  CG        -8.6490    6.1150    1.2380 C.3   155  LEU155      0.0019
     57  CD1       -8.3770    6.2240    2.7330 C.3   155  LEU155      0.0001
     58  CD2       -9.7660    5.1080    0.9780 C.3   155  LEU155      0.0001
     59  N         -7.0290    7.9970   -1.6910 N.am  156  HIS156     -0.1976
     60  CA        -6.0710    7.5320   -2.6880 C.3   156  HIS156      0.1656
     61  C         -5.7970    8.6390   -3.6930 C.2   156  HIS156      0.2291
     62  O         -6.7250    9.2620   -4.1960 O.2   156  HIS156     -0.2864
     63  CB        -6.6180    6.3140   -3.4400 C.3   156  HIS156      0.0771
     64  CG        -6.0440    5.0100   -2.9830 C.ar  156  HIS156      0.0820
     65  ND1       -6.3150    3.8160   -3.6180 N.ar  156  HIS156     -0.2267
     66  CD2       -5.2110    4.7110   -1.9570 C.ar  156  HIS156      0.1154
     67  CE1       -5.6750    2.8380   -3.0020 C.ar  156  HIS156      0.1986
     68  NE2       -4.9980    3.3540   -1.9910 N.ar  156  HIS156     -0.2212
     69  N         -7.8090    8.8420   -6.8030 N.3   159  THR159     -0.1218
     70  CA        -9.2490    8.9860   -6.6540 C.3   159  THR159      0.1862
     71  C         -9.6830   10.2690   -7.3540 C.2   159  THR159      0.2287
     72  O        -10.7600   10.3290   -7.9460 O.2   159  THR159     -0.2866
     73  CB        -9.6600    9.0600   -5.1680 C.3   159  THR159      0.1770
     74  OG1       -9.2210    7.8760   -4.4920 O.3   159  THR159     -0.2211
     75  CG2      -11.1640    9.1580   -5.0350 C.3   159  THR159      0.0375
     76  N        -11.5230    9.4750  -11.9260 N.3   198  ASN198     -0.1240
     77  CA       -10.7550    8.2390  -11.9780 C.3   198  ASN198      0.1653
     78  C        -11.0610    7.5490  -13.2970 C.2   198  ASN198      0.2266
     79  O        -12.0980    6.9010  -13.4440 O.2   198  ASN198     -0.2867
     80  CB       -11.1280    7.3170  -10.8100 C.3   198  ASN198      0.1155
     81  CG       -10.3070    6.0240  -10.7930 C.2   198  ASN198      0.2627
     82  OD1       -9.9290    5.5290   -9.7290 O.2   198  ASN198     -0.2716
     83  ND2      -10.0440    5.4670  -11.9700 N.am  198  ASN198     -0.0877
     84  N        -17.7210    1.1160   -2.7610 N.3   237  ILE237     -0.1231
     85  CA       -16.5790    0.8520   -1.8980 C.3   237  ILE237      0.1692
     86  C        -15.3300    1.6040   -2.3330 C.2   237  ILE237      0.2592
     87  O        -14.2070    1.1010   -2.2270 O.2   237  ILE237     -0.2718
     88  CB       -16.2830   -0.6670   -1.7940 C.3   237  ILE237      0.0266
     89  CG1      -16.1620   -1.2850   -3.1840 C.3   237  ILE237      0.0019
     90  CG2      -17.3850   -1.3460   -0.9840 C.3   237  ILE237      0.0020
     91  CD1      -15.9350   -2.7800   -3.1640 C.3   237  ILE237      0.0001
     92  N        -15.5470    2.8190   -2.8250 N.am  238  ASP238     -0.1960
     93  CA       -14.4660    3.7000   -3.2520 C.3   238  ASP238      0.1840
     94  C        -13.5810    3.1540   -4.3720 C.2   238  ASP238      0.2622
     95  O        -12.4400    3.5910   -4.5330 O.2   238  ASP238     -0.2715
     96  CB       -13.5970    4.0510   -2.0400 C.3   238  ASP238      0.1450
     97  CG       -14.4220    4.5330   -0.8490 C.2   238  ASP238      0.3671
     98  OD1      -15.1830    5.5120   -1.0030 O.co2 238  ASP238     -0.2456
     99  OD2      -14.3070    3.9280    0.2410 O.co2 238  ASP238     -0.2456
    100  N        -14.1080    2.2160   -5.1530 N.am  239  GLY239     -0.1954
    101  CA       -13.3260    1.6450   -6.2330 C.3   239  GLY239      0.1869
    102  C        -13.6800    2.1830   -7.6040 C.2   239  GLY239      0.2309
    103  O        -14.8560    2.3250   -7.9360 O.2   239  GLY239     -0.2863
    104  N         -8.4660    1.1250  -10.3780 N.3   243  CYS243     -0.1235
    105  CA        -8.2100    0.1830   -9.2820 C.3   243  CYS243      0.1677
    106  C         -8.2680   -1.2850   -9.6600 C.2   243  CYS243      0.2270
    107  O         -7.5770   -2.1110   -9.0740 O.2   243  CYS243     -0.2867
    108  CB        -9.2290    0.3870   -8.1450 C.3   243  CYS243      0.0956
    109  SG        -9.4030    2.0900   -7.5320 S.3   243  CYS243     -0.0801
@<TRIPOS>BOND
     1    79    78    2
     2    78    77    1
     3    77    76    1
     4    77    80    1
     5    83    81   am
     6    80    81    1
     7    81    82    2
     8    20    18   ar
     9   104   105    1
    10   106   105    1
    11   106   107    2
    12    18    19   ar
    13    18    17    1
    14   105   108    1
    15    16    17    1
    16    16    13    1
    17    13    12    1
    18    13    14    1
    19   108   109    1
    20    72    71    2
    21   103   102    2
    22    15    14    2
    23   102   101    1
    24    14    21   am
    25    71    70    1
    26     3     2    1
    27     3     4    2
    28     2     1    1
    29     2     5    1
    30    69    70    1
    31     8    10   ar
    32     8     6   ar
    33    10    11   ar
    34    70    73    1
    35    21    22    1
    36   101   100    1
    37     5     6    1
    38     6     7   ar
    39    11     9   ar
    40    73    75    1
    41    73    74    1
    42   100    94   am
    43    22    23    1
    44    22    25    1
    45    23    24    2
    46    95    94    2
    47     7     9   ar
    48    27    26   ar
    49    94    93    1
    50    62    61    2
    51    26    25    1
    52    26    28   ar
    53    61    60    1
    54    65    67   ar
    55    65    64   ar
    56    63    64    1
    57    63    60    1
    58    39    37    1
    59    93    92    1
    60    93    96    1
    61    89    91    1
    62    89    88    1
    63    67    68   ar
    64    64    66   ar
    65    92    86   am
    66    84    85    1
    67    60    59    1
    68    86    87    2
    69    86    85    1
    70    37    38    1
    71    37    36    2
    72    96    97    1
    73    68    66   ar
    74    85    88    1
    75    88    90    1
    76    59    53   am
    77    36    35    1
    78    98    97   ar
    79    97    99   ar
    80    53    54    2
    81    53    52    1
    82    51    52    1
    83    35    34    1
    84    52    55    1
    85    55    56    1
    86    32    31    2
    87    49    48    1
    88    58    56    1
    89    56    57    1
    90    34    33    1
    91    33    30    1
    92    31    30    1
    93    44    45    1
    94    44    41    1
    95    30    29    1
    96    48    50    1
    97    48    47    2
    98    45    46    1
    99    43    42    2
   100    42    41    1
   101    46    47    1
   102    41    40    1
