@<TRIPOS>MOLECULE
tmp/3rhzA00.pdb
 158 154 0 0 0
SMALL
GASTEIGER

@<TRIPOS>ATOM
      1  N        -24.3670   -8.5360    7.4400 N.3    17  THR17      -0.1218
      2  CA       -23.9320   -9.7330    8.1460 C.3    17  THR17       0.1862
      3  C        -23.9760   -9.5190    9.6540 C.2    17  THR17       0.2287
      4  O        -24.2420  -10.4520   10.4200 O.2    17  THR17      -0.2866
      5  CB       -22.5420  -10.1650    7.6700 C.3    17  THR17       0.1770
      6  OG1      -22.6330  -10.5410    6.2860 O.3    17  THR17      -0.2211
      7  CG2      -22.0490  -11.3430    8.4790 C.3    17  THR17       0.0375
      8  N        -27.4040  -10.4150   10.6410 N.3    20  LEU20      -0.1245
      9  CA       -27.6000  -11.8480   10.4700 C.3    20  LEU20       0.1561
     10  C        -27.0650  -12.5880   11.6740 C.2    20  LEU20       0.2260
     11  O        -27.7160  -13.5060   12.1920 O.2    20  LEU20      -0.2867
     12  CB       -26.8390  -12.3270    9.2310 C.3    20  LEU20       0.0270
     13  CG       -27.6510  -13.0640    8.1740 C.3    20  LEU20       0.0019
     14  CD1      -28.1850  -14.3800    8.7320 C.3    20  LEU20       0.0001
     15  CD2      -28.7820  -12.1860    7.6740 C.3    20  LEU20       0.0001
     16  N        -18.2830  -15.6500   -0.7550 N.3   175  PRO175     -0.2102
     17  CA       -19.5120  -14.8820   -0.5460 C.3   175  PRO175      0.1504
     18  C        -19.2340  -13.6490    0.3060 C.2   175  PRO175      0.2576
     19  O        -19.7760  -13.5250    1.3940 O.2   175  PRO175     -0.2718
     20  CB       -20.4170  -15.8570    0.2020 C.3   175  PRO175      0.0282
     21  CG       -19.4520  -16.7450    0.9630 C.3   175  PRO175      0.0208
     22  CD       -18.1850  -16.8180    0.1440 C.3   175  PRO175      0.0893
     23  N        -18.3920  -12.7580   -0.2030 N.am  176  GLY176     -0.1943
     24  CA       -18.0560  -11.5280    0.4870 C.3   176  GLY176      0.2014
     25  C        -18.0410  -10.3590   -0.4790 C.2   176  GLY176      0.2638
     26  O        -17.9960  -10.5550   -1.6940 O.2   176  GLY176     -0.2714
     27  N        -18.0610   -9.1470    0.0700 N.am  177  ASN177     -0.1972
     28  CA       -18.1610   -7.9090   -0.7090 C.3   177  ASN177      0.1688
     29  C        -16.8030   -7.3920   -1.1950 C.2   177  ASN177      0.2292
     30  O        -15.8850   -7.1910   -0.4010 O.2   177  ASN177     -0.2864
     31  CB       -18.8720   -6.8520    0.1520 C.3   177  ASN177      0.1181
     32  CG       -18.7760   -5.4420   -0.4230 C.2   177  ASN177      0.2629
     33  OD1      -18.5960   -5.2500   -1.6270 O.2   177  ASN177     -0.2716
     34  ND2      -18.9070   -4.4400    0.4540 N.am  177  ASN177     -0.0877
     35  N        -15.0380   -4.4410    0.4830 N.3   180  ARG180     -0.1231
     36  CA       -14.3460   -4.7110    1.7410 C.3   180  ARG180      0.1694
     37  C        -13.1210   -5.6000    1.5080 C.2   180  ARG180      0.2592
     38  O        -12.1100   -5.4840    2.1990 O.2   180  ARG180     -0.2718
     39  CB       -15.3160   -5.3430    2.7490 C.3   180  ARG180      0.0321
     40  CG       -14.6650   -5.8980    4.0080 C.3   180  ARG180      0.0489
     41  CD       -15.6950   -6.5810    4.9140 C.3   180  ARG180      0.2205
     42  NE       -15.0470   -7.2640    6.0290 N.pl3 180  ARG180     -0.0865
     43  CZ       -15.5530   -8.3180    6.6620 C.cat 180  ARG180      0.5346
     44  NH1      -16.7270   -8.8130    6.2910 N.pl3 180  ARG180      0.1354
     45  NH2      -14.8820   -8.8790    7.6640 N.pl3 180  ARG180      0.1354
     46  N        -13.2090   -6.4770    0.5130 N.am  181  PHE181     -0.1976
     47  CA       -12.1180   -7.3950    0.2170 C.3   181  PHE181      0.1639
     48  C        -11.4720   -7.0620   -1.1160 C.2   181  PHE181      0.2290
     49  O        -11.7820   -7.6650   -2.1420 O.2   181  PHE181     -0.2864
     50  CB       -12.6160   -8.8330    0.2270 C.3   181  PHE181      0.0560
     51  CG       -13.1970   -9.2540    1.5460 C.ar  181  PHE181     -0.0200
     52  CD1      -12.3670   -9.5950    2.5990 C.ar  181  PHE181     -0.0042
     53  CD2      -14.5690   -9.3090    1.7300 C.ar  181  PHE181     -0.0042
     54  CE1      -12.8940   -9.9880    3.8200 C.ar  181  PHE181     -0.0003
     55  CE2      -15.1090   -9.6920    2.9450 C.ar  181  PHE181     -0.0003
     56  CZ       -14.2640  -10.0430    3.9960 C.ar  181  PHE181     -0.0000
     57  N        -19.9550  -13.9090   -4.5290 N.3   196  TYR196     -0.1241
     58  CA       -21.3830  -13.6700   -4.3600 C.3   196  TYR196      0.1605
     59  C        -21.5570  -12.3320   -3.6620 C.2   196  TYR196      0.2264
     60  O        -21.1930  -12.1750   -2.4930 O.2   196  TYR196     -0.2867
     61  CB       -22.0360  -14.7740   -3.5210 C.3   196  TYR196      0.0534
     62  CG       -21.7070  -16.1890   -3.9960 C.ar  196  TYR196     -0.0201
     63  CD1      -20.5020  -16.7890   -3.6570 C.ar  196  TYR196     -0.0009
     64  CD2      -22.6060  -16.9030   -4.7870 C.ar  196  TYR196     -0.0009
     65  CE1      -20.1870  -18.0800   -4.0840 C.ar  196  TYR196      0.0417
     66  CE2      -22.3160  -18.1950   -5.2140 C.ar  196  TYR196      0.0417
     67  CZ       -21.0970  -18.7720   -4.8600 C.ar  196  TYR196      0.1957
     68  OH       -20.7830  -20.0450   -5.2820 O.3   196  TYR196     -0.2866
     69  N        -26.1540  -11.5420   -5.1140 N.3   212  TYR212     -0.1227
     70  CA       -26.4670  -11.9180   -3.7360 C.3   212  TYR212      0.1736
     71  C        -27.6960  -12.8260   -3.7040 C.2   212  TYR212      0.2595
     72  O        -28.6790  -12.5690   -4.3940 O.2   212  TYR212     -0.2718
     73  CB       -26.7120  -10.6690   -2.8940 C.3   212  TYR212      0.0548
     74  CG       -26.6510  -10.9190   -1.3980 C.ar  212  TYR212     -0.0200
     75  CD1      -27.7770  -11.3370   -0.6930 C.ar  212  TYR212     -0.0009
     76  CD2      -25.4740  -10.7250   -0.6930 C.ar  212  TYR212     -0.0009
     77  CE1      -27.7310  -11.5640    0.6840 C.ar  212  TYR212      0.0417
     78  CE2      -25.4180  -10.9520    0.6850 C.ar  212  TYR212      0.0417
     79  CZ       -26.5490  -11.3690    1.3670 C.ar  212  TYR212      0.1957
     80  OH       -26.4880  -11.5890    2.7390 O.3   212  TYR212     -0.2866
     81  N        -27.6310  -13.9010   -2.9210 N.am  213  ARG213     -0.1980
     82  CA       -28.7520  -14.8290   -2.8090 C.3   213  ARG213      0.1597
     83  C        -29.0360  -15.1340   -1.3500 C.2   213  ARG213      0.2287
     84  O        -28.1640  -14.9620   -0.4940 O.2   213  ARG213     -0.2864
     85  CB       -28.4650  -16.1170   -3.5790 C.3   213  ARG213      0.0334
     86  CG       -27.1860  -16.8250   -3.1420 C.3   213  ARG213      0.0492
     87  CD       -26.4120  -17.3090   -4.3610 C.3   213  ARG213      0.2205
     88  NE       -26.5940  -16.3700   -5.4520 N.pl3 213  ARG213     -0.0865
     89  CZ       -27.0820  -16.6720   -6.6500 C.cat 213  ARG213      0.5346
     90  NH1      -27.4110  -17.9200   -6.9690 N.pl3 213  ARG213      0.1354
     91  NH2      -27.2150  -15.7090   -7.5410 N.pl3 213  ARG213      0.1354
     92  N        -29.2860  -16.9190    2.1080 N.3   215  ASP215     -0.1239
     93  CA       -28.3120  -17.8240    2.6990 C.3   215  ASP215      0.1674
     94  C        -28.5930  -19.2970    2.4080 C.2   215  ASP215      0.2266
     95  O        -27.6860  -20.0520    2.0590 O.2   215  ASP215     -0.2867
     96  CB       -28.2370  -17.5910    4.2080 C.3   215  ASP215      0.1410
     97  CG       -27.1660  -18.4320    4.8640 C.2   215  ASP215      0.3668
     98  OD1      -26.0260  -17.9360    5.0120 O.co2 215  ASP215     -0.2456
     99  OD2      -27.4670  -19.5920    5.2170 O.co2 215  ASP215     -0.2456
    100  N        -27.5810  -20.0980   -1.0540 N.3   218  LEU218     -0.1245
    101  CA       -26.1210  -20.0980   -1.1300 C.3   218  LEU218      0.1561
    102  C        -25.5630  -21.4190   -0.5970 C.2   218  LEU218      0.2260
    103  O        -24.7100  -22.0610   -1.2200 O.2   218  LEU218     -0.2867
    104  CB       -25.5460  -18.9360   -0.3140 C.3   218  LEU218      0.0270
    105  CG       -24.0180  -18.8550   -0.2840 C.3   218  LEU218      0.0019
    106  CD1      -23.4610  -18.5610   -1.6620 C.3   218  LEU218      0.0001
    107  CD2      -23.5310  -17.8220    0.7180 C.3   218  LEU218      0.0001
    108  N        -10.4530  -12.2520   15.2320 N.3   243  TYR243     -0.1227
    109  CA       -11.9040  -12.3700   15.0620 C.3   243  TYR243      0.1736
    110  C        -12.3820  -13.7860   14.6920 C.2   243  TYR243      0.2596
    111  O        -11.5630  -14.6660   14.4220 O.2   243  TYR243     -0.2718
    112  CB       -12.3740  -11.3980   13.9860 C.3   243  TYR243      0.0548
    113  CG       -12.2390  -11.9430   12.5720 C.ar  243  TYR243     -0.0200
    114  CD1      -11.1850  -12.7930   12.2190 C.ar  243  TYR243     -0.0009
    115  CD2      -13.1740  -11.6200   11.5920 C.ar  243  TYR243     -0.0009
    116  CE1      -11.0680  -13.2960   10.9230 C.ar  243  TYR243      0.0417
    117  CE2      -13.0650  -12.1140   10.3000 C.ar  243  TYR243      0.0417
    118  CZ       -12.0160  -12.9500    9.9740 C.ar  243  TYR243      0.1957
    119  OH       -11.9160  -13.4320    8.6920 O.3   243  TYR243     -0.2866
    120  N        -13.7020  -13.9880   14.6770 N.am  244  CYS244     -0.1956
    121  CA       -14.3000  -15.1980   14.1050 C.3   244  CYS244      0.1843
    122  C        -14.9870  -14.8550   12.7790 C.2   244  CYS244      0.2626
    123  O        -15.8190  -13.9550   12.7210 O.2   244  CYS244     -0.2714
    124  CB       -15.3350  -15.8160   15.0390 C.3   244  CYS244      0.0997
    125  SG       -14.6710  -16.5870   16.5240 S.3   244  CYS244     -0.0797
    126  N        -14.6510  -15.5860   11.7220 N.am  245  SER245     -0.1936
    127  CA       -15.2450  -15.3370   10.4100 C.3   245  SER245      0.2055
    128  C        -16.6180  -15.9840   10.3120 C.2   245  SER245      0.2643
    129  O        -16.7740  -17.1560   10.6200 O.2   245  SER245     -0.2714
    130  CB       -14.3480  -15.9050    9.3050 C.3   245  SER245      0.2130
    131  OG       -15.0930  -16.0730    8.1110 O.3   245  SER245     -0.2179
    132  N        -17.6110  -15.2270    9.8620 N.am  246  TYR246     -0.1959
    133  CA       -18.9370  -15.7830    9.6630 C.3   246  TYR246      0.1771
    134  C        -19.0110  -16.6930    8.4350 C.2   246  TYR246      0.2619
    135  O        -19.6960  -17.7170    8.4620 O.2   246  TYR246     -0.2715
    136  CB       -19.9990  -14.6770    9.5750 C.3   246  TYR246      0.0574
    137  CG       -21.4090  -15.2050    9.6910 C.ar  246  TYR246     -0.0198
    138  CD1      -21.8990  -15.6710   10.9080 C.ar  246  TYR246     -0.0009
    139  CD2      -22.2490  -15.2470    8.5840 C.ar  246  TYR246     -0.0009
    140  CE1      -23.1940  -16.1610   11.0170 C.ar  246  TYR246      0.0417
    141  CE2      -23.5390  -15.7250    8.6880 C.ar  246  TYR246      0.0417
    142  CZ       -24.0050  -16.1770    9.8990 C.ar  246  TYR246      0.1957
    143  OH       -25.2870  -16.6510    9.9890 O.3   246  TYR246     -0.2866
    144  N        -18.3110  -16.3360    7.3610 N.am  247  LYS247     -0.1977
    145  CA       -18.3860  -17.1470    6.1440 C.3   247  LYS247      0.1596
    146  C        -17.7020  -18.5020    6.3480 C.2   247  LYS247      0.2287
    147  O        -18.0830  -19.4970    5.7300 O.2   247  LYS247     -0.2864
    148  CB       -17.8440  -16.3970    4.9060 C.3   247  LYS247      0.0298
    149  CG       -16.3340  -16.2180    4.8760 C.3   247  LYS247      0.0038
    150  CD       -15.8650  -15.6450    3.5350 C.3   247  LYS247      0.0206
    151  CE       -16.4740  -14.2640    3.2740 C.3   247  LYS247      0.1093
    152  NZ       -16.0170  -13.2650    4.3160 N.3   247  LYS247     -0.1314
    153  N        -20.3230  -20.6760    7.4100 N.3   250  SER250     -0.1217
    154  CA       -21.1920  -20.9060    6.2590 C.3   250  SER250      0.1889
    155  C        -20.6670  -22.0020    5.3190 C.2   250  SER250      0.2288
    156  O        -21.4380  -22.8670    4.8990 O.2   250  SER250     -0.2866
    157  CB       -21.3990  -19.5980    5.4790 C.3   250  SER250      0.2089
    158  OG       -21.9210  -18.5950    6.3500 O.3   250  SER250     -0.2183
@<TRIPOS>BOND
     1    91    89    1
     2    90    89    1
     3    89    88    2
     4    88    87    1
     5    68    67    1
     6    66    67   ar
     7    66    64   ar
     8    69    70    1
     9    67    65   ar
    10    64    62   ar
    11    57    58    1
    12    72    71    2
    13    87    86    1
    14    58    59    1
    15    58    61    1
    16    65    63   ar
    17    62    63   ar
    18    62    61    1
    19    70    71    1
    20    70    73    1
    21    71    81   am
    22    59    60    2
    23    85    86    1
    24    85    82    1
    25    81    82    1
    26    73    74    1
    27    82    83    1
    28    49    48    2
    29    26    25    2
    30   106   105    1
    31    33    32    2
    32    74    76   ar
    33    74    75   ar
    34    83    84    2
    35   103   102    2
    36    29    28    1
    37    29    30    2
    38   101   100    1
    39   101   102    1
    40   101   104    1
    41    48    47    1
    42    16    17    1
    43    16    22    1
    44    28    27    1
    45    28    31    1
    46    76    78   ar
    47    75    77   ar
    48    17    20    1
    49    17    18    1
    50    25    27   am
    51    25    24    1
    52    32    31    1
    53    32    34   am
    54   104   105    1
    55   105   107    1
    56    23    18   am
    57    23    24    1
    58    22    21    1
    59    20    21    1
    60    47    50    1
    61    47    46    1
    62    50    51    1
    63    18    19    2
    64    35    36    1
    65    46    37   am
    66    77    79   ar
    67    78    79   ar
    68    79    80    1
    69    37    36    1
    70    37    38    2
    71    51    53   ar
    72    51    52   ar
    73    53    55   ar
    74    36    39    1
    75    95    94    2
    76    92    93    1
    77    94    93    1
    78    52    54   ar
    79    93    96    1
    80    39    40    1
    81    55    56   ar
    82   151   150    1
    83   151   152    1
    84   150   149    1
    85    54    56   ar
    86    40    41    1
    87    96    97    1
    88    97    98   ar
    89    97    99   ar
    90   149   148    1
    91   156   155    2
    92   148   145    1
    93    41    42    1
    94   155   154    1
    95   157   154    1
    96   157   158    1
    97   147   146    2
    98    42    43    2
    99   145   146    1
   100   145   144    1
   101   154   153    1
   102     6     5    1
   103    44    43    1
   104    43    45    1
   105   144   134   am
   106     1     2    1
   107     5     2    1
   108     5     7    1
   109    15    13    1
   110   131   130    1
   111     2     3    1
   112    13    14    1
   113    13    12    1
   114   134   135    2
   115   134   133    1
   116   139   141   ar
   117   139   137   ar
   118   141   142   ar
   119   119   118    1
   120    12     9    1
   121   130   127    1
   122   136   133    1
   123   136   137    1
   124     3     4    2
   125   133   132    1
   126   137   138   ar
   127   132   128   am
   128   142   143    1
   129   142   140   ar
   130   118   117   ar
   131   118   116   ar
   132   117   115   ar
   133   128   127    1
   134   128   129    2
   135   127   126    1
   136     9     8    1
   137     9    10    1
   138   138   140   ar
   139   116   114   ar
   140   115   113   ar
   141    10    11    2
   142   126   122   am
   143   114   113   ar
   144   113   112    1
   145   123   122    2
   146   122   121    1
   147   112   109    1
   148   121   120    1
   149   121   124    1
   150   111   110    2
   151   120   110   am
   152   110   109    1
   153   124   125    1
   154   109   108    1
