@<TRIPOS>MOLECULE
tmp/3ri1B00.pdb
 153 143 0 0 0
SMALL
GASTEIGER

@<TRIPOS>ATOM
      1  N        -48.6030   18.1140   -6.7000 N.3    20  LEU20      -0.1231
      2  CA       -49.0610   19.4140   -7.1800 C.3    20  LEU20       0.1693
      3  C        -47.8990   20.1690   -7.8200 C.2    20  LEU20       0.2593
      4  O        -46.7760   20.1350   -7.3150 O.2    20  LEU20      -0.2718
      5  CB       -49.6390   20.2460   -6.0270 C.3    20  LEU20       0.0284
      6  CG       -50.8630   19.7580   -5.2400 C.3    20  LEU20       0.0019
      7  CD1      -51.0390   20.5950   -3.9850 C.3    20  LEU20       0.0001
      8  CD2      -52.1280   19.7960   -6.0800 C.3    20  LEU20       0.0001
      9  N        -48.1750   20.8510   -8.9270 N.am   21  GLY21      -0.1942
     10  CA       -47.1650   21.6500   -9.6230 C.3    21  GLY21       0.2014
     11  C        -46.2150   20.8170  -10.4660 C.2    21  GLY21       0.2639
     12  O        -46.3480   19.5900  -10.5440 O.2    21  GLY21      -0.2714
     13  N        -45.2500   21.4920  -11.0900 N.am   22  GLU22      -0.1963
     14  CA       -44.2950   20.8510  -11.9970 C.3    22  GLU22       0.1733
     15  C        -43.3130   19.9310  -11.2710 C.2    22  GLU22       0.2616
     16  O        -42.9420   18.8800  -11.7950 O.2    22  GLU22      -0.2715
     17  CB       -43.5440   21.9040  -12.8110 C.3    22  GLU22       0.0429
     18  CG       -44.3370   22.5640  -13.9430 C.3    22  GLU22       0.1163
     19  CD       -45.1240   23.7480  -13.5140 C.2    22  GLU22       0.3649
     20  OE1      -45.1720   24.0380  -12.3160 O.co2  22  GLU22      -0.2457
     21  OE2      -45.6770   24.4020  -14.3600 O.co2  22  GLU22      -0.2457
     22  N        -42.9030   20.3320  -10.0680 N.am   23  GLY23      -0.1955
     23  CA       -41.9900   19.5370   -9.2490 C.3    23  GLY23       0.1869
     24  C        -40.5230   19.6890   -9.6160 C.2    23  GLY23       0.2309
     25  O        -39.7370   18.7610   -9.4290 O.2    23  GLY23      -0.2863
     26  N        -44.2390   19.0250   -3.7700 N.3    28  VAL28      -0.1245
     27  CA       -45.4660   19.5160   -3.1550 C.3    28  VAL28       0.1561
     28  C        -46.5880   18.5300   -3.4460 C.2    28  VAL28       0.2260
     29  O        -46.7880   18.1340   -4.5910 O.2    28  VAL28      -0.2867
     30  CB       -45.8410   20.9360   -3.6550 C.3    28  VAL28       0.0252
     31  CG1      -47.0890   21.4550   -2.9420 C.3    28  VAL28       0.0019
     32  CG2      -44.6720   21.9060   -3.4540 C.3    28  VAL28       0.0019
     33  N        -51.8100   21.7680    1.2920 N.3    45  ALA45      -0.1245
     34  CA       -50.6710   21.4620    0.4340 C.3    45  ALA45       0.1562
     35  C        -49.4380   21.3130    1.3130 C.2    45  ALA45       0.2260
     36  O        -49.2440   22.0690    2.2700 O.2    45  ALA45      -0.2867
     37  CB       -50.4600   22.5560   -0.6100 C.3    45  ALA45       0.0290
     38  N        -45.2700   21.0170    1.2960 N.3    47  LYS47      -0.1245
     39  CA       -43.9710   21.0830    0.6330 C.3    47  LYS47       0.1561
     40  C        -42.9470   20.2340    1.3830 C.2    47  LYS47       0.2260
     41  O        -42.8790   20.2570    2.6150 O.2    47  LYS47      -0.2867
     42  CB       -43.4690   22.5270    0.4790 C.3    47  LYS47       0.0271
     43  CG       -42.2870   22.6530   -0.5070 C.3    47  LYS47       0.0035
     44  CD       -41.9300   24.1020   -0.8320 C.3    47  LYS47       0.0206
     45  CE       -40.6080   24.1780   -1.6030 C.3    47  LYS47       0.1093
     46  NZ       -40.2790   25.5680   -2.0470 N.3    47  LYS47      -0.1314
     47  N        -37.7670   29.3390    3.9870 N.3    64  GLU64      -0.1245
     48  CA       -39.0700   29.6710    3.4130 C.3    64  GLU64       0.1567
     49  C        -40.1550   29.5360    4.4840 C.2    64  GLU64       0.2260
     50  O        -40.9770   30.4420    4.6560 O.2    64  GLU64      -0.2867
     51  CB       -39.3810   28.7990    2.1960 C.3    64  GLU64       0.0388
     52  CG       -40.4470   29.3890    1.2850 C.3    64  GLU64       0.1160
     53  CD       -40.7570   28.5250    0.0720 C.2    64  GLU64       0.3649
     54  OE1      -40.1620   27.4370   -0.0820 O.co2  64  GLU64      -0.2457
     55  OE2      -41.6130   28.9350   -0.7360 O.co2  64  GLU64      -0.2457
     56  N        -42.5410   32.5740    6.1580 N.3    68  MET68      -0.1245
     57  CA       -43.9940   32.4890    6.2080 C.3    68  MET68       0.1570
     58  C        -44.5580   32.5490    7.6370 C.2    68  MET68       0.2261
     59  O        -45.6970   32.9810    7.8280 O.2    68  MET68      -0.2867
     60  CB       -44.4860   31.2510    5.4560 C.3    68  MET68       0.0387
     61  CG       -44.1740   31.3080    3.9700 C.3    68  MET68       0.0595
     62  SD       -44.5160   29.7660    3.1220 S.3    68  MET68      -0.1393
     63  CE       -46.2510   29.9710    2.7190 C.3    68  MET68       0.0692
     64  N        -50.6440   33.0500    0.1610 N.3    78  ILE78      -0.1245
     65  CA       -50.5850   31.6490    0.5890 C.3    78  ILE78       0.1561
     66  C        -49.9600   31.6590    1.9750 C.2    78  ILE78       0.2260
     67  O        -48.8060   32.0790    2.1450 O.2    78  ILE78      -0.2867
     68  CB       -49.7640   30.7700   -0.3930 C.3    78  ILE78       0.0252
     69  CG1      -50.5240   30.5810   -1.7170 C.3    78  ILE78       0.0019
     70  CG2      -49.3760   29.4040    0.2500 C.3    78  ILE78       0.0019
     71  CD1      -51.7510   29.6550   -1.6420 C.3    78  ILE78       0.0001
     72  N        -43.7110   21.1990    5.2160 N.3    92  VAL92      -0.1245
     73  CA       -44.2080   22.5660    5.3930 C.3    92  VAL92       0.1561
     74  C        -45.6400   22.6000    4.8650 C.2    92  VAL92       0.2260
     75  O        -45.8770   22.3870    3.6730 O.2    92  VAL92      -0.2867
     76  CB       -43.3060   23.6070    4.6840 C.3    92  VAL92       0.0252
     77  CG1      -43.8900   25.0160    4.8090 C.3    92  VAL92       0.0019
     78  CG2      -41.8860   23.5720    5.2650 C.3    92  VAL92       0.0019
     79  N        -49.1730   24.2540    3.9820 N.3    94  VAL94      -0.1231
     80  CA       -49.6980   25.5550    3.5610 C.3    94  VAL94       0.1692
     81  C        -51.0920   25.4340    2.9570 C.2    94  VAL94       0.2592
     82  O        -51.5930   24.3240    2.7420 O.2    94  VAL94      -0.2718
     83  CB       -48.7370   26.2840    2.5650 C.3    94  VAL94       0.0266
     84  CG1      -47.3570   26.4750    3.1880 C.3    94  VAL94       0.0020
     85  CG2      -48.6320   25.5310    1.2490 C.3    94  VAL94       0.0020
     86  N        -51.7060   26.5850    2.6820 N.am   95  GLU95      -0.1966
     87  CA       -53.0190   26.6310    2.0500 C.3    95  GLU95       0.1733
     88  C        -53.0000   26.0570    0.6430 C.2    95  GLU95       0.2616
     89  O        -52.0910   26.3250   -0.1500 O.2    95  GLU95      -0.2715
     90  CB       -53.5740   28.0600    2.0310 C.3    95  GLU95       0.0429
     91  CG       -53.9280   28.5940    3.4190 C.3    95  GLU95       0.1163
     92  CD       -54.2380   30.0790    3.4200 C.2    95  GLU95       0.3649
     93  OE1      -53.5760   30.8310    2.6700 O.co2  95  GLU95      -0.2457
     94  OE2      -55.1440   30.5010    4.1760 O.co2  95  GLU95      -0.2457
     95  N        -54.0170   25.2570    0.3580 N.am   96  TYR96      -0.1960
     96  CA       -54.2180   24.6700   -0.9510 C.3    96  TYR96       0.1771
     97  C        -54.9790   25.6370   -1.8610 C.2    96  TYR96       0.2619
     98  O        -55.8920   26.3420   -1.4120 O.2    96  TYR96      -0.2715
     99  CB       -54.9650   23.3450   -0.7890 C.3    96  TYR96       0.0574
    100  CG       -55.4520   22.7070   -2.0680 C.ar   96  TYR96      -0.0198
    101  CD1      -54.5570   22.2770   -3.0470 C.ar   96  TYR96      -0.0009
    102  CD2      -56.8160   22.5120   -2.2870 C.ar   96  TYR96      -0.0009
    103  CE1      -55.0110   21.6830   -4.2180 C.ar   96  TYR96       0.0417
    104  CE2      -57.2780   21.9150   -3.4480 C.ar   96  TYR96       0.0417
    105  CZ       -56.3770   21.5050   -4.4060 C.ar   96  TYR96       0.1957
    106  OH       -56.8440   20.9230   -5.5570 O.3    96  TYR96      -0.2866
    107  N        -54.5780   25.6810   -3.1300 N.am   97  ALA97      -0.1963
    108  CA       -55.2540   26.4900   -4.1400 C.3    97  ALA97       0.1728
    109  C        -55.5540   25.6160   -5.3390 C.2    97  ALA97       0.2616
    110  O        -54.6500   25.2570   -6.0870 O.2    97  ALA97      -0.2715
    111  CB       -54.3910   27.6940   -4.5440 C.3    97  ALA97       0.0334
    112  N        -56.8290   25.2810   -5.5230 N.am   98  SER98      -0.1950
    113  CA       -57.2260   24.2400   -6.4720 C.3    98  SER98       0.1924
    114  C        -57.0270   24.5580   -7.9560 C.2    98  SER98       0.2314
    115  O        -56.9660   23.6400   -8.7780 O.2    98  SER98      -0.2863
    116  CB       -58.6800   23.8160   -6.2240 C.3    98  SER98       0.2116
    117  OG       -59.5680   24.8410   -6.6250 O.3    98  SER98      -0.2180
    118  N        -54.4310   26.1520   -9.3880 N.3   100  GLY100     -0.1225
    119  CA       -53.0240   26.2110   -9.7810 C.3   100  GLY100      0.1811
    120  C        -52.5060   27.6170   -9.9810 C.2   100  GLY100      0.2280
    121  O        -53.1130   28.5770   -9.5110 O.2   100  GLY100     -0.2866
    122  N        -50.9810   31.8380   -7.0300 N.3   150  LEU150     -0.1245
    123  CA       -51.9080   30.7030   -7.0870 C.3   150  LEU150      0.1561
    124  C        -53.3480   31.1860   -7.0120 C.2   150  LEU150      0.2260
    125  O        -53.6210   32.2580   -6.4670 O.2   150  LEU150     -0.2867
    126  CB       -51.6190   29.6980   -5.9680 C.3   150  LEU150      0.0270
    127  CG       -50.2460   29.0070   -5.9900 C.3   150  LEU150      0.0019
    128  CD1      -50.1020   28.1100   -4.7920 C.3   150  LEU150      0.0001
    129  CD2      -50.0190   28.2180   -7.2740 C.3   150  LEU150      0.0001
    130  N        -47.6380   33.5260   -3.8070 N.3   160  ALA160     -0.1231
    131  CA       -46.9920   32.3000   -3.3540 C.3   160  ALA160      0.1694
    132  C        -45.4660   32.3900   -3.5300 C.2   160  ALA160      0.2592
    133  O        -44.9200   33.4760   -3.7700 O.2   160  ALA160     -0.2718
    134  CB       -47.5730   31.0920   -4.0970 C.3   160  ALA160      0.0304
    135  N        -44.7960   31.2520   -3.3820 N.am  161  ASP161     -0.1960
    136  CA       -43.3390   31.1260   -3.5200 C.3   161  ASP161      0.1840
    137  C        -42.5400   32.2280   -2.8170 C.2   161  ASP161      0.2622
    138  O        -42.0510   33.1600   -3.4500 O.2   161  ASP161     -0.2715
    139  CB       -42.9320   30.9940   -4.9910 C.3   161  ASP161      0.1450
    140  CG       -41.5060   30.4570   -5.1690 C.2   161  ASP161      0.3671
    141  OD1      -40.7300   30.4080   -4.1850 O.co2 161  ASP161     -0.2456
    142  OD2      -41.1570   30.0870   -6.3100 O.co2 161  ASP161     -0.2456
    143  N        -42.3930   32.0770   -1.5050 N.am  162  PHE162     -0.1974
    144  CA       -41.6480   33.0100   -0.6810 C.3   162  PHE162      0.1639
    145  C        -40.1680   32.6090   -0.5450 C.2   162  PHE162      0.2290
    146  O        -39.4970   32.9990    0.4080 O.2   162  PHE162     -0.2864
    147  CB       -42.3310   33.1420    0.6880 C.3   162  PHE162      0.0560
    148  CG       -43.6800   33.8200    0.6230 C.ar  162  PHE162     -0.0200
    149  CD1      -44.8360   33.0850    0.3380 C.ar  162  PHE162     -0.0042
    150  CD2      -43.7910   35.1910    0.8230 C.ar  162  PHE162     -0.0042
    151  CE1      -46.0850   33.7100    0.2570 C.ar  162  PHE162     -0.0003
    152  CE2      -45.0410   35.8220    0.7520 C.ar  162  PHE162     -0.0003
    153  CZ       -46.1840   35.0760    0.4650 C.ar  162  PHE162     -0.0000
@<TRIPOS>BOND
     1    21    19   ar
     2    18    19    1
     3    18    17    1
     4    19    20   ar
     5    17    14    1
     6    14    15    1
     7    14    13    1
     8    16    15    2
     9    15    22   am
    10    13    11   am
    11    12    11    2
    12    11    10    1
    13    22    23    1
    14   120   119    1
    15   120   121    2
    16   119   118    1
    17    10     9    1
    18    24    25    2
    19    24    23    1
    20     9     3   am
    21   115   114    2
    22   114   113    1
    23     3     4    2
    24     3     2    1
    25   129   127    1
    26     2     1    1
    27     2     5    1
    28   123   122    1
    29   123   124    1
    30   123   126    1
    31   124   125    2
    32   117   116    1
    33   113   116    1
    34   113   112    1
    35   142   140   ar
    36   110   109    2
    37     8     6    1
    38     5     6    1
    39   127   126    1
    40   127   128    1
    41   106   105    1
    42   112   109   am
    43   109   108    1
    44     6     7    1
    45   140   139    1
    46   140   141   ar
    47   139   136    1
    48    29    28    2
    49   111   108    1
    50   105   103   ar
    51   105   104   ar
    52   103   101   ar
    53   108   107    1
    54   134   131    1
    55   130   131    1
    56    26    27    1
    57   133   132    2
    58    30    32    1
    59    30    27    1
    60    30    31    1
    61   132   135   am
    62   132   131    1
    63   136   135    1
    64   136   137    1
    65   138   137    2
    66   104   102   ar
    67    28    27    1
    68   107    97   am
    69   101   100   ar
    70   137   143   am
    71   102   100   ar
    72   100    99    1
    73    46    45    1
    74    97    98    2
    75    97    96    1
    76    69    71    1
    77    69    68    1
    78    45    44    1
    79   143   144    1
    80    96    99    1
    81    96    95    1
    82    44    43    1
    83    55    53   ar
    84   144   145    1
    85   144   147    1
    86    37    34    1
    87   145   146    2
    88    43    42    1
    89    68    70    1
    90    68    65    1
    91    89    88    2
    92    54    53   ar
    93    53    52    1
    94    64    65    1
    95   151   149   ar
    96   151   153   ar
    97   149   148   ar
    98    95    88   am
    99    34    33    1
   100    34    35    1
   101   153   152   ar
   102    42    39    1
   103    65    66    1
   104   148   147    1
   105   148   150   ar
   106    39    38    1
   107    39    40    1
   108    88    87    1
   109   152   150   ar
   110    85    83    1
   111    52    51    1
   112    35    36    2
   113    40    41    2
   114    66    67    2
   115    90    87    1
   116    90    91    1
   117    87    86    1
   118    51    48    1
   119    83    84    1
   120    83    80    1
   121    93    92   ar
   122    86    81   am
   123    63    62    1
   124    82    81    2
   125    81    80    1
   126    62    61    1
   127    48    47    1
   128    48    49    1
   129    91    92    1
   130    92    94   ar
   131    80    79    1
   132    75    74    2
   133    61    60    1
   134    49    50    2
   135    76    77    1
   136    76    78    1
   137    76    73    1
   138    74    73    1
   139    72    73    1
   140    60    57    1
   141    56    57    1
   142    57    58    1
   143    58    59    2
