@<TRIPOS>MOLECULE
tmp/3riaD01.pdb
 110 104 0 0 0
SMALL
GASTEIGER

@<TRIPOS>ATOM
      1  N         11.7220  108.7180   51.1190 N.3   257  THR257     -0.1218
      2  CA        10.6890  107.6900   51.1360 C.3   257  THR257      0.1862
      3  C         11.2810  106.2990   50.9650 C.2   257  THR257      0.2287
      4  O         11.0910  105.4230   51.8100 O.2   257  THR257     -0.2866
      5  CB         9.6520  107.9140   50.0270 C.3   257  THR257      0.1770
      6  OG1        8.8790  109.0760   50.3270 O.3   257  THR257     -0.2211
      7  CG2        8.7190  106.7190   49.9240 C.3   257  THR257      0.0375
      8  N         13.2030  104.9560   53.9760 N.3   260  SER260     -0.1202
      9  CA        12.3150  104.5310   55.0490 C.3   260  SER260      0.2020
     10  C         11.6310  103.2050   54.7250 C.2   260  SER260      0.2618
     11  O         11.5130  102.3350   55.5870 O.2   260  SER260     -0.2717
     12  CB        11.2650  105.5950   55.3330 C.3   260  SER260      0.2103
     13  OG        10.3130  105.0940   56.2490 O.3   260  SER260     -0.2182
     14  N         11.1760  103.0630   53.4840 N.am  261  ALA261     -0.1979
     15  CA        10.5710  101.8150   53.0350 C.3   261  ALA261      0.1597
     16  C         11.5040  100.6370   53.3160 C.2   261  ALA261      0.2287
     17  O         11.0620   99.5590   53.7180 O.2   261  ALA261     -0.2864
     18  CB        10.2400  101.8900   51.5560 C.3   261  ALA261      0.0319
     19  N         11.5780  100.0280   57.2140 N.3   264  ASN264     -0.1240
     20  CA        10.2540   99.5820   57.6310 C.3   264  ASN264      0.1653
     21  C          9.8510   98.1990   57.1120 C.2   264  ASN264      0.2266
     22  O          8.9340   97.5750   57.6460 O.2   264  ASN264     -0.2867
     23  CB         9.1980  100.6220   57.2500 C.3   264  ASN264      0.1155
     24  CG         8.9780  101.6510   58.3390 C.2   264  ASN264      0.2627
     25  OD1        8.8200  101.3070   59.5110 O.2   264  ASN264     -0.2716
     26  ND2        8.9620  102.9220   57.9590 N.am  264  ASN264     -0.0877
     27  N          1.3540   98.4090   66.7240 N.3   271  SER271     -0.1202
     28  CA         0.2360   99.2870   67.0390 C.3   271  SER271      0.2020
     29  C          0.6980  100.5870   67.6870 C.2   271  SER271      0.2619
     30  O         -0.1210  101.4060   68.0910 O.2   271  SER271     -0.2717
     31  CB        -0.7420   98.5800   67.9720 C.3   271  SER271      0.2103
     32  OG        -0.1590   98.3840   69.2480 O.3   271  SER271     -0.2182
     33  N          2.0080  100.7760   67.7880 N.am  272  TYR272     -0.1961
     34  CA         2.5470  101.9740   68.4220 C.3   272  TYR272      0.1771
     35  C          3.4810  102.7490   67.4950 C.2   272  TYR272      0.2619
     36  O          3.8790  102.2480   66.4410 O.2   272  TYR272     -0.2715
     37  CB         3.2580  101.6170   69.7310 C.3   272  TYR272      0.0574
     38  CG         4.1590  100.4010   69.6480 C.ar  272  TYR272     -0.0198
     39  CD1        5.5220  100.5330   69.4110 C.ar  272  TYR272     -0.0009
     40  CD2        3.6510   99.1230   69.8260 C.ar  272  TYR272     -0.0009
     41  CE1        6.3480   99.4260   69.3450 C.ar  272  TYR272      0.0417
     42  CE2        4.4680   98.0130   69.7610 C.ar  272  TYR272      0.0417
     43  CZ         5.8170   98.1690   69.5210 C.ar  272  TYR272      0.1957
     44  OH         6.6320   97.0610   69.4570 O.3   272  TYR272     -0.2866
     45  N          3.8270  103.9710   67.8880 N.am  273  ILE273     -0.1977
     46  CA         4.7590  104.7750   67.1030 C.3   273  ILE273      0.1596
     47  C          6.1920  104.5910   67.5890 C.2   273  ILE273      0.2287
     48  O          6.5040  104.8850   68.7420 O.2   273  ILE273     -0.2864
     49  CB         4.4000  106.2670   67.1360 C.3   273  ILE273      0.0276
     50  CG1        3.0420  106.5030   66.4810 C.3   273  ILE273      0.0022
     51  CG2        5.4680  107.0830   66.4250 C.3   273  ILE273      0.0022
     52  CD1        2.7170  107.9630   66.2820 C.3   273  ILE273      0.0001
     53  N         10.1240  106.1960   63.6340 N.3   277  ASP277     -0.1225
     54  CA         9.0640  106.9000   62.9150 C.3   277  ASP277      0.1805
     55  C          9.1640  108.4030   63.1360 C.2   277  ASP277      0.2597
     56  O          9.0100  109.1900   62.2010 O.2   277  ASP277     -0.2718
     57  CB         7.6840  106.4000   63.3530 C.3   277  ASP277      0.1424
     58  CG         7.4400  104.9430   62.9870 C.2   277  ASP277      0.3668
     59  OD1        7.9060  104.5040   61.9110 O.co2 277  ASP277     -0.2456
     60  OD2        6.7780  104.2350   63.7800 O.co2 277  ASP277     -0.2456
     61  N          9.4180  108.7960   64.3800 N.am  278  VAL278     -0.1980
     62  CA         9.5740  110.2060   64.7150 C.3   278  VAL278      0.1595
     63  C         10.7350  110.8250   63.9440 C.2   278  VAL278      0.2287
     64  O         10.6850  111.9950   63.5620 O.2   278  VAL278     -0.2864
     65  CB         9.8070  110.4120   66.2240 C.3   278  VAL278      0.0276
     66  CG1       10.1640  111.8570   66.5120 C.3   278  VAL278      0.0022
     67  CG2        8.5790  110.0100   67.0010 C.3   278  VAL278      0.0022
     68  N         12.2420  109.6440   60.9200 N.3   280  ILE280     -0.1231
     69  CA        11.9680  109.6950   59.4880 C.3   280  ILE280      0.1692
     70  C         10.9560  110.7980   59.2040 C.2   280  ILE280      0.2593
     71  O         11.1290  111.6000   58.2820 O.2   280  ILE280     -0.2718
     72  CB        11.4050  108.3650   58.9520 C.3   280  ILE280      0.0266
     73  CG1       12.3600  107.2110   59.2500 C.3   280  ILE280      0.0019
     74  CG2       11.1660  108.4620   57.4580 C.3   280  ILE280      0.0020
     75  CD1       13.6380  107.2710   58.4520 C.3   280  ILE280      0.0001
     76  N          9.9010  110.8410   60.0110 N.am  281  GLY281     -0.1942
     77  CA         8.8370  111.8120   59.8300 C.3   281  GLY281      0.2014
     78  C          9.3100  113.2510   59.8960 C.2   281  GLY281      0.2638
     79  O          8.8510  114.0970   59.1270 O.2   281  GLY281     -0.2714
     80  N         10.2290  113.5320   60.8170 N.am  282  ALA282     -0.1977
     81  CA        10.7540  114.8810   60.9870 C.3   282  ALA282      0.1597
     82  C         11.5740  115.3080   59.7780 C.2   282  ALA282      0.2287
     83  O         11.3320  116.3670   59.1950 O.2   282  ALA282     -0.2864
     84  CB        11.5820  114.9710   62.2500 C.3   282  ALA282      0.0319
     85  N         11.4450  114.1460   56.9120 N.3   284  MET284     -0.1230
     86  CA        10.4830  114.2500   55.8240 C.3   284  MET284      0.1702
     87  C          9.9070  115.6610   55.7560 C.2   284  MET284      0.2593
     88  O          9.7350  116.2240   54.6730 O.2   284  MET284     -0.2718
     89  CB         9.3540  113.2460   56.0310 C.3   284  MET284      0.0401
     90  CG         8.7610  112.7040   54.7480 C.3   284  MET284      0.0596
     91  SD         9.7710  111.3900   54.0480 S.3   284  MET284     -0.1393
     92  CE         8.8220  111.0020   52.5850 C.3   284  MET284      0.0692
     93  N          9.6140  116.2260   56.9240 N.am  285  THR285     -0.1953
     94  CA         9.0230  117.5550   57.0210 C.3   285  THR285      0.1897
     95  C          9.9990  118.6460   56.5910 C.2   285  THR285      0.2313
     96  O          9.6370  119.5550   55.8430 O.2   285  THR285     -0.2863
     97  CB         8.5420  117.8470   58.4550 C.3   285  THR285      0.1794
     98  OG1        7.6230  116.8280   58.8680 O.3   285  THR285     -0.2208
     99  CG2        7.8540  119.2000   58.5200 C.3   285  THR285      0.0378
    100  N          9.9940  118.6770   53.0560 N.3   288  PHE288     -0.1241
    101  CA         8.6930  119.1350   52.5770 C.3   288  PHE288      0.1605
    102  C          8.5640  120.6550   52.6930 C.2   288  PHE288      0.2264
    103  O          7.9880  121.3070   51.8220 O.2   288  PHE288     -0.2867
    104  CB         7.5570  118.4500   53.3430 C.3   288  PHE288      0.0534
    105  CG         6.1810  118.8730   52.9010 C.ar  288  PHE288     -0.0203
    106  CD1        5.4850  118.1390   51.9560 C.ar  288  PHE288     -0.0042
    107  CD2        5.5860  120.0090   53.4290 C.ar  288  PHE288     -0.0042
    108  CE1        4.2200  118.5290   51.5470 C.ar  288  PHE288     -0.0003
    109  CE2        4.3230  120.4040   53.0240 C.ar  288  PHE288     -0.0003
    110  CZ         3.6390  119.6610   52.0830 C.ar  288  PHE288     -0.0000
@<TRIPOS>BOND
     1     7     5    1
     2     5     6    1
     3     5     2    1
     4     3     2    1
     5     3     4    2
     6     1     2    1
     7   108   106   ar
     8   108   110   ar
     9    18    15    1
    10   103   102    2
    11   106   105   ar
    12   110   109   ar
    13   101   102    1
    14   101   100    1
    15   101   104    1
    16    92    91    1
    17   105   104    1
    18   105   107   ar
    19   109   107   ar
    20    15    16    1
    21    15    14    1
    22    16    17    2
    23    14    10   am
    24     8     9    1
    25    91    90    1
    26    88    87    2
    27    10     9    1
    28    10    11    2
    29    90    89    1
    30     9    12    1
    31    12    13    1
    32    87    86    1
    33    87    93   am
    34    86    89    1
    35    86    85    1
    36    96    95    2
    37    95    94    1
    38    93    94    1
    39    94    97    1
    40    21    20    1
    41    21    22    2
    42    19    20    1
    43    23    20    1
    44    23    24    1
    45    74    72    1
    46    26    24   am
    47    71    70    2
    48    24    25    2
    49    75    73    1
    50    97    99    1
    51    97    98    1
    52    72    73    1
    53    72    69    1
    54    79    78    2
    55    83    82    2
    56    70    69    1
    57    70    76   am
    58    69    68    1
    59    82    81    1
    60    77    78    1
    61    77    76    1
    62    78    80   am
    63    80    81    1
    64    81    84    1
    65    59    58   ar
    66    56    55    2
    67    54    55    1
    68    54    57    1
    69    54    53    1
    70    58    57    1
    71    58    60   ar
    72    55    61   am
    73    64    63    2
    74    63    62    1
    75    61    62    1
    76    62    65    1
    77    65    66    1
    78    65    67    1
    79    52    50    1
    80    51    49    1
    81    36    35    2
    82    50    49    1
    83    27    28    1
    84    28    29    1
    85    28    31    1
    86    46    49    1
    87    46    47    1
    88    46    45    1
    89    35    45   am
    90    35    34    1
    91    47    48    2
    92    29    33   am
    93    29    30    2
    94    33    34    1
    95    31    32    1
    96    34    37    1
    97    41    39   ar
    98    41    43   ar
    99    39    38   ar
   100    44    43    1
   101    43    42   ar
   102    38    37    1
   103    38    40   ar
   104    42    40   ar
