@<TRIPOS>MOLECULE
tmp/3riaD00.pdb
 84 79 0 0 0
SMALL
GASTEIGER

@<TRIPOS>ATOM
      1  N         25.8810  101.1820   65.4830 N.3   214  SER214     -0.1217
      2  CA        26.7410  101.5290   64.3480 C.3   214  SER214      0.1889
      3  C         26.0440  101.3530   63.0070 C.2   214  SER214      0.2288
      4  O         26.2220  102.1650   62.1020 O.2   214  SER214     -0.2866
      5  CB        28.0290  100.7070   64.3680 C.3   214  SER214      0.2089
      6  OG        28.8140  101.0270   65.5010 O.3   214  SER214     -0.2183
      7  N         23.3510  104.1010   62.6110 N.3   217  LEU217     -0.1231
      8  CA        24.0350  105.3670   62.4030 C.3   217  LEU217      0.1693
      9  C         24.3980  105.5360   60.9330 C.2   217  LEU217      0.2592
     10  O         24.1210  106.5750   60.3380 O.2   217  LEU217     -0.2718
     11  CB        25.2970  105.4620   63.2600 C.3   217  LEU217      0.0284
     12  CG        26.1590  106.6990   62.9820 C.3   217  LEU217      0.0019
     13  CD1       25.3530  107.9610   63.2020 C.3   217  LEU217      0.0001
     14  CD2       27.4050  106.7040   63.8490 C.3   217  LEU217      0.0001
     15  N         25.0020  104.5030   60.3500 N.am  218  LEU218     -0.1966
     16  CA        25.4980  104.5760   58.9760 C.3   218  LEU218      0.1728
     17  C         24.4330  104.3780   57.8960 C.2   218  LEU218      0.2616
     18  O         24.5250  104.9670   56.8230 O.2   218  LEU218     -0.2715
     19  CB        26.6430  103.5830   58.7560 C.3   218  LEU218      0.0311
     20  CG        27.9090  103.8000   59.5860 C.3   218  LEU218      0.0022
     21  CD1       29.0600  102.9810   59.0310 C.3   218  LEU218      0.0001
     22  CD2       28.2720  105.2630   59.6040 C.3   218  LEU218      0.0001
     23  N         23.4260  103.5550   58.1700 N.am  219  GLN219     -0.1977
     24  CA        22.4460  103.2170   57.1400 C.3   219  GLN219      0.1601
     25  C         21.1560  104.0180   57.2400 C.2   219  GLN219      0.2287
     26  O         20.3150  103.9620   56.3430 O.2   219  GLN219     -0.2864
     27  CB        22.1330  101.7170   57.1500 C.3   219  GLN219      0.0394
     28  CG        23.3590  100.8340   56.9950 C.3   219  GLN219      0.0908
     29  CD        24.2320  101.2470   55.8230 C.2   219  GLN219      0.2608
     30  OE1       23.7430  101.7770   54.8220 O.2   219  GLN219     -0.2717
     31  NE2       25.5360  101.0150   55.9480 N.am  219  GLN219     -0.0878
     32  N         22.9750  109.0200   59.3950 N.3   222  ILE222     -0.1231
     33  CA        23.9280  109.7380   58.5540 C.3   222  ILE222      0.1678
     34  C         23.3390  110.0730   57.1830 C.2   222  ILE222      0.2434
     35  O         23.2900  111.2420   56.7960 O.2   222  ILE222     -0.2733
     36  CB        25.2450  108.9580   58.3600 C.3   222  ILE222      0.0265
     37  CG1       25.9740  108.7760   59.6940 C.3   222  ILE222      0.0019
     38  CG2       26.1380  109.6840   57.3750 C.3   222  ILE222      0.0020
     39  CD1       26.6290  110.0350   60.2130 C.3   222  ILE222      0.0001
     40  N         22.8700  109.0510   56.4470 N.am  223  PRO223     -0.2729
     41  CA        22.3750  109.2930   55.0860 C.3   223  PRO223      0.1401
     42  C         21.1510  110.2060   55.0340 C.2   223  PRO223      0.2269
     43  O         20.9270  110.8540   54.0120 O.2   223  PRO223     -0.2865
     44  CB        22.0070  107.8930   54.5920 C.3   223  PRO223      0.0296
     45  CG        21.7500  107.1140   55.8220 C.3   223  PRO223      0.0237
     46  CD        22.7140  107.6420   56.8410 C.3   223  PRO223      0.0939
     47  N         20.6110  112.8190   57.2270 N.3   225  CYS225     -0.1221
     48  CA        21.1550  114.1570   57.4000 C.3   225  CYS225      0.1808
     49  C         21.7690  114.6220   56.0910 C.2   225  CYS225      0.2601
     50  O         21.5370  115.7430   55.6410 O.2   225  CYS225     -0.2717
     51  CB        22.2090  114.1770   58.4980 C.3   225  CYS225      0.0970
     52  SG        21.5280  113.9340   60.1310 S.3   225  CYS225     -0.0800
     53  N         22.5560  113.7440   55.4840 N.am  226  MET226     -0.1979
     54  CA        23.1790  114.0290   54.2040 C.3   226  MET226      0.1605
     55  C         22.1140  114.3240   53.1490 C.2   226  MET226      0.2287
     56  O         22.3690  115.0230   52.1700 O.2   226  MET226     -0.2864
     57  CB        24.0650  112.8510   53.7940 C.3   226  MET226      0.0413
     58  CG        24.7020  112.9650   52.4270 C.3   226  MET226      0.0598
     59  SD        23.6550  112.2380   51.1560 S.3   226  MET226     -0.1393
     60  CE        24.8610  111.9710   49.8680 C.3   226  MET226      0.0692
     61  N         20.4590  117.8890   54.2500 N.3   229  ILE229     -0.1231
     62  CA        21.4390  118.9320   53.9650 C.3   229  ILE229      0.1692
     63  C         21.4660  119.2820   52.4790 C.2   229  ILE229      0.2591
     64  O         21.6640  120.4390   52.1110 O.2   229  ILE229     -0.2718
     65  CB        22.8500  118.5250   54.4430 C.3   229  ILE229      0.0266
     66  CG1       22.9250  118.5870   55.9680 C.3   229  ILE229      0.0019
     67  CG2       23.9100  119.4230   53.8320 C.3   229  ILE229      0.0020
     68  CD1       24.2250  118.0780   56.5340 C.3   229  ILE229      0.0001
     69  N         21.2550  118.2840   51.6270 N.am  230  VAL230     -0.1980
     70  CA        21.2120  118.5260   50.1900 C.3   230  VAL230      0.1595
     71  C         20.0190  119.3960   49.8140 C.2   230  VAL230      0.2287
     72  O         20.1170  120.2460   48.9340 O.2   230  VAL230     -0.2864
     73  CB        21.1860  117.2150   49.3780 C.3   230  VAL230      0.0276
     74  CG1       20.8210  117.4930   47.9290 C.3   230  VAL230      0.0022
     75  CG2       22.5290  116.5140   49.4660 C.3   230  VAL230      0.0022
     76  N         14.2660  105.1480   51.3320 N.3   259  GLN259     -0.1245
     77  CA        15.0910  104.7630   52.4690 C.3   259  GLN259      0.1566
     78  C         14.2520  104.2230   53.6220 C.2   259  GLN259      0.2260
     79  O         14.5490  103.1650   54.1830 O.2   259  GLN259     -0.2867
     80  CB        15.9300  105.9410   52.9500 C.3   259  GLN259      0.0367
     81  CG        16.7340  105.6240   54.1910 C.3   259  GLN259      0.0905
     82  CD        17.3880  106.8470   54.7850 C.2   259  GLN259      0.2608
     83  OE1       17.5300  107.8750   54.1210 O.2   259  GLN259     -0.2717
     84  NE2       17.7850  106.7480   56.0490 N.am  259  GLN259     -0.0878
@<TRIPOS>BOND
     1    74    73    1
     2    72    71    2
     3    73    75    1
     4    73    70    1
     5    71    70    1
     6    60    59    1
     7    70    69    1
     8    59    58    1
     9    76    77    1
    10    69    63   am
    11    64    63    2
    12    56    55    2
    13    58    57    1
    14    77    80    1
    15    77    78    1
    16    63    62    1
    17    80    81    1
    18    55    54    1
    19    78    79    2
    20    57    54    1
    21    67    65    1
    22    62    61    1
    23    62    65    1
    24    43    42    2
    25    83    82    2
    26    81    82    1
    27    54    53    1
    28    65    66    1
    29    44    41    1
    30    44    45    1
    31    82    84   am
    32    30    29    2
    33    42    41    1
    34    41    40    1
    35    53    49   am
    36    50    49    2
    37    45    46    1
    38    29    31   am
    39    29    28    1
    40    66    68    1
    41    49    48    1
    42    26    25    2
    43    40    46    1
    44    40    34   am
    45    35    34    2
    46    18    17    2
    47    28    27    1
    48    24    27    1
    49    24    25    1
    50    24    23    1
    51    34    33    1
    52    47    48    1
    53    38    36    1
    54    48    51    1
    55    17    23   am
    56    17    16    1
    57    36    33    1
    58    36    37    1
    59    51    52    1
    60    33    32    1
    61    19    16    1
    62    19    20    1
    63    16    15    1
    64    21    20    1
    65    20    22    1
    66    37    39    1
    67    10     9    2
    68    15     9   am
    69     9     8    1
    70     4     3    2
    71     8     7    1
    72     8    11    1
    73    12    13    1
    74    12    11    1
    75    12    14    1
    76     3     2    1
    77     2     5    1
    78     2     1    1
    79     5     6    1
