@<TRIPOS>MOLECULE
tmp/3rieC02.pdb
 147 142 0 0 0
SMALL
GASTEIGER

@<TRIPOS>ATOM
      1  N         20.1180  155.1200   54.9160 N.3    11  TRP11      -0.1241
      2  CA        20.7690  153.8110   54.6510 C.3    11  TRP11       0.1605
      3  C         19.6730  152.7270   54.6490 C.2    11  TRP11       0.2264
      4  O         19.5600  151.9040   55.5790 O.2    11  TRP11      -0.2867
      5  CB        22.0200  153.4730   55.5590 C.3    11  TRP11       0.0550
      6  CG        21.8830  153.9100   57.0010 C.ar   11  TRP11       0.0003
      7  CD1       21.3570  153.1860   58.0370 C.ar   11  TRP11       0.0946
      8  CD2       22.3250  155.1820   57.5890 C.ar   11  TRP11       0.0152
      9  NE1       21.4110  153.9180   59.2390 N.ar   11  TRP11      -0.2442
     10  CE2       21.9420  155.1570   58.9880 C.ar   11  TRP11       0.0810
     11  CE3       22.8880  156.3520   57.0590 C.ar   11  TRP11       0.0012
     12  CZ2       22.2030  156.2440   59.8930 C.ar   11  TRP11       0.0191
     13  CZ3       23.1560  157.4740   57.9660 C.ar   11  TRP11       0.0001
     14  CH2       22.7970  157.3820   59.3670 C.ar   11  TRP11       0.0015
     15  N         20.2850  158.5960   65.1340 N.3    51  VAL51      -0.1231
     16  CA        21.5780  158.2890   64.5010 C.3    51  VAL51       0.1692
     17  C         22.7870  158.3410   65.4820 C.2    51  VAL51       0.2592
     18  O         22.9700  159.3880   66.1620 O.2    51  VAL51      -0.2718
     19  CB        21.8390  159.3060   63.3060 C.3    51  VAL51       0.0266
     20  CG1       23.2120  159.0030   62.7020 C.3    51  VAL51       0.0020
     21  CG2       20.7170  159.2470   62.2500 C.3    51  VAL51       0.0020
     22  N         23.5980  157.2610   65.5450 N.am   52  ILE52      -0.1966
     23  CA        24.8350  157.2880   66.3550 C.3    52  ILE52       0.1727
     24  C         25.7810  158.4330   65.9930 C.2    52  ILE52       0.2616
     25  O         26.2370  158.4830   64.8600 O.2    52  ILE52      -0.2715
     26  CB        25.5430  155.9550   66.3420 C.3    52  ILE52       0.0290
     27  CG1       24.5440  154.8410   66.7390 C.3    52  ILE52       0.0022
     28  CG2       26.9410  155.9630   67.1160 C.3    52  ILE52       0.0023
     29  CD1       25.1020  153.3600   66.5840 C.3    52  ILE52       0.0001
     30  N         26.1510  159.2740   66.9820 N.am   53  GLN53      -0.1963
     31  CA        27.1270  160.3640   66.7360 C.3    53  GLN53       0.1733
     32  C         28.4760  159.8890   67.1900 C.2    53  GLN53       0.2616
     33  O         29.5000  160.1710   66.5180 O.2    53  GLN53      -0.2715
     34  CB        26.7490  161.6820   67.4670 C.3    53  GLN53       0.0408
     35  CG        25.3670  162.1690   67.1250 C.3    53  GLN53       0.0908
     36  CD        25.2770  162.5380   65.6420 C.2    53  GLN53       0.2608
     37  OE1       25.9920  163.4220   65.1770 O.2    53  GLN53      -0.2717
     38  NE2       24.5200  161.7270   64.8670 N.am   53  GLN53      -0.0878
     39  N         28.5310  159.1100   68.2790 N.am   54  LEU54      -0.1977
     40  CA        29.8450  158.6390   68.7470 C.3    54  LEU54       0.1596
     41  C         29.6600  157.5890   69.8110 C.2    54  LEU54       0.2287
     42  O         28.5770  157.4670   70.3360 O.2    54  LEU54      -0.2864
     43  CB        30.7670  159.7550   69.3240 C.3    54  LEU54       0.0297
     44  CG        30.1050  160.6140   70.4130 C.3    54  LEU54       0.0022
     45  CD1       30.1560  159.8980   71.7330 C.3    54  LEU54       0.0001
     46  CD2       30.8550  161.9910   70.5700 C.3    54  LEU54       0.0001
     47  N         37.5280  158.8180   64.4100 N.3    62  TYR62      -0.1227
     48  CA        36.9980  159.9150   63.6410 C.3    62  TYR62       0.1736
     49  C         37.5960  161.3140   64.0910 C.2    62  TYR62       0.2595
     50  O         38.0320  162.0770   63.2590 O.2    62  TYR62      -0.2718
     51  CB        35.5090  159.9090   63.8450 C.3    62  TYR62       0.0548
     52  CG        34.7870  161.0860   63.2480 C.ar   62  TYR62      -0.0200
     53  CD1       34.4400  161.0940   61.8930 C.ar   62  TYR62      -0.0009
     54  CD2       34.2890  162.1330   64.0960 C.ar   62  TYR62      -0.0009
     55  CE1       33.6630  162.1460   61.3260 C.ar   62  TYR62       0.0417
     56  CE2       33.5460  163.1960   63.5550 C.ar   62  TYR62       0.0417
     57  CZ        33.2090  163.1820   62.1990 C.ar   62  TYR62       0.1957
     58  OH        32.3960  164.1920   61.7460 O.3    62  TYR62      -0.2866
     59  N         37.6160  161.6120   65.4020 N.am   63  HIS63      -0.1975
     60  CA        38.1240  162.9240   65.8540 C.3    63  HIS63       0.1656
     61  C         39.5720  163.1680   65.5000 C.2    63  HIS63       0.2291
     62  O         39.9320  164.2750   65.1120 O.2    63  HIS63      -0.2864
     63  CB        37.8270  163.1430   67.3800 C.3    63  HIS63       0.0771
     64  CG        36.3660  163.1520   67.6020 C.ar   63  HIS63       0.0820
     65  ND1       35.7220  162.3160   68.5010 N.ar   63  HIS63      -0.2267
     66  CD2       35.3920  163.9150   66.9960 C.ar   63  HIS63       0.1154
     67  CE1       34.4120  162.5760   68.4310 C.ar   63  HIS63       0.1986
     68  NE2       34.1900  163.5480   67.5520 N.ar   63  HIS63      -0.2212
     69  N         30.1050  169.6720   65.9500 N.3    85  GLY85      -0.1225
     70  CA        31.2050  169.2710   66.8580 C.3    85  GLY85       0.1811
     71  C         30.8790  169.4960   68.3470 C.2    85  GLY85       0.2280
     72  O         31.8060  169.6070   69.1780 O.2    85  GLY85      -0.2866
     73  N         30.0210  167.7890   70.7830 N.3    87  ASP87      -0.1239
     74  CA        30.4880  166.8700   71.8160 C.3    87  ASP87       0.1674
     75  C         31.8790  167.2680   72.2750 C.2    87  ASP87       0.2266
     76  O         32.2690  166.8350   73.3480 O.2    87  ASP87      -0.2867
     77  CB        30.5160  165.4000   71.2910 C.3    87  ASP87       0.1410
     78  CG        31.2270  165.3230   69.8830 C.2    87  ASP87       0.3668
     79  OD1       32.4550  165.3660   69.8050 O.co2  87  ASP87      -0.2456
     80  OD2       30.5470  165.3950   68.8640 O.co2  87  ASP87      -0.2456
     81  N         32.2700  169.2840   61.3480 N.3   156  ASP156     -0.1225
     82  CA        31.8600  168.0310   62.0040 C.3   156  ASP156      0.1805
     83  C         30.3880  168.0190   62.2730 C.2   156  ASP156      0.2598
     84  O         29.9740  168.1520   63.4350 O.2   156  ASP156     -0.2718
     85  CB        32.6980  167.9380   63.3170 C.3   156  ASP156      0.1424
     86  CG        32.3000  166.7100   64.1700 C.2   156  ASP156      0.3668
     87  OD1       31.7470  165.7190   63.6140 O.co2 156  ASP156     -0.2456
     88  OD2       32.5450  166.7420   65.3760 O.co2 156  ASP156     -0.2456
     89  N         29.5800  167.8670   61.2150 N.am  157  SER157     -0.1952
     90  CA        28.1120  167.8940   61.2990 C.3   157  SER157      0.1924
     91  C         27.5510  166.5420   61.5130 C.2   157  SER157      0.2314
     92  O         28.1140  165.4640   61.2680 O.2   157  SER157     -0.2863
     93  CB        27.5550  168.3980   59.9470 C.3   157  SER157      0.2116
     94  OG        28.1670  167.6120   58.8840 O.3   157  SER157     -0.2180
     95  N         24.2410  164.2790   60.0090 N.3   159  ASP159     -0.1239
     96  CA        23.7660  163.9880   58.6350 C.3   159  ASP159      0.1674
     97  C         22.8510  165.0710   58.0410 C.2   159  ASP159      0.2266
     98  O         22.1800  165.8280   58.8050 O.2   159  ASP159     -0.2867
     99  CB        23.0890  162.5860   58.5440 C.3   159  ASP159      0.1410
    100  CG        24.0510  161.4770   58.9940 C.2   159  ASP159      0.3668
    101  OD1       25.1520  161.4030   58.4230 O.co2 159  ASP159     -0.2456
    102  OD2       23.7480  160.7060   59.9270 O.co2 159  ASP159     -0.2456
    103  N         32.9260  166.1310   57.2220 N.3   189  GLN189     -0.1245
    104  CA        32.4790  164.7420   57.1860 C.3   189  GLN189      0.1566
    105  C         31.6690  164.5200   55.8940 C.2   189  GLN189      0.2260
    106  O         30.8530  165.3020   55.5530 O.2   189  GLN189     -0.2867
    107  CB        31.6900  164.3410   58.4370 C.3   189  GLN189      0.0367
    108  CG        30.3550  164.8390   58.5010 C.3   189  GLN189      0.0905
    109  CD        29.3200  163.8680   58.0070 C.2   189  GLN189      0.2608
    110  OE1       29.5860  163.0020   57.2530 O.2   189  GLN189     -0.2717
    111  NE2       28.1510  164.0600   58.4260 N.am  189  GLN189     -0.0878
    112  N         30.4300  161.2230   54.6390 N.3   191  GLU191     -0.1245
    113  CA        29.5740  160.0580   54.5020 C.3   191  GLU191      0.1567
    114  C         30.2600  158.7880   54.0880 C.2   191  GLU191      0.2260
    115  O         31.4880  158.7210   54.0840 O.2   191  GLU191     -0.2867
    116  CB        28.2690  160.3380   53.7130 C.3   191  GLU191      0.0388
    117  CG        27.3700  161.4640   54.3020 C.3   191  GLU191      0.1160
    118  CD        26.7330  161.1480   55.7170 C.2   191  GLU191      0.3649
    119  OE1       26.7560  159.9530   56.1810 O.co2 191  GLU191     -0.2457
    120  OE2       26.2510  162.1450   56.3240 O.co2 191  GLU191     -0.2457
    121  N         29.7150  153.7840   62.7280 N.3   224  TYR224     -0.1228
    122  CA        28.9740  154.5430   61.7110 C.3   224  TYR224      0.1721
    123  C         28.5910  153.5520   60.5600 C.2   224  TYR224      0.2437
    124  O         29.2800  152.5600   60.3520 O.2   224  TYR224     -0.2733
    125  CB        29.8680  155.6440   61.0770 C.3   224  TYR224      0.0547
    126  CG        30.1650  156.8500   61.9860 C.ar  224  TYR224     -0.0200
    127  CD1       29.3420  157.1860   63.0410 C.ar  224  TYR224     -0.0009
    128  CD2       31.3340  157.6420   61.7650 C.ar  224  TYR224     -0.0009
    129  CE1       29.5720  158.3280   63.8410 C.ar  224  TYR224      0.0417
    130  CE2       31.6020  158.7880   62.5700 C.ar  224  TYR224      0.0417
    131  CZ        30.7170  159.1030   63.6180 C.ar  224  TYR224      0.1957
    132  OH        30.9410  160.1880   64.3880 O.3   224  TYR224     -0.2866
    133  N         27.5010  153.8210   59.8510 N.am  225  PRO225     -0.2729
    134  CA        26.9360  152.7870   58.9720 C.3   225  PRO225      0.1401
    135  C         27.9510  152.4390   57.8490 C.2   225  PRO225      0.2269
    136  O         28.6710  153.3530   57.3380 O.2   225  PRO225     -0.2865
    137  CB        25.7430  153.4930   58.3080 C.3   225  PRO225      0.0296
    138  CG        25.5980  154.8370   58.9790 C.3   225  PRO225      0.0237
    139  CD        26.6100  154.9900   60.0530 C.3   225  PRO225      0.0939
    140  N         33.6590  156.2560   57.2510 N.3   229  ILE229     -0.1245
    141  CA        33.1340  157.5350   56.8990 C.3   229  ILE229      0.1561
    142  C         34.2300  158.2710   56.1530 C.2   229  ILE229      0.2260
    143  O         35.4110  158.0850   56.4570 O.2   229  ILE229     -0.2867
    144  CB        32.6060  158.3060   58.1820 C.3   229  ILE229      0.0252
    145  CG1       31.6960  159.4570   57.7060 C.3   229  ILE229      0.0019
    146  CG2       33.7590  158.5770   59.1600 C.3   229  ILE229      0.0019
    147  CD1       30.9190  160.1150   58.7190 C.3   229  ILE229      0.0001
@<TRIPOS>BOND
     1   116   117    1
     2   116   113    1
     3   115   114    2
     4   114   113    1
     5   117   118    1
     6   113   112    1
     7     3     2    1
     8     3     4    2
     9     2     1    1
    10     2     5    1
    11   106   105    2
    12     5     6    1
    13   118   119   ar
    14   118   120   ar
    15   105   104    1
    16   142   143    2
    17   142   141    1
    18   141   140    1
    19   141   144    1
    20     6     8   ar
    21     6     7   ar
    22    11     8   ar
    23    11    13   ar
    24   104   103    1
    25   104   107    1
    26   110   109    2
    27   136   135    2
    28     8    10   ar
    29   145   144    1
    30   145   147    1
    31   135   134    1
    32    13    14   ar
    33   109   111   am
    34   109   108    1
    35     7     9   ar
    36    97    96    1
    37    97    98    2
    38   144   146    1
    39   137   134    1
    40   137   138    1
    41   101   100   ar
    42   107   108    1
    43    99    96    1
    44    99   100    1
    45    96    95    1
    46    94    93    1
    47   134   133    1
    48   138   139    1
    49    10     9   ar
    50    10    12   ar
    51   100   102   ar
    52    14    12   ar
    53   133   139    1
    54   133   123   am
    55    93    90    1
    56   124   123    2
    57   123   122    1
    58   125   122    1
    59   125   126    1
    60    89    90    1
    61    89    83   am
    62    92    91    2
    63    90    91    1
    64    55    53   ar
    65    55    57   ar
    66    81    82    1
    67   122   121    1
    68    58    57    1
    69   128   126   ar
    70   128   130   ar
    71    53    52   ar
    72   126   127   ar
    73    82    83    1
    74    82    85    1
    75    57    56   ar
    76    21    19    1
    77    83    84    2
    78   130   131   ar
    79    20    19    1
    80   127   129   ar
    81    52    51    1
    82    52    54   ar
    83    50    49    2
    84    19    16    1
    85    85    86    1
    86    56    54   ar
    87    87    86   ar
    88   131   129   ar
    89   131   132    1
    90    48    51    1
    91    48    49    1
    92    48    47    1
    93    49    59   am
    94    86    88   ar
    95    16    15    1
    96    16    17    1
    97    25    24    2
    98    38    36   am
    99    62    61    2
   100    37    36    2
   101    59    60    1
   102    17    22   am
   103    17    18    2
   104    61    60    1
   105    22    23    1
   106    36    35    1
   107    60    63    1
   108    69    70    1
   109    24    23    1
   110    24    30   am
   111    26    23    1
   112    26    27    1
   113    26    28    1
   114    33    32    2
   115    29    27    1
   116    31    30    1
   117    31    32    1
   118    31    34    1
   119    70    71    1
   120    66    68   ar
   121    66    64   ar
   122    35    34    1
   123    32    39   am
   124    63    64    1
   125    68    67   ar
   126    64    65   ar
   127    39    40    1
   128    71    72    2
   129    67    65   ar
   130    40    43    1
   131    40    41    1
   132    80    78   ar
   133    43    44    1
   134    79    78   ar
   135    41    42    2
   136    78    77    1
   137    44    46    1
   138    44    45    1
   139    73    74    1
   140    77    74    1
   141    74    75    1
   142    75    76    2
