@<TRIPOS>MOLECULE
tmp/3rigA00.pdb
 162 160 0 0 0
SMALL
GASTEIGER

@<TRIPOS>ATOM
      1  N          3.9830    0.6620  -11.3060 N.3    41  GLN41      -0.1245
      2  CA         4.9580    0.2070  -10.2820 C.3    41  GLN41       0.1566
      3  C          4.2800   -0.0560   -8.9470 C.2    41  GLN41       0.2260
      4  O          4.7610   -0.8790   -8.1400 O.2    41  GLN41      -0.2867
      5  CB         6.1470    1.1950  -10.1110 C.3    41  GLN41       0.0367
      6  CG         5.7280    2.5550   -9.6120 C.3    41  GLN41       0.0905
      7  CD         6.8060    3.5860   -9.7980 C.2    41  GLN41       0.2608
      8  OE1        7.7360    3.6900   -8.9920 O.2    41  GLN41      -0.2717
      9  NE2        6.7020    4.3500  -10.8710 N.am   41  GLN41      -0.0878
     10  N          2.5680   -3.4830   -9.0440 N.3    44  ALA44      -0.1245
     11  CA         3.5730   -4.5140   -9.0820 C.3    44  ALA44       0.1562
     12  C          4.3900   -4.5300   -7.7730 C.2    44  ALA44       0.2260
     13  O          5.6260   -4.2800   -7.8060 O.2    44  ALA44      -0.2867
     14  CB         4.5480   -4.2340  -10.3060 C.3    44  ALA44       0.0290
     15  N         -2.9890   -7.8510  -13.6950 N.3    60  TYR60      -0.1241
     16  CA        -2.1610   -8.8350  -14.4230 C.3    60  TYR60       0.1605
     17  C         -2.9820   -9.6260  -15.4480 C.2    60  TYR60       0.2264
     18  O         -2.4420  -10.0830  -16.4830 O.2    60  TYR60      -0.2867
     19  CB        -1.4040   -9.7380  -13.4570 C.3    60  TYR60       0.0534
     20  CG        -0.1680   -8.9740  -13.0040 C.ar   60  TYR60      -0.0201
     21  CD1       -0.0800   -8.4370  -11.7200 C.ar   60  TYR60      -0.0009
     22  CD2        0.8870   -8.7990  -13.8910 C.ar   60  TYR60      -0.0009
     23  CE1        1.0870   -7.7040  -11.2900 C.ar   60  TYR60       0.0417
     24  CE2        2.0490   -8.0740  -13.5100 C.ar   60  TYR60       0.0417
     25  CZ         2.1400   -7.5330  -12.2240 C.ar   60  TYR60       0.1957
     26  OH         3.2490   -6.7700  -11.8520 O.3    60  TYR60      -0.2866
     27  N         14.6360   -7.3120  -18.8450 N.3    98  GLN98      -0.1245
     28  CA        13.8290   -6.8670  -17.7220 C.3    98  GLN98       0.1566
     29  C         12.3270   -7.0540  -17.9740 C.2    98  GLN98       0.2260
     30  O         11.5010   -6.8130  -17.0390 O.2    98  GLN98      -0.2867
     31  CB        14.1000   -5.3920  -17.4540 C.3    98  GLN98       0.0367
     32  CG        15.6390   -5.1340  -17.3960 C.3    98  GLN98       0.0905
     33  CD        16.0310   -3.6840  -17.3430 C.2    98  GLN98       0.2608
     34  OE1       17.0550   -3.3000  -17.9230 O.2    98  GLN98      -0.2717
     35  NE2       15.3230   -2.9080  -16.5850 N.am   98  GLN98      -0.0878
     36  N          8.6300   -8.9210  -19.0110 N.3   100  ILE100     -0.1245
     37  CA         7.9190  -10.0920  -18.5420 C.3   100  ILE100      0.1561
     38  C          6.9320  -10.5570  -19.6030 C.2   100  ILE100      0.2260
     39  O          6.1600  -11.4830  -19.3760 O.2   100  ILE100     -0.2867
     40  CB         7.2060   -9.8020  -17.2060 C.3   100  ILE100      0.0252
     41  CG1        6.2010   -8.6090  -17.3200 C.3   100  ILE100      0.0019
     42  CG2        8.3310   -9.4580  -16.1050 C.3   100  ILE100      0.0019
     43  CD1        5.3950   -8.4460  -16.0040 C.3   100  ILE100      0.0001
     44  N         13.0300  -10.7890  -14.3540 N.3   116  HIS116     -0.1241
     45  CA        11.9180  -10.3740  -13.4920 C.3   116  HIS116      0.1621
     46  C         10.6720  -11.2760  -13.6740 C.2   116  HIS116      0.2264
     47  O          9.5550  -10.8600  -13.3950 O.2   116  HIS116     -0.2867
     48  CB        11.4830   -8.9660  -13.8060 C.3   116  HIS116      0.0745
     49  CG        12.5230   -7.9210  -13.6000 C.ar  116  HIS116      0.0817
     50  ND1       12.5920   -6.7990  -14.3960 N.ar  116  HIS116     -0.2268
     51  CD2       13.5170   -7.7990  -12.6750 C.ar  116  HIS116      0.1154
     52  CE1       13.5470   -6.0040  -13.9400 C.ar  116  HIS116      0.1986
     53  NE2       14.1570   -6.6110  -12.9380 N.ar  116  HIS116     -0.2212
     54  N          6.2610  -12.9810  -11.0970 N.3   178  VAL178     -0.1231
     55  CA         6.8230  -11.7390  -11.5700 C.3   178  VAL178      0.1692
     56  C          7.5370  -11.2030  -10.3310 C.2   178  VAL178      0.2592
     57  O          7.0110  -11.2490   -9.2190 O.2   178  VAL178     -0.2718
     58  CB         5.7370  -10.7350  -12.0460 C.3   178  VAL178      0.0266
     59  CG1        6.3220   -9.3360  -12.3320 C.3   178  VAL178      0.0020
     60  CG2        5.0450  -11.2720  -13.3160 C.3   178  VAL178      0.0020
     61  N          8.7570  -10.7190  -10.5200 N.am  179  VAL179     -0.1966
     62  CA         9.4710  -10.0640   -9.4250 C.3   179  VAL179      0.1727
     63  C          8.9250   -8.6570   -9.2710 C.2   179  VAL179      0.2616
     64  O          8.9740   -7.8360  -10.2140 O.2   179  VAL179     -0.2715
     65  CB        11.0180   -9.9330   -9.7880 C.3   179  VAL179      0.0290
     66  CG1       11.7560   -9.2520   -8.6080 C.3   179  VAL179      0.0023
     67  CG2       11.6170  -11.3280  -10.0970 C.3   179  VAL179      0.0023
     68  N          8.4610   -8.3540   -8.0730 N.am  180  TRP180     -0.1960
     69  CA         7.8290   -7.0680   -7.8260 C.3   180  TRP180      0.1771
     70  C          8.8030   -6.0990   -7.1760 C.2   180  TRP180      0.2620
     71  O          9.8060   -6.5210   -6.6450 O.2   180  TRP180     -0.2715
     72  CB         6.6000   -7.2780   -6.9490 C.3   180  TRP180      0.0590
     73  CG         5.4730   -7.8510   -7.7090 C.ar  180  TRP180      0.0006
     74  CD1        5.2520   -7.7110   -9.0430 C.ar  180  TRP180      0.0946
     75  CD2        4.3800   -8.6460   -7.1940 C.ar  180  TRP180      0.0152
     76  NE1        4.0410   -8.3270   -9.4050 N.ar  180  TRP180     -0.2442
     77  CE2        3.5010   -8.9220   -8.2950 C.ar  180  TRP180      0.0810
     78  CE3        4.0430   -9.1260   -5.9130 C.ar  180  TRP180      0.0012
     79  CZ2        2.3100   -9.6920   -8.1590 C.ar  180  TRP180      0.0191
     80  CZ3        2.8650   -9.9130   -5.7700 C.ar  180  TRP180      0.0001
     81  CH2        2.0180  -10.1820   -6.8890 C.ar  180  TRP180      0.0015
     82  N          8.4940   -4.8160   -7.2440 N.am  181  PHE181     -0.1960
     83  CA         9.2890   -3.8220   -6.5720 C.3   181  PHE181      0.1771
     84  C          9.3290   -4.0900   -5.0710 C.2   181  PHE181      0.2620
     85  O          8.2940   -4.4000   -4.4670 O.2   181  PHE181     -0.2715
     86  CB         8.7710   -2.4310   -6.9390 C.3   181  PHE181      0.0574
     87  CG         8.9000   -2.1480   -8.3860 C.ar  181  PHE181     -0.0200
     88  CD1       10.1320   -1.7240   -8.9180 C.ar  181  PHE181     -0.0042
     89  CD2        7.8430   -2.3420   -9.2390 C.ar  181  PHE181     -0.0042
     90  CE1       10.3040   -1.5040  -10.3000 C.ar  181  PHE181     -0.0003
     91  CE2        7.9830   -2.1350  -10.6210 C.ar  181  PHE181     -0.0003
     92  CZ         9.2410   -1.6790  -11.1450 C.ar  181  PHE181     -0.0000
     93  N         10.5400   -4.0140   -4.4960 N.am  182  GLY182     -0.1940
     94  CA        10.8190   -4.4220   -3.0840 C.3   182  GLY182      0.2014
     95  C         10.9940   -5.9410   -2.8680 C.2   182  GLY182      0.2639
     96  O         11.1540   -6.4200   -1.7490 O.2   182  GLY182     -0.2714
     97  N         11.0090   -6.7170   -3.9350 N.am  183  GLU183     -0.1963
     98  CA        11.3290   -8.1410   -3.8360 C.3   183  GLU183      0.1733
     99  C         12.7310   -8.3750   -4.3980 C.2   183  GLU183      0.2616
    100  O         13.1580   -7.6170   -5.2860 O.2   183  GLU183     -0.2715
    101  CB        10.3090   -8.9590   -4.6460 C.3   183  GLU183      0.0429
    102  CG         8.8570   -8.8300   -4.0650 C.3   183  GLU183      0.1163
    103  CD         7.8920   -9.8760   -4.6490 C.2   183  GLU183      0.3649
    104  OE1        6.9750  -10.3460   -3.9060 O.co2 183  GLU183     -0.2457
    105  OE2        8.0820  -10.2530   -5.8170 O.co2 183  GLU183     -0.2457
    106  N         13.4190   -9.4240   -3.9040 N.am  184  ASN184     -0.1958
    107  CA        14.7350   -9.7990   -4.4330 C.3   184  ASN184      0.1819
    108  C         14.6670  -10.5620   -5.7440 C.2   184  ASN184      0.2621
    109  O         13.8580  -11.4770   -5.8640 O.2   184  ASN184     -0.2715
    110  CB        15.4620  -10.6840   -3.4290 C.3   184  ASN184      0.1195
    111  CG        15.9280   -9.9150   -2.2470 C.2   184  ASN184      0.2630
    112  OD1       16.2720   -8.7380   -2.3650 O.2   184  ASN184     -0.2716
    113  ND2       15.9460  -10.5640   -1.0870 N.am  184  ASN184     -0.0877
    114  N         15.4950  -10.2210   -6.7190 N.am  185  LEU185     -0.1977
    115  CA        15.5910  -11.0760   -7.9240 C.3   185  LEU185      0.1596
    116  C         16.2370  -12.4110   -7.5070 C.2   185  LEU185      0.2287
    117  O         16.8670  -12.4760   -6.4470 O.2   185  LEU185     -0.2864
    118  CB        16.3590  -10.4550   -9.0750 C.3   185  LEU185      0.0297
    119  CG        16.2780   -9.0080   -9.6070 C.3   185  LEU185      0.0022
    120  CD1       16.5840   -8.8650  -11.1170 C.3   185  LEU185      0.0001
    121  CD2       15.1740   -8.0870   -9.1030 C.3   185  LEU185      0.0001
    122  N         20.7960  -13.8530  -10.8770 N.3   190  LEU190     -0.1245
    123  CA        21.7840  -12.7440  -10.8070 C.3   190  LEU190      0.1561
    124  C         23.2500  -13.2410  -10.9620 C.2   190  LEU190      0.2260
    125  O         24.0870  -12.5550  -11.5840 O.2   190  LEU190     -0.2867
    126  CB        21.6640  -11.9200   -9.5250 C.3   190  LEU190      0.0270
    127  CG        20.3000  -11.2310   -9.2720 C.3   190  LEU190      0.0019
    128  CD1       20.4480  -10.6350   -7.8800 C.3   190  LEU190      0.0001
    129  CD2       20.2360  -10.1280  -10.2930 C.3   190  LEU190      0.0001
    130  N         16.2780    2.5810  -15.5350 N.3   211  VAL211     -0.1231
    131  CA        15.6160    3.1390  -14.3640 C.3   211  VAL211      0.1692
    132  C         15.0850    2.1540  -13.3090 C.2   211  VAL211      0.2592
    133  O         14.6810    2.5690  -12.2430 O.2   211  VAL211     -0.2718
    134  CB        14.5580    4.1850  -14.7230 C.3   211  VAL211      0.0266
    135  CG1       15.0590    5.5800  -14.2720 C.3   211  VAL211      0.0020
    136  CG2       14.1970    4.0920  -16.2660 C.3   211  VAL211      0.0020
    137  N         15.1200    0.8650  -13.6310 N.am  212  VAL212     -0.1966
    138  CA        14.8280   -0.2150  -12.7220 C.3   212  VAL212      0.1727
    139  C         16.1190   -0.9010  -12.2480 C.2   212  VAL212      0.2616
    140  O         16.8960   -1.4380  -13.0880 O.2   212  VAL212     -0.2715
    141  CB        13.9300   -1.2540  -13.3850 C.3   212  VAL212      0.0290
    142  CG1       13.7020   -2.4020  -12.4300 C.3   212  VAL212      0.0023
    143  CG2       12.5580   -0.6300  -13.7280 C.3   212  VAL212      0.0023
    144  N         16.3660   -0.8550  -10.9350 N.am  213  TYR213     -0.1960
    145  CA        17.5960   -1.4410  -10.3270 C.3   213  TYR213      0.1756
    146  C         17.2190   -2.8270   -9.7660 C.2   213  TYR213      0.2461
    147  O         16.0230   -3.0560   -9.4360 O.2   213  TYR213     -0.2730
    148  CB        18.1340   -0.5200   -9.2180 C.3   213  TYR213      0.0574
    149  CG        18.6980    0.7570   -9.7760 C.ar  213  TYR213     -0.0198
    150  CD1       17.8620    1.7910  -10.1870 C.ar  213  TYR213     -0.0009
    151  CD2       20.0800    0.9530   -9.8690 C.ar  213  TYR213     -0.0009
    152  CE1       18.3770    2.9880  -10.7100 C.ar  213  TYR213      0.0417
    153  CE2       20.6060    2.1450  -10.4060 C.ar  213  TYR213      0.0417
    154  CZ        19.7400    3.1490  -10.8240 C.ar  213  TYR213      0.1957
    155  OH        20.2400    4.3140  -11.3560 O.3   213  TYR213     -0.2866
    156  N         18.1920   -3.7560   -9.6620 N.am  214  PRO214     -0.2727
    157  CA        19.6250   -3.5950  -10.0410 C.3   214  PRO214      0.1402
    158  C         19.9260   -3.6740  -11.5280 C.2   214  PRO214      0.2269
    159  O         21.0530   -3.3740  -11.8810 O.2   214  PRO214     -0.2865
    160  CB        20.3120   -4.7770   -9.3560 C.3   214  PRO214      0.0296
    161  CG        19.1860   -5.8890   -9.4110 C.3   214  PRO214      0.0237
    162  CD        17.9430   -5.0630   -9.0150 C.3   214  PRO214      0.0939
@<TRIPOS>BOND
     1    38    39    2
     2    38    37    1
     3    36    37    1
     4    27    28    1
     5    37    40    1
     6    29    28    1
     7    29    30    2
     8    34    33    2
     9    28    31    1
    10    31    32    1
    11    32    33    1
    12    33    35   am
    13    41    40    1
    14    41    43    1
    15    40    42    1
    16    18    17    2
    17   136   134    1
    18   130   131    1
    19    17    16    1
    20   134   131    1
    21   134   135    1
    22    16    15    1
    23    16    19    1
    24    50    52   ar
    25    50    49   ar
    26   131   132    1
    27    44    45    1
    28    52    53   ar
    29    22    24   ar
    30    22    20   ar
    31    48    49    1
    32    48    45    1
    33   143   141    1
    34    46    45    1
    35    46    47    2
    36   137   132   am
    37   137   138    1
    38    49    51   ar
    39    24    25   ar
    40    19    20    1
    41   141   138    1
    42   141   142    1
    43    60    58    1
    44   132   133    2
    45   140   139    2
    46    20    21   ar
    47    53    51   ar
    48   138   139    1
    49    59    58    1
    50   139   144   am
    51    25    26    1
    52    25    23   ar
    53    58    55    1
    54   159   158    2
    55    21    23   ar
    56   125   124    2
    57    55    54    1
    58    55    56    1
    59   158   157    1
    60   155   154    1
    61     1     2    1
    62    92    91   ar
    63    92    90   ar
    64   120   119    1
    65   124   123    1
    66   144   145    1
    67   122   123    1
    68     9     7   am
    69   154   152   ar
    70   154   153   ar
    71   123   126    1
    72   152   150   ar
    73    91    89   ar
    74    61    56   am
    75    61    62    1
    76   153   151   ar
    77    56    57    2
    78   145   146    1
    79   145   148    1
    80    14    11    1
    81    90    88   ar
    82   129   127    1
    83     2     5    1
    84     2     3    1
    85    64    63    2
    86   150   149   ar
    87     5     6    1
    88    67    65    1
    89   157   156    1
    90   157   160    1
    91   151   149   ar
    92     7     6    1
    93     7     8    2
    94    65    62    1
    95    65    66    1
    96   149   148    1
    97   146   156   am
    98   146   147    2
    99   156   162    1
   100   119   121    1
   101   119   118    1
   102   126   127    1
   103    62    63    1
   104   161   160    1
   105   161   162    1
   106    76    74   ar
   107    76    77   ar
   108   127   128    1
   109    63    68   am
   110    89    87   ar
   111    11    10    1
   112    11    12    1
   113   118   115    1
   114    74    73   ar
   115     3     4    2
   116    88    87   ar
   117    87    86    1
   118    77    79   ar
   119    77    75   ar
   120    79    81   ar
   121    68    69    1
   122   115   116    1
   123   115   114    1
   124    69    70    1
   125    69    72    1
   126    13    12    2
   127    73    75   ar
   128    73    72    1
   129   116   117    2
   130    82    70   am
   131    82    83    1
   132    75    78   ar
   133    70    71    2
   134    86    83    1
   135    81    80   ar
   136   114   108   am
   137    83    84    1
   138    78    80   ar
   139   109   108    2
   140   105   103   ar
   141   108   107    1
   142   100    99    2
   143    84    93   am
   144    84    85    2
   145   103   102    1
   146   103   104   ar
   147   101   102    1
   148   101    98    1
   149    93    94    1
   150   107   106    1
   151   107   110    1
   152    99   106   am
   153    99    98    1
   154    97    98    1
   155    97    95   am
   156   110   111    1
   157    94    95    1
   158    95    96    2
   159   112   111    2
   160   111   113   am
