@<TRIPOS>MOLECULE
tmp/3rigA01.pdb
 102 95 0 0 0
SMALL
GASTEIGER

@<TRIPOS>ATOM
      1  N         11.3130   -1.9720  -21.5000 N.3    29  ALA29      -0.1245
      2  CA         9.8680   -1.9650  -21.8720 C.3    29  ALA29       0.1562
      3  C          9.4980   -1.6850  -23.3470 C.2    29  ALA29       0.2260
      4  O          8.4050   -2.0990  -23.8090 O.2    29  ALA29      -0.2867
      5  CB         9.0650   -1.0330  -20.9370 C.3    29  ALA29       0.0290
      6  N          6.8880    4.0270  -14.6390 N.3    32  GLY32      -0.1225
      7  CA         5.5390    3.5440  -14.3740 C.3    32  GLY32       0.1811
      8  C          4.8090    3.1450  -15.6490 C.2    32  GLY32       0.2280
      9  O          5.1180    2.1070  -16.2740 O.2    32  GLY32      -0.2866
     10  N          1.8470    1.8090  -12.7590 N.3    40  ALA40      -0.1231
     11  CA         2.0690    0.3840  -12.8490 C.3    40  ALA40       0.1694
     12  C          2.9740   -0.1290  -11.6900 C.2    40  ALA40       0.2591
     13  O          2.7280   -1.2140  -11.1170 O.2    40  ALA40      -0.2718
     14  CB         2.7140    0.0200  -14.2410 C.3    40  ALA40       0.0304
     15  N          3.9830    0.6620  -11.3060 N.am   41  GLN41      -0.1979
     16  CA         4.9580    0.2070  -10.2820 C.3    41  GLN41       0.1601
     17  C          4.2800   -0.0560   -8.9470 C.2    41  GLN41       0.2287
     18  O          4.7610   -0.8790   -8.1400 O.2    41  GLN41      -0.2864
     19  CB         6.1470    1.1950  -10.1110 C.3    41  GLN41       0.0394
     20  CG         5.7280    2.5550   -9.6120 C.3    41  GLN41       0.0908
     21  CD         6.8060    3.5860   -9.7980 C.2    41  GLN41       0.2608
     22  OE1        7.7360    3.6900   -8.9920 O.2    41  GLN41      -0.2717
     23  NE2        6.7020    4.3500  -10.8710 N.am   41  GLN41      -0.0878
     24  N          2.5680   -3.4830   -9.0440 N.3    44  ALA44      -0.1245
     25  CA         3.5730   -4.5140   -9.0820 C.3    44  ALA44       0.1562
     26  C          4.3900   -4.5300   -7.7730 C.2    44  ALA44       0.2260
     27  O          5.6260   -4.2800   -7.8060 O.2    44  ALA44      -0.2867
     28  CB         4.5480   -4.2340  -10.3060 C.3    44  ALA44       0.0290
     29  N         -5.3350   -6.3390  -12.8100 N.3    59  PHE59      -0.1227
     30  CA        -4.2130   -5.7340  -13.5620 C.3    59  PHE59       0.1736
     31  C         -3.4150   -6.7710  -14.3390 C.2    59  PHE59       0.2595
     32  O         -3.2080   -6.6080  -15.5300 O.2    59  PHE59      -0.2718
     33  CB        -3.3100   -4.8930  -12.6500 C.3    59  PHE59       0.0547
     34  CG        -1.9990   -4.4220  -13.3440 C.ar   59  PHE59      -0.0202
     35  CD1       -2.0320   -3.4440  -14.3110 C.ar   59  PHE59      -0.0042
     36  CD2       -0.7790   -4.9530  -12.9620 C.ar   59  PHE59      -0.0042
     37  CE1       -0.8170   -2.9830  -14.9580 C.ar   59  PHE59      -0.0003
     38  CE2        0.4300   -4.5000  -13.5720 C.ar   59  PHE59      -0.0003
     39  CZ         0.4050   -3.5260  -14.5550 C.ar   59  PHE59      -0.0000
     40  N         -2.9890   -7.8510  -13.6950 N.am   60  TYR60      -0.1976
     41  CA        -2.1610   -8.8350  -14.4230 C.3    60  TYR60       0.1639
     42  C         -2.9820   -9.6260  -15.4480 C.2    60  TYR60       0.2290
     43  O         -2.4420  -10.0830  -16.4830 O.2    60  TYR60      -0.2864
     44  CB        -1.4040   -9.7380  -13.4570 C.3    60  TYR60       0.0560
     45  CG        -0.1680   -8.9740  -13.0040 C.ar   60  TYR60      -0.0198
     46  CD1       -0.0800   -8.4370  -11.7200 C.ar   60  TYR60      -0.0009
     47  CD2        0.8870   -8.7990  -13.8910 C.ar   60  TYR60      -0.0009
     48  CE1        1.0870   -7.7040  -11.2900 C.ar   60  TYR60       0.0417
     49  CE2        2.0490   -8.0740  -13.5100 C.ar   60  TYR60       0.0417
     50  CZ         2.1400   -7.5330  -12.2240 C.ar   60  TYR60       0.1957
     51  OH         3.2490   -6.7700  -11.8520 O.3    60  TYR60      -0.2866
     52  N         -2.8260   -7.3470  -18.3640 N.3    63  ARG63      -0.1245
     53  CA        -1.4960   -7.3720  -18.9750 C.3    63  ARG63       0.1563
     54  C         -1.3420   -8.6570  -19.7650 C.2    63  ARG63       0.2260
     55  O         -0.8290   -8.6290  -20.9060 O.2    63  ARG63      -0.2867
     56  CB        -0.4160   -7.2560  -17.8890 C.3    63  ARG63       0.0307
     57  CG        -0.3450   -5.8800  -17.2250 C.3    63  ARG63       0.0489
     58  CD         0.5190   -4.8650  -18.0150 C.3    63  ARG63       0.2205
     59  NE         1.9410   -5.1420  -17.8200 N.pl3  63  ARG63      -0.0865
     60  CZ         2.8580   -5.3260  -18.7850 C.cat  63  ARG63       0.5346
     61  NH1        4.1320   -5.5690  -18.4630 N.pl3  63  ARG63       0.1354
     62  NH2        2.5390   -5.2640  -20.0630 N.pl3  63  ARG63       0.1354
     63  N          8.6300   -8.9210  -19.0110 N.3   100  ILE100     -0.1245
     64  CA         7.9190  -10.0920  -18.5420 C.3   100  ILE100      0.1561
     65  C          6.9320  -10.5570  -19.6030 C.2   100  ILE100      0.2260
     66  O          6.1600  -11.4830  -19.3760 O.2   100  ILE100     -0.2867
     67  CB         7.2060   -9.8020  -17.2060 C.3   100  ILE100      0.0252
     68  CG1        6.2010   -8.6090  -17.3200 C.3   100  ILE100      0.0019
     69  CG2        8.3310   -9.4580  -16.1050 C.3   100  ILE100      0.0019
     70  CD1        5.3950   -8.4460  -16.0040 C.3   100  ILE100      0.0001
     71  N          6.2610  -12.9810  -11.0970 N.3   178  VAL178     -0.1245
     72  CA         6.8230  -11.7390  -11.5700 C.3   178  VAL178      0.1561
     73  C          7.5370  -11.2030  -10.3310 C.2   178  VAL178      0.2260
     74  O          7.0110  -11.2490   -9.2190 O.2   178  VAL178     -0.2867
     75  CB         5.7370  -10.7350  -12.0460 C.3   178  VAL178      0.0252
     76  CG1        6.3220   -9.3360  -12.3320 C.3   178  VAL178      0.0019
     77  CG2        5.0450  -11.2720  -13.3160 C.3   178  VAL178      0.0019
     78  N          8.4940   -4.8160   -7.2440 N.3   181  PHE181     -0.1241
     79  CA         9.2890   -3.8220   -6.5720 C.3   181  PHE181      0.1605
     80  C          9.3290   -4.0900   -5.0710 C.2   181  PHE181      0.2264
     81  O          8.2940   -4.4000   -4.4670 O.2   181  PHE181     -0.2867
     82  CB         8.7710   -2.4310   -6.9390 C.3   181  PHE181      0.0534
     83  CG         8.9000   -2.1480   -8.3860 C.ar  181  PHE181     -0.0203
     84  CD1       10.1320   -1.7240   -8.9180 C.ar  181  PHE181     -0.0042
     85  CD2        7.8430   -2.3420   -9.2390 C.ar  181  PHE181     -0.0042
     86  CE1       10.3040   -1.5040  -10.3000 C.ar  181  PHE181     -0.0003
     87  CE2        7.9830   -2.1350  -10.6210 C.ar  181  PHE181     -0.0003
     88  CZ         9.2410   -1.6790  -11.1450 C.ar  181  PHE181     -0.0000
     89  N         16.2780    2.5810  -15.5350 N.3   211  VAL211     -0.1231
     90  CA        15.6160    3.1390  -14.3640 C.3   211  VAL211      0.1692
     91  C         15.0850    2.1540  -13.3090 C.2   211  VAL211      0.2591
     92  O         14.6810    2.5690  -12.2430 O.2   211  VAL211     -0.2718
     93  CB        14.5580    4.1850  -14.7230 C.3   211  VAL211      0.0266
     94  CG1       15.0590    5.5800  -14.2720 C.3   211  VAL211      0.0020
     95  CG2       14.1970    4.0920  -16.2660 C.3   211  VAL211      0.0020
     96  N         15.1200    0.8650  -13.6310 N.am  212  VAL212     -0.1980
     97  CA        14.8280   -0.2150  -12.7220 C.3   212  VAL212      0.1595
     98  C         16.1190   -0.9010  -12.2480 C.2   212  VAL212      0.2287
     99  O         16.8960   -1.4380  -13.0880 O.2   212  VAL212     -0.2864
    100  CB        13.9300   -1.2540  -13.3850 C.3   212  VAL212      0.0276
    101  CG1       13.7020   -2.4020  -12.4300 C.3   212  VAL212      0.0022
    102  CG2       12.5580   -0.6300  -13.7280 C.3   212  VAL212      0.0022
@<TRIPOS>BOND
     1     4     3    2
     2     3     2    1
     3     2     1    1
     4     2     5    1
     5    55    54    2
     6    62    60    1
     7    54    53    1
     8    65    66    2
     9    65    64    1
    10    63    64    1
    11    53    52    1
    12    53    56    1
    13    60    61    1
    14    60    59    2
    15    64    67    1
    16    58    59    1
    17    58    57    1
    18    56    57    1
    19    68    67    1
    20    68    70    1
    21    67    69    1
    22    43    42    2
    23     9     8    2
    24    95    93    1
    25     8     7    1
    26    89    90    1
    27    32    31    2
    28    42    41    1
    29    37    39   ar
    30    37    35   ar
    31    93    90    1
    32    93    94    1
    33     6     7    1
    34    39    38   ar
    35    41    40    1
    36    41    44    1
    37    90    91    1
    38    31    40   am
    39    31    30    1
    40    35    34   ar
    41    14    11    1
    42    47    49   ar
    43    47    45   ar
    44   102   100    1
    45    96    91   am
    46    96    97    1
    47    38    36   ar
    48    30    29    1
    49    30    33    1
    50    49    50   ar
    51    44    45    1
    52   100    97    1
    53   100   101    1
    54    34    36   ar
    55    34    33    1
    56    77    75    1
    57    91    92    2
    58    99    98    2
    59    45    46   ar
    60    11    10    1
    61    11    12    1
    62    97    98    1
    63    76    75    1
    64    50    51    1
    65    50    48   ar
    66    75    72    1
    67    46    48   ar
    68    12    15   am
    69    12    13    2
    70    72    71    1
    71    72    73    1
    72    15    16    1
    73    88    87   ar
    74    88    86   ar
    75    23    21   am
    76    87    85   ar
    77    73    74    2
    78    28    25    1
    79    86    84   ar
    80    16    19    1
    81    16    17    1
    82    19    20    1
    83    21    20    1
    84    21    22    2
    85    85    83   ar
    86    25    24    1
    87    25    26    1
    88    17    18    2
    89    84    83   ar
    90    83    82    1
    91    27    26    2
    92    78    79    1
    93    82    79    1
    94    79    80    1
    95    80    81    2
