@<TRIPOS>MOLECULE
tmp/3rihB00.pdb
 113 108 0 0 0
SMALL
GASTEIGER

@<TRIPOS>ATOM
      1  N         61.3700  -15.6740   -4.7370 N.3    20  ILE20      -0.1245
      2  CA        60.9210  -16.5520   -3.6640 C.3    20  ILE20       0.1561
      3  C         60.9600  -15.8700   -2.2870 C.2    20  ILE20       0.2260
      4  O         59.9990  -15.9740   -1.5240 O.2    20  ILE20      -0.2867
      5  CB        61.7150  -17.8870   -3.6990 C.3    20  ILE20       0.0252
      6  CG1       61.3110  -18.6710   -4.9660 C.3    20  ILE20       0.0019
      7  CG2       61.4790  -18.7200   -2.4220 C.3    20  ILE20       0.0019
      8  CD1       62.1910  -19.9090   -5.2750 C.3    20  ILE20       0.0001
      9  N         72.3400  -18.0970   -8.8860 N.3    97  PHE97      -0.1241
     10  CA        72.3790  -19.2650   -9.7800 C.3    97  PHE97       0.1605
     11  C         72.9700  -18.9330  -11.1720 C.2    97  PHE97       0.2264
     12  O         72.3550  -19.2550  -12.2060 O.2    97  PHE97      -0.2867
     13  CB        70.9830  -19.9060   -9.8900 C.3    97  PHE97       0.0534
     14  CG        69.8690  -18.8950   -9.9290 C.ar   97  PHE97      -0.0203
     15  CD1       69.4840  -18.3090  -11.1340 C.ar   97  PHE97      -0.0042
     16  CD2       69.2430  -18.4820   -8.7530 C.ar   97  PHE97      -0.0042
     17  CE1       68.4600  -17.3260  -11.1750 C.ar   97  PHE97      -0.0003
     18  CE2       68.2170  -17.5020   -8.7760 C.ar   97  PHE97      -0.0003
     19  CZ        67.8320  -16.9240   -9.9900 C.ar   97  PHE97      -0.0000
     20  N         66.9340  -26.2810   -3.0300 N.3   145  SER145     -0.1217
     21  CA        66.4530  -26.4470   -4.4080 C.3   145  SER145      0.1889
     22  C         66.3760  -27.9450   -4.6900 C.2   145  SER145      0.2288
     23  O         67.0340  -28.7410   -4.0210 O.2   145  SER145     -0.2866
     24  CB        67.4400  -25.8170   -5.4180 C.3   145  SER145      0.2089
     25  OG        67.0210  -25.9960   -6.7830 O.3   145  SER145     -0.2183
     26  N         67.5640  -28.9480   -7.4940 N.3   147  THR147     -0.1218
     27  CA        68.8680  -29.0330   -8.1740 C.3   147  THR147      0.1862
     28  C         70.0140  -29.1980   -7.1730 C.2   147  THR147      0.2287
     29  O         70.3560  -28.2470   -6.4490 O.2   147  THR147     -0.2866
     30  CB        69.1820  -27.7780   -9.0550 C.3   147  THR147      0.1770
     31  OG1       68.0070  -27.3560   -9.7510 O.3   147  THR147     -0.2211
     32  CG2       70.3000  -28.0990  -10.0910 C.3   147  THR147      0.0375
     33  N         71.5920  -30.5440  -13.6060 N.3   153  TYR153     -0.1241
     34  CA        71.2920  -29.6630  -14.7430 C.3   153  TYR153      0.1605
     35  C         72.6100  -29.0750  -15.2650 C.2   153  TYR153      0.2264
     36  O         73.1790  -28.1930  -14.6220 O.2   153  TYR153     -0.2867
     37  CB        70.3530  -28.5150  -14.3310 C.3   153  TYR153      0.0534
     38  CG        69.4880  -28.0100  -15.4710 C.ar  153  TYR153     -0.0201
     39  CD1       70.0550  -27.6810  -16.7050 C.ar  153  TYR153     -0.0009
     40  CD2       68.0900  -27.8820  -15.3180 C.ar  153  TYR153     -0.0009
     41  CE1       69.2660  -27.2340  -17.7710 C.ar  153  TYR153      0.0417
     42  CE2       67.2830  -27.4330  -16.3740 C.ar  153  TYR153      0.0417
     43  CZ        67.8860  -27.1170  -17.6000 C.ar  153  TYR153      0.1957
     44  OH        67.1270  -26.6640  -18.6560 O.3   153  TYR153     -0.2866
     45  N         75.0830  -26.1230  -13.9520 N.3   156  TRP156     -0.1241
     46  CA        74.7490  -25.7220  -12.5580 C.3   156  TRP156      0.1605
     47  C         75.3230  -26.6730  -11.5100 C.2   156  TRP156      0.2264
     48  O         74.7230  -26.8610  -10.4560 O.2   156  TRP156     -0.2867
     49  CB        73.2200  -25.4990  -12.3720 C.3   156  TRP156      0.0550
     50  CG        72.7560  -24.1540  -12.9560 C.ar  156  TRP156      0.0003
     51  CD1       72.7220  -22.9600  -12.3090 C.ar  156  TRP156      0.0946
     52  CD2       72.3150  -23.8920  -14.3130 C.ar  156  TRP156      0.0152
     53  NE1       72.2940  -21.9560  -13.1660 N.ar  156  TRP156     -0.2442
     54  CE2       72.0350  -22.4980  -14.4010 C.ar  156  TRP156      0.0810
     55  CE3       72.1380  -24.6970  -15.4560 C.ar  156  TRP156      0.0012
     56  CZ2       71.5480  -21.8820  -15.5870 C.ar  156  TRP156      0.0191
     57  CZ3       71.6650  -24.0910  -16.6580 C.ar  156  TRP156      0.0001
     58  CH2       71.3750  -22.6850  -16.7030 C.ar  156  TRP156      0.0015
     59  N         76.0180  -24.6410   -8.3880 N.3   159  TYR159     -0.1241
     60  CA        74.7340  -24.3480   -7.7560 C.3   159  TYR159      0.1605
     61  C         74.2160  -25.5770   -6.9910 C.2   159  TYR159      0.2264
     62  O         73.8590  -25.4730   -5.8290 O.2   159  TYR159     -0.2867
     63  CB        73.7140  -23.9360   -8.8170 C.3   159  TYR159      0.0534
     64  CG        72.3570  -23.6060   -8.2450 C.ar  159  TYR159     -0.0201
     65  CD1       72.1760  -22.4650   -7.4480 C.ar  159  TYR159     -0.0009
     66  CD2       71.2710  -24.4280   -8.4770 C.ar  159  TYR159     -0.0009
     67  CE1       70.9310  -22.1490   -6.9000 C.ar  159  TYR159      0.0417
     68  CE2       70.0000  -24.1170   -7.9430 C.ar  159  TYR159      0.0417
     69  CZ        69.8500  -22.9670   -7.1630 C.ar  159  TYR159      0.1957
     70  OH        68.6200  -22.6410   -6.6430 O.3   159  TYR159     -0.2866
     71  N         60.1680  -25.6720  -10.0900 N.3   191  ASN191     -0.1225
     72  CA        60.1070  -24.5910  -11.0590 C.3   191  ASN191      0.1785
     73  C         59.0670  -23.5510  -10.6220 C.2   191  ASN191      0.2597
     74  O         57.8570  -23.8030  -10.6400 O.2   191  ASN191     -0.2718
     75  CB        59.8120  -25.1890  -12.4420 C.3   191  ASN191      0.1169
     76  CG        60.0390  -24.2070  -13.5860 C.2   191  ASN191      0.2627
     77  OD1       60.2410  -23.0050  -13.3700 O.2   191  ASN191     -0.2716
     78  ND2       59.9750  -24.7160  -14.8320 N.am  191  ASN191     -0.0877
     79  N         59.5480  -22.3900  -10.1980 N.am  192  ILE192     -0.1980
     80  CA        58.6830  -21.3600   -9.6240 C.3   192  ILE192      0.1595
     81  C         58.6580  -20.1540  -10.5640 C.2   192  ILE192      0.2287
     82  O         59.7080  -19.6560  -10.9670 O.2   192  ILE192     -0.2864
     83  CB        59.1680  -20.9260   -8.1980 C.3   192  ILE192      0.0276
     84  CG1       59.3230  -22.1350   -7.2440 C.3   192  ILE192      0.0022
     85  CG2       58.2660  -19.8240   -7.5880 C.3   192  ILE192      0.0022
     86  CD1       58.0660  -23.0000   -7.0440 C.3   192  ILE192      0.0001
     87  N         58.8730  -16.6710  -11.3940 N.3   194  THR194     -0.1218
     88  CA        59.3260  -15.4120  -10.7940 C.3   194  THR194      0.1862
     89  C         59.1210  -14.2430  -11.7660 C.2   194  THR194      0.2287
     90  O         58.7070  -14.4490  -12.9140 O.2   194  THR194     -0.2866
     91  CB        60.8000  -15.4920  -10.3290 C.3   194  THR194      0.1770
     92  OG1       61.6010  -16.0600  -11.3770 O.3   194  THR194     -0.2211
     93  CG2       60.9170  -16.3560   -9.0470 C.3   194  THR194      0.0375
     94  N         61.0880  -14.6020  -14.9930 N.3   197  LEU197     -0.1245
     95  CA        60.6160  -15.6470  -15.9060 C.3   197  LEU197      0.1561
     96  C         59.3260  -15.2890  -16.6610 C.2   197  LEU197      0.2260
     97  O         59.0560  -15.8570  -17.7220 O.2   197  LEU197     -0.2867
     98  CB        60.4610  -16.9720  -15.1430 C.3   197  LEU197      0.0270
     99  CG        60.5510  -18.3190  -15.8760 C.3   197  LEU197      0.0019
    100  CD1       61.8140  -18.4370  -16.7380 C.3   197  LEU197      0.0001
    101  CD2       60.4820  -19.4680  -14.8700 C.3   197  LEU197      0.0001
    102  N         56.8720  -20.2680  -23.8570 N.3   204  TYR204     -0.1241
    103  CA        58.0220  -20.7800  -23.1090 C.3   204  TYR204      0.1605
    104  C         57.5930  -21.3210  -21.7380 C.2   204  TYR204      0.2264
    105  O         58.1040  -22.3520  -21.2880 O.2   204  TYR204     -0.2867
    106  CB        59.1170  -19.7100  -22.9620 C.3   204  TYR204      0.0534
    107  CG        60.3710  -20.1960  -22.2540 C.ar  204  TYR204     -0.0201
    108  CD1       61.3100  -21.0050  -22.9150 C.ar  204  TYR204     -0.0009
    109  CD2       60.6210  -19.8520  -20.9260 C.ar  204  TYR204     -0.0009
    110  CE1       62.4700  -21.4630  -22.2600 C.ar  204  TYR204      0.0417
    111  CE2       61.7740  -20.2990  -20.2650 C.ar  204  TYR204      0.0417
    112  CZ        62.6910  -21.1030  -20.9360 C.ar  204  TYR204      0.1957
    113  OH        63.8240  -21.5330  -20.2770 O.3   204  TYR204     -0.2866
@<TRIPOS>BOND
     1   102   103    1
     2   103   106    1
     3   103   104    1
     4   106   107    1
     5   108   110   ar
     6   108   107   ar
     7   110   112   ar
     8   107   109   ar
     9   104   105    2
    10   112   113    1
    11   112   111   ar
    12   109   111   ar
    13    44    43    1
    14    41    43   ar
    15    41    39   ar
    16    97    96    2
    17    43    42   ar
    18   100    99    1
    19    39    38   ar
    20    58    57   ar
    21    58    56   ar
    22    96    95    1
    23    57    55   ar
    24    42    40   ar
    25    95    98    1
    26    95    94    1
    27    99    98    1
    28    99   101    1
    29    56    54   ar
    30    38    40   ar
    31    38    37    1
    32    55    52   ar
    33    35    34    1
    34    35    36    2
    35    78    76   am
    36    34    37    1
    37    34    33    1
    38    54    52   ar
    39    54    53   ar
    40    52    50   ar
    41    45    46    1
    42    76    77    2
    43    76    75    1
    44    53    51   ar
    45    50    49    1
    46    50    51   ar
    47    90    89    2
    48    46    49    1
    49    46    47    1
    50    75    72    1
    51    12    11    2
    52    89    88    1
    53    47    48    2
    54    87    88    1
    55    92    91    1
    56    17    15   ar
    57    17    19   ar
    58    11    10    1
    59    15    14   ar
    60    72    73    1
    61    72    71    1
    62    82    81    2
    63    88    91    1
    64    74    73    2
    65    73    79   am
    66    81    80    1
    67    91    93    1
    68    79    80    1
    69    32    30    1
    70    19    18   ar
    71    14    13    1
    72    14    16   ar
    73    13    10    1
    74    10     9    1
    75    31    30    1
    76    80    83    1
    77    30    27    1
    78    63    64    1
    79    63    60    1
    80    18    16   ar
    81    66    64   ar
    82    66    68   ar
    83    59    60    1
    84    64    65   ar
    85    83    85    1
    86    83    84    1
    87    27    26    1
    88    27    28    1
    89    68    69   ar
    90    60    61    1
    91    65    67   ar
    92    84    86    1
    93    28    29    2
    94    69    67   ar
    95    69    70    1
    96    61    62    2
    97    25    24    1
    98    24    21    1
    99     8     6    1
   100     6     5    1
   101     1     2    1
   102    22    21    1
   103    22    23    2
   104    21    20    1
   105     5     2    1
   106     5     7    1
   107     2     3    1
   108     3     4    2
