@<TRIPOS>MOLECULE
tmp/3rikB00.pdb
 162 161 0 0 0
SMALL
GASTEIGER

@<TRIPOS>ATOM
      1  N         14.8300  -15.6870   42.9170 N.3   127  ASP127     -0.1225
      2  CA        13.7430  -16.6840   42.7220 C.3   127  ASP127      0.1805
      3  C         14.0350  -17.5350   41.4900 C.2   127  ASP127      0.2597
      4  O         13.5680  -18.6670   41.3660 O.2   127  ASP127     -0.2718
      5  CB        12.3420  -16.0510   42.6800 C.3   127  ASP127      0.1424
      6  CG        12.2480  -14.9020   41.6890 C.2   127  ASP127      0.3668
      7  OD1       13.2710  -14.2150   41.5250 O.co2 127  ASP127     -0.2456
      8  OD2       11.1540  -14.6640   41.0790 O.co2 127  ASP127     -0.2456
      9  N         14.8320  -16.9750   40.5820 N.am  128  PHE128     -0.1976
     10  CA        15.2850  -17.7100   39.4080 C.3   128  PHE128      0.1639
     11  C         16.5380  -18.4920   39.6750 C.2   128  PHE128      0.2290
     12  O         17.5860  -18.3090   39.0410 O.2   128  PHE128     -0.2864
     13  CB        15.3270  -16.8140   38.1810 C.3   128  PHE128      0.0560
     14  CG        13.9670  -16.5640   37.6430 C.ar  128  PHE128     -0.0200
     15  CD1       13.2320  -15.4820   38.0620 C.ar  128  PHE128     -0.0042
     16  CD2       13.3630  -17.5030   36.8020 C.ar  128  PHE128     -0.0042
     17  CE1       11.9340  -15.2780   37.5770 C.ar  128  PHE128     -0.0003
     18  CE2       12.0820  -17.3290   36.3250 C.ar  128  PHE128     -0.0003
     19  CZ        11.3570  -16.2080   36.7060 C.ar  128  PHE128     -0.0000
     20  N         19.8690   -9.9040   45.8930 N.3   179  TRP179     -0.1241
     21  CA        18.5040  -10.1350   46.4240 C.3   179  TRP179      0.1605
     22  C         18.4440  -10.2180   47.9130 C.2   179  TRP179      0.2264
     23  O         17.5890   -9.5640   48.5320 O.2   179  TRP179     -0.2867
     24  CB        17.8370  -11.3770   45.8260 C.3   179  TRP179      0.0550
     25  CG        17.0940  -11.1210   44.5180 C.ar  179  TRP179      0.0003
     26  CD1       15.7390  -11.3540   44.2430 C.ar  179  TRP179      0.0946
     27  CD2       17.6610  -10.6340   43.2400 C.ar  179  TRP179      0.0152
     28  NE1       15.4420  -11.0330   42.9280 N.ar  179  TRP179     -0.2442
     29  CE2       16.5530  -10.5960   42.2840 C.ar  179  TRP179      0.0810
     30  CE3       18.9330  -10.2330   42.8190 C.ar  179  TRP179      0.0012
     31  CZ2       16.7210  -10.1700   41.0110 C.ar  179  TRP179      0.0191
     32  CZ3       19.0880   -9.7910   41.5280 C.ar  179  TRP179      0.0001
     33  CH2       17.9950   -9.7510   40.6380 C.ar  179  TRP179      0.0015
     34  N         18.3840   -5.2640   45.2910 N.3   234  ASN234     -0.1225
     35  CA        17.2700   -5.4700   44.3720 C.3   234  ASN234      0.1785
     36  C         15.9250   -5.2810   45.0780 C.2   234  ASN234      0.2597
     37  O         15.6940   -5.9110   46.1060 O.2   234  ASN234     -0.2718
     38  CB        17.2820   -6.8720   43.8060 C.3   234  ASN234      0.1169
     39  CG        16.1090   -7.0880   42.8910 C.2   234  ASN234      0.2627
     40  OD1       16.1130   -6.5240   41.8210 O.2   234  ASN234     -0.2716
     41  ND2       15.0740   -7.8190   43.3350 N.am  234  ASN234     -0.0877
     42  N         15.0430   -4.4390   44.5350 N.am  235  GLU235     -0.1979
     43  CA        13.7230   -4.2060   45.1440 C.3   235  GLU235      0.1602
     44  C         13.7580   -4.0840   46.6640 C.2   235  GLU235      0.2287
     45  O         13.1110   -4.8770   47.3640 O.2   235  GLU235     -0.2864
     46  CB        12.6930   -5.2730   44.7250 C.3   235  GLU235      0.0415
     47  CG        12.6350   -5.5040   43.2210 C.3   235  GLU235      0.1163
     48  CD        11.2370   -5.7270   42.6600 C.2   235  GLU235      0.3649
     49  OE1       10.3830   -6.4090   43.3300 O.co2 235  GLU235     -0.2457
     50  OE2       11.0020   -5.2230   41.5170 O.co2 235  GLU235     -0.2457
     51  N          6.8420  -11.8820   52.1990 N.3   244  TYR244     -0.1241
     52  CA         7.4850  -11.8200   50.8930 C.3   244  TYR244      0.1605
     53  C          8.1120  -13.1990   50.4990 C.2   244  TYR244      0.2264
     54  O          8.9940  -13.7080   51.1860 O.2   244  TYR244     -0.2867
     55  CB         8.4920  -10.6960   50.8020 C.3   244  TYR244      0.0534
     56  CG         8.7060  -10.3610   49.3680 C.ar  244  TYR244     -0.0201
     57  CD1        7.7230   -9.6450   48.6620 C.ar  244  TYR244     -0.0009
     58  CD2        9.8520  -10.8230   48.6660 C.ar  244  TYR244     -0.0009
     59  CE1        7.8850   -9.3500   47.3160 C.ar  244  TYR244      0.0417
     60  CE2       10.0150  -10.5390   47.2990 C.ar  244  TYR244      0.0417
     61  CZ         9.0160   -9.7950   46.6410 C.ar  244  TYR244      0.1957
     62  OH         9.1300   -9.4700   45.3300 O.3   244  TYR244     -0.2866
     63  N         10.0680  -14.6900   48.2410 N.3   246  PHE246     -0.1241
     64  CA        11.4280  -15.0980   47.9000 C.3   246  PHE246      0.1605
     65  C         12.5380  -14.1780   48.3980 C.2   246  PHE246      0.2264
     66  O         12.2720  -13.2690   49.1560 O.2   246  PHE246     -0.2867
     67  CB        11.5510  -15.3840   46.4080 C.3   246  PHE246      0.0534
     68  CG        11.1450  -14.2450   45.5080 C.ar  246  PHE246     -0.0203
     69  CD1       12.0890  -13.3140   45.0820 C.ar  246  PHE246     -0.0042
     70  CD2        9.8310  -14.1610   45.0210 C.ar  246  PHE246     -0.0042
     71  CE1       11.7350  -12.2920   44.2400 C.ar  246  PHE246     -0.0003
     72  CE2        9.4590  -13.1360   44.1640 C.ar  246  PHE246     -0.0003
     73  CZ        10.4110  -12.1840   43.7860 C.ar  246  PHE246     -0.0000
     74  N         10.4210   -0.5880   41.8360 N.3   284  GLN284     -0.1245
     75  CA         9.3020   -0.0240   41.0600 C.3   284  GLN284      0.1566
     76  C          9.3430    1.5310   40.9180 C.2   284  GLN284      0.2260
     77  O          9.5670    2.2600   41.8820 O.2   284  GLN284     -0.2867
     78  CB         7.9970   -0.4750   41.6730 C.3   284  GLN284      0.0367
     79  CG         7.7820   -1.9810   41.6910 C.3   284  GLN284      0.0905
     80  CD         8.0770   -2.6910   40.3530 C.2   284  GLN284      0.2608
     81  OE1        8.7880   -3.7230   40.3210 O.2   284  GLN284     -0.2717
     82  NE2        7.5270   -2.1590   39.2520 N.am  284  GLN284     -0.0878
     83  N         12.4290   -0.5170   38.0910 N.3   311  HIS311     -0.1226
     84  CA        11.7990   -1.7390   37.6120 C.3   311  HIS311      0.1752
     85  C         10.4040   -1.4380   37.1430 C.2   311  HIS311      0.2596
     86  O          9.7810   -0.4120   37.5310 O.2   311  HIS311     -0.2718
     87  CB        11.7310   -2.8030   38.7300 C.3   311  HIS311      0.0759
     88  CG        13.0910   -3.3220   39.1940 C.ar  311  HIS311      0.0818
     89  ND1       13.2160   -4.4020   40.0150 N.ar  311  HIS311     -0.2268
     90  CD2       14.4050   -2.8840   38.9070 C.ar  311  HIS311      0.1154
     91  CE1       14.5310   -4.6380   40.2400 C.ar  311  HIS311      0.1986
     92  NE2       15.2530   -3.7080   39.5680 N.ar  311  HIS311     -0.2212
     93  N          9.8960   -2.3320   36.2980 N.am  312  TRP312     -0.1962
     94  CA         8.4820   -2.3370   35.9780 C.3   312  TRP312      0.1771
     95  C          7.9100   -3.6930   35.7880 C.2   312  TRP312      0.2619
     96  O          8.4860   -4.5210   35.0730 O.2   312  TRP312     -0.2715
     97  CB         8.1940   -1.5330   34.7600 C.3   312  TRP312      0.0590
     98  CG         6.7510   -1.0810   34.7170 C.ar  312  TRP312      0.0006
     99  CD1        5.8820   -1.1610   33.6250 C.ar  312  TRP312      0.0946
    100  CD2        5.9440   -0.4370   35.8030 C.ar  312  TRP312      0.0152
    101  NE1        4.6490   -0.6500   33.9440 N.ar  312  TRP312     -0.2442
    102  CE2        4.6140   -0.1900   35.2290 C.ar  312  TRP312      0.0810
    103  CE3        6.1820   -0.0590   37.1300 C.ar  312  TRP312      0.0012
    104  CZ2        3.5890    0.4170   35.9630 C.ar  312  TRP312      0.0191
    105  CZ3        5.1340    0.5340   37.8560 C.ar  312  TRP312      0.0001
    106  CH2        3.8760    0.7720   37.2820 C.ar  312  TRP312      0.0015
    107  N          6.7750   -3.9270   36.4490 N.am  313  TYR313     -0.1974
    108  CA         5.8380   -4.9690   36.0390 C.3   313  TYR313      0.1639
    109  C          5.1340   -4.5820   34.7300 C.2   313  TYR313      0.2290
    110  O          4.2360   -3.7410   34.7580 O.2   313  TYR313     -0.2864
    111  CB         4.7910   -5.1950   37.1200 C.3   313  TYR313      0.0560
    112  CG         5.1720   -6.2850   38.0840 C.ar  313  TYR313     -0.0198
    113  CD1        5.6140   -5.9740   39.3840 C.ar  313  TYR313     -0.0009
    114  CD2        5.1110   -7.6350   37.6980 C.ar  313  TYR313     -0.0009
    115  CE1        5.9830   -6.9770   40.2740 C.ar  313  TYR313      0.0417
    116  CE2        5.4720   -8.6460   38.5810 C.ar  313  TYR313      0.0417
    117  CZ         5.9080   -8.3120   39.8630 C.ar  313  TYR313      0.1957
    118  OH         6.2560   -9.3150   40.7400 O.3   313  TYR313     -0.2866
    119  N         15.2580   -3.7770   35.2930 N.3   340  GLU340     -0.1245
    120  CA        14.4630   -5.0010   35.1780 C.3   340  GLU340      0.1567
    121  C         13.0730   -4.6800   34.6830 C.2   340  GLU340      0.2260
    122  O         12.4560   -3.7230   35.0980 O.2   340  GLU340     -0.2867
    123  CB        14.3440   -5.6790   36.5280 C.3   340  GLU340      0.0388
    124  CG        14.0290   -7.1550   36.5270 C.3   340  GLU340      0.1160
    125  CD        13.6800   -7.6120   37.9260 C.2   340  GLU340      0.3649
    126  OE1       14.5770   -7.9520   38.7470 O.co2 340  GLU340     -0.2457
    127  OE2       12.4910   -7.6030   38.2370 O.co2 340  GLU340     -0.2457
    128  N          9.6680   -7.3360   33.2800 N.3   342  CYS342     -0.1235
    129  CA         9.1940   -8.6280   32.7310 C.3   342  CYS342      0.1677
    130  C          7.6890   -8.6100   32.4680 C.2   342  CYS342      0.2270
    131  O          6.9890   -7.8290   33.1060 O.2   342  CYS342     -0.2867
    132  CB         9.6090   -9.8010   33.6320 C.3   342  CYS342      0.0956
    133  SG         8.7380   -9.7770   35.2110 S.3   342  CYS342     -0.0801
    134  N         14.8580   -9.0520   31.9870 N.3   381  TRP381     -0.1241
    135  CA        15.0430   -9.9710   33.0730 C.3   381  TRP381      0.1605
    136  C         15.6290  -11.2750   32.5270 C.2   381  TRP381      0.2264
    137  O         16.4590  -11.2230   31.5980 O.2   381  TRP381     -0.2867
    138  CB        13.6970  -10.0670   33.8050 C.3   381  TRP381      0.0550
    139  CG        13.6840  -10.8290   35.0850 C.ar  381  TRP381      0.0003
    140  CD1       12.6590  -11.5970   35.5800 C.ar  381  TRP381      0.0946
    141  CD2       14.7940  -11.0130   36.0170 C.ar  381  TRP381      0.0152
    142  NE1       13.0120  -12.1800   36.7390 N.ar  381  TRP381     -0.2442
    143  CE2       14.2870  -11.8880   37.0660 C.ar  381  TRP381      0.0810
    144  CE3       16.0790  -10.5130   36.1140 C.ar  381  TRP381      0.0012
    145  CZ2       15.0600  -12.2540   38.1630 C.ar  381  TRP381      0.0191
    146  CZ3       16.8470  -10.8850   37.2040 C.ar  381  TRP381      0.0001
    147  CH2       16.3530  -11.7440   38.2020 C.ar  381  TRP381      0.0015
    148  N          7.4190  -18.7550   40.8330 N.3   396  ASN396     -0.1240
    149  CA         7.0690  -17.4370   40.3280 C.3   396  ASN396      0.1653
    150  C          7.4570  -17.2710   38.8620 C.2   396  ASN396      0.2266
    151  O          8.1990  -16.3640   38.5220 O.2   396  ASN396     -0.2867
    152  CB         7.6540  -16.3210   41.2190 C.3   396  ASN396      0.1155
    153  CG         7.2480  -14.9150   40.7600 C.2   396  ASN396      0.2627
    154  OD1        8.1010  -14.1130   40.3840 O.2   396  ASN396     -0.2716
    155  ND2        5.9550  -14.6050   40.8200 N.am  396  ASN396     -0.0877
    156  N          7.6490  -16.5500   34.7760 N.3   398  VAL398     -0.1245
    157  CA         7.3620  -15.3940   33.9110 C.3   398  VAL398      0.1561
    158  C          7.7570  -15.7490   32.4890 C.2   398  VAL398      0.2260
    159  O          8.2340  -16.8400   32.2580 O.2   398  VAL398     -0.2867
    160  CB         8.0960  -14.0980   34.3530 C.3   398  VAL398      0.0252
    161  CG1        7.7220  -13.7170   35.7780 C.3   398  VAL398      0.0019
    162  CG2        9.6140  -14.2140   34.1920 C.3   398  VAL398      0.0019
@<TRIPOS>BOND
     1   137   136    2
     2   134   135    1
     3   159   158    2
     4   130   129    1
     5   130   131    2
     6   158   157    1
     7   136   135    1
     8   129   128    1
     9   129   132    1
    10   135   138    1
    11    99   101   ar
    12    99    98   ar
    13   132   133    1
    14   138   139    1
    15   157   160    1
    16   157   156    1
    17   101   102   ar
    18   162   160    1
    19   160   161    1
    20   121   122    2
    21   121   120    1
    22    98    97    1
    23    98   100   ar
    24   109   110    2
    25   109   108    1
    26    97    94    1
    27    96    95    2
    28   139   140   ar
    29   139   141   ar
    30   120   119    1
    31   120   123    1
    32   102   100   ar
    33   102   104   ar
    34   140   142   ar
    35    95    94    1
    36    95   107   am
    37   100   103   ar
    38   104   106   ar
    39    94    93    1
    40   141   144   ar
    41   141   143   ar
    42   108   107    1
    43   108   111    1
    44   144   146   ar
    45    93    85   am
    46    18    19   ar
    47    18    16   ar
    48   124   123    1
    49   124   125    1
    50    19    17   ar
    51   142   143   ar
    52    16    14   ar
    53   143   145   ar
    54   111   112    1
    55   103   105   ar
    56    85    86    2
    57    85    84    1
    58   146   147   ar
    59   106   105   ar
    60    17    15   ar
    61    84    83    1
    62    84    87    1
    63    14    15   ar
    64    14    13    1
    65   114   112   ar
    66   114   116   ar
    67   125   127   ar
    68   125   126   ar
    69   112   113   ar
    70   145   147   ar
    71    13    10    1
    72   151   150    2
    73   116   117   ar
    74    87    88    1
    75   150   149    1
    76    90    88   ar
    77    90    92   ar
    78    12    11    2
    79    88    89   ar
    80    82    80   am
    81   113   115   ar
    82    10    11    1
    83    10     9    1
    84    92    91   ar
    85   117   115   ar
    86   117   118    1
    87    89    91   ar
    88    81    80    2
    89   149   148    1
    90   149   152    1
    91    80    79    1
    92   154   153    2
    93     9     3   am
    94    33    31   ar
    95    33    32   ar
    96   153   155   am
    97   153   152    1
    98    76    75    1
    99    76    77    2
   100    31    29   ar
   101    75    78    1
   102    75    74    1
   103     8     6   ar
   104     4     3    2
   105     3     2    1
   106    50    48   ar
   107     7     6   ar
   108    32    30   ar
   109    78    79    1
   110     6     5    1
   111    40    39    2
   112    29    28   ar
   113    29    27   ar
   114    48    47    1
   115    48    49   ar
   116     5     2    1
   117     2     1    1
   118    30    27   ar
   119    39    41   am
   120    39    38    1
   121    28    26   ar
   122    47    46    1
   123    27    25   ar
   124    73    72   ar
   125    73    71   ar
   126    38    35    1
   127    72    70   ar
   128    71    69   ar
   129    26    25   ar
   130    35    36    1
   131    35    34    1
   132    25    24    1
   133    42    36   am
   134    42    43    1
   135    46    43    1
   136    70    68   ar
   137    36    37    2
   138    69    68   ar
   139    43    44    1
   140    62    61    1
   141    68    67    1
   142    24    21    1
   143    20    21    1
   144    67    64    1
   145    21    22    1
   146    61    60   ar
   147    61    59   ar
   148    44    45    2
   149    60    58   ar
   150    59    57   ar
   151    64    63    1
   152    64    65    1
   153    22    23    2
   154    65    66    2
   155    57    56   ar
   156    58    56   ar
   157    56    55    1
   158    53    52    1
   159    53    54    2
   160    55    52    1
   161    52    51    1
