@<TRIPOS>MOLECULE
tmp/3rilA01.pdb
 151 149 0 0 0
SMALL
GASTEIGER

@<TRIPOS>ATOM
      1  N        -18.4370  -11.6780   37.9730 N.3   127  ASP127     -0.1225
      2  CA       -17.6320  -12.8130   38.3830 C.3   127  ASP127      0.1805
      3  C        -18.1430  -13.4700   39.6910 C.2   127  ASP127      0.2597
      4  O        -17.9970  -14.7070   39.8770 O.2   127  ASP127     -0.2718
      5  CB       -16.1500  -12.4120   38.4590 C.3   127  ASP127      0.1424
      6  CG       -15.8890  -11.2490   39.4250 C.2   127  ASP127      0.3668
      7  OD1      -16.7460  -10.3380   39.5800 O.co2 127  ASP127     -0.2456
      8  OD2      -14.8140  -11.2600   40.0590 O.co2 127  ASP127     -0.2456
      9  N        -18.7330  -12.6660   40.5850 N.am  128  PHE128     -0.1976
     10  CA       -19.3530  -13.2150   41.8100 C.3   128  PHE128      0.1639
     11  C        -20.7920  -13.6560   41.5740 C.2   128  PHE128      0.2290
     12  O        -21.7390  -13.2730   42.2680 O.2   128  PHE128     -0.2864
     13  CB       -19.2070  -12.2490   42.9940 C.3   128  PHE128      0.0560
     14  CG       -17.7980  -12.2080   43.5370 C.ar  128  PHE128     -0.0200
     15  CD1      -16.8930  -11.2980   43.0580 C.ar  128  PHE128     -0.0042
     16  CD2      -17.3850  -13.1660   44.4850 C.ar  128  PHE128     -0.0042
     17  CE1      -15.6020  -11.3050   43.5260 C.ar  128  PHE128     -0.0003
     18  CE2      -16.1000  -13.2120   44.9470 C.ar  128  PHE128     -0.0003
     19  CZ       -15.2010  -12.2570   44.4800 C.ar  128  PHE128     -0.0000
     20  N        -22.1350   -5.1870   34.5080 N.3   179  TRP179     -0.1241
     21  CA       -20.8440   -5.7650   34.0330 C.3   179  TRP179      0.1605
     22  C        -20.8760   -6.0030   32.5240 C.2   179  TRP179      0.2264
     23  O        -20.0260   -5.4700   31.8320 O.2   179  TRP179     -0.2867
     24  CB       -20.4600   -7.0670   34.7530 C.3   179  TRP179      0.0550
     25  CG       -19.6670   -6.8650   36.0250 C.ar  179  TRP179      0.0003
     26  CD1      -18.3540   -7.2710   36.2910 C.ar  179  TRP179      0.0946
     27  CD2      -20.1030   -6.1320   37.2350 C.ar  179  TRP179      0.0152
     28  NE1      -17.9730   -6.8720   37.5420 N.ar  179  TRP179     -0.2442
     29  CE2      -18.9880   -6.1790   38.1650 C.ar  179  TRP179      0.0810
     30  CE3      -21.2830   -5.5070   37.6290 C.ar  179  TRP179      0.0012
     31  CZ2      -19.0710   -5.6190   39.4410 C.ar  179  TRP179      0.0191
     32  CZ3      -21.3530   -4.9460   38.9310 C.ar  179  TRP179      0.0001
     33  CH2      -20.2580   -4.9790   39.7880 C.ar  179  TRP179      0.0015
     34  N        -19.5470   -0.9700   34.9410 N.3   234  ASN234     -0.1225
     35  CA       -18.4420   -1.3610   35.8220 C.3   234  ASN234      0.1785
     36  C        -17.1360   -1.5860   35.0360 C.2   234  ASN234      0.2597
     37  O        -17.0940   -2.4430   34.1540 O.2   234  ASN234     -0.2718
     38  CB       -18.7460   -2.6470   36.5990 C.3   234  ASN234      0.1169
     39  CG       -17.5520   -3.1100   37.3910 C.2   234  ASN234      0.2627
     40  OD1      -17.2340   -2.5090   38.4220 O.2   234  ASN234     -0.2716
     41  ND2      -16.8550   -4.1600   36.9150 N.am  234  ASN234     -0.0877
     42  N        -16.0810   -0.8740   35.3990 N.am  235  GLU235     -0.1979
     43  CA       -14.7610   -1.0780   34.7860 C.3   235  GLU235      0.1602
     44  C        -14.7680   -1.0820   33.2590 C.2   235  GLU235      0.2287
     45  O        -14.4000   -2.0600   32.6270 O.2   235  GLU235     -0.2864
     46  CB       -14.0240   -2.2810   35.3930 C.3   235  GLU235      0.0415
     47  CG       -13.7760   -2.0310   36.9000 C.3   235  GLU235      0.1163
     48  CD       -12.7560   -2.9550   37.5640 C.2   235  GLU235      0.3649
     49  OE1      -12.2200   -3.8320   36.8860 O.co2 235  GLU235     -0.2457
     50  OE2      -12.4460   -2.8030   38.7790 O.co2 235  GLU235     -0.2457
     51  N         -9.9490  -10.6190   28.5580 N.3   244  TYR244     -0.1241
     52  CA       -10.4560  -10.3430   29.9180 C.3   244  TYR244      0.1605
     53  C        -11.4420  -11.4480   30.3800 C.2   244  TYR244      0.2264
     54  O        -12.4500  -11.7330   29.6890 O.2   244  TYR244     -0.2867
     55  CB       -11.1200   -8.9590   30.0290 C.3   244  TYR244      0.0534
     56  CG       -11.2720   -8.4990   31.4670 C.ar  244  TYR244     -0.0201
     57  CD1      -10.1810   -7.9550   32.1590 C.ar  244  TYR244     -0.0009
     58  CD2      -12.5090   -8.5850   32.1550 C.ar  244  TYR244     -0.0009
     59  CE1      -10.2840   -7.5270   33.4840 C.ar  244  TYR244      0.0417
     60  CE2      -12.6040   -8.1250   33.4770 C.ar  244  TYR244      0.0417
     61  CZ       -11.4760   -7.6110   34.1110 C.ar  244  TYR244      0.1957
     62  OH       -11.5270   -7.1570   35.3850 O.3   244  TYR244     -0.2866
     63  N        -13.6350  -12.0730   32.9630 N.3   246  PHE246     -0.1241
     64  CA       -15.0410  -12.0810   33.3770 C.3   246  PHE246      0.1605
     65  C        -15.8960  -11.0270   32.7590 C.2   246  PHE246      0.2264
     66  O        -15.3980  -10.2410   31.9480 O.2   246  PHE246     -0.2867
     67  CB       -15.2300  -12.1750   34.8830 C.3   246  PHE246      0.0534
     68  CG       -14.3540  -11.2440   35.6840 C.ar  246  PHE246     -0.0203
     69  CD1      -14.7960   -9.9720   36.0100 C.ar  246  PHE246     -0.0042
     70  CD2      -13.1310  -11.6900   36.1940 C.ar  246  PHE246     -0.0042
     71  CE1      -13.9980   -9.1390   36.8020 C.ar  246  PHE246     -0.0003
     72  CE2      -12.3230  -10.8590   36.9660 C.ar  246  PHE246     -0.0003
     73  CZ       -12.7490   -9.5760   37.2670 C.ar  246  PHE246     -0.0000
     74  N        -10.6560    1.9950   38.1040 N.3   284  GLN284     -0.1245
     75  CA        -9.4250    2.3440   38.8400 C.3   284  GLN284      0.1566
     76  C         -9.1280    3.8300   38.7770 C.2   284  GLN284      0.2260
     77  O         -9.3250    4.4480   37.7500 O.2   284  GLN284     -0.2867
     78  CB        -8.1990    1.6180   38.2610 C.3   284  GLN284      0.0367
     79  CG        -8.3180    0.1110   38.1530 C.3   284  GLN284      0.0905
     80  CD        -8.9760   -0.5250   39.3780 C.2   284  GLN284      0.2608
     81  OE1       -8.6650   -0.1750   40.5290 O.2   284  GLN284     -0.2717
     82  NE2       -9.9030   -1.4750   39.1340 N.am  284  GLN284     -0.0878
     83  N        -12.7340    2.9060   41.8810 N.3   311  HIS311     -0.1241
     84  CA       -12.4080    1.6220   42.4960 C.3   311  HIS311      0.1621
     85  C        -11.0570    1.7160   43.1490 C.2   311  HIS311      0.2264
     86  O        -10.1840    2.3630   42.5990 O.2   311  HIS311     -0.2867
     87  CB       -12.2650    0.5550   41.4220 C.3   311  HIS311      0.0745
     88  CG       -13.5520    0.0210   40.8940 C.ar  311  HIS311      0.0817
     89  ND1      -14.6990    0.7420   40.8690 N.ar  311  HIS311     -0.2268
     90  CD2      -13.8450   -1.2020   40.3010 C.ar  311  HIS311      0.1154
     91  CE1      -15.6640    0.0210   40.2820 C.ar  311  HIS311      0.1986
     92  NE2      -15.1360   -1.1660   39.9310 N.ar  311  HIS311     -0.2212
     93  N         -7.9300   -0.5210   44.0950 N.3   313  TYR313     -0.1241
     94  CA        -7.3910   -1.8750   43.9060 C.3   313  TYR313      0.1605
     95  C         -5.8810   -2.0990   44.1030 C.2   313  TYR313      0.2264
     96  O         -5.5380   -2.5360   45.2080 O.2   313  TYR313     -0.2867
     97  CB        -7.9770   -2.6230   42.6930 C.3   313  TYR313      0.0534
     98  CG        -7.8990   -4.1400   42.8220 C.ar  313  TYR313     -0.0201
     99  CD1       -8.8220   -4.8430   43.5940 C.ar  313  TYR313     -0.0009
    100  CD2       -6.8890   -4.8850   42.1740 C.ar  313  TYR313     -0.0009
    101  CE1       -8.7460   -6.2300   43.7200 C.ar  313  TYR313      0.0417
    102  CE2       -6.7950   -6.2760   42.3090 C.ar  313  TYR313      0.0417
    103  CZ        -7.7290   -6.9450   43.0770 C.ar  313  TYR313      0.1957
    104  OH        -7.6870   -8.3210   43.2060 O.3   313  TYR313     -0.2866
    105  N        -16.3060    0.7310   44.6520 N.3   339  GLU339     -0.1245
    106  CA       -15.8730   -0.6400   44.9180 C.3   339  GLU339      0.1567
    107  C        -14.4950   -0.6600   45.5280 C.2   339  GLU339      0.2260
    108  O        -13.5510   -0.2320   44.9310 O.2   339  GLU339     -0.2867
    109  CB       -15.8350   -1.4660   43.6420 C.3   339  GLU339      0.0388
    110  CG       -15.6390   -2.9760   43.8560 C.3   339  GLU339      0.1160
    111  CD       -15.3930   -3.7260   42.5460 C.2   339  GLU339      0.3649
    112  OE1      -16.3350   -3.8200   41.7020 O.co2 339  GLU339     -0.2457
    113  OE2      -14.2470   -4.1900   42.3730 O.co2 339  GLU339     -0.2457
    114  N        -11.7360   -3.3870   47.6400 N.3   341  CYS341     -0.1235
    115  CA       -11.4770   -4.7460   48.1220 C.3   341  CYS341      0.1677
    116  C         -9.9940   -5.0280   48.1900 C.2   341  CYS341      0.2270
    117  O         -9.1750   -4.3050   47.5680 O.2   341  CYS341     -0.2867
    118  CB       -12.1490   -5.8140   47.2700 C.3   341  CYS341      0.0956
    119  SG       -11.8550   -5.6000   45.4890 S.3   341  CYS341     -0.0801
    120  N        -16.9840   -4.2070   48.4530 N.3   380  TRP380     -0.1241
    121  CA       -17.3790   -5.1870   47.4570 C.3   380  TRP380      0.1605
    122  C        -18.2520   -6.2110   48.1330 C.2   380  TRP380      0.2264
    123  O        -19.0690   -5.8220   48.9160 O.2   380  TRP380     -0.2867
    124  CB       -16.1160   -5.8210   46.9190 C.3   380  TRP380      0.0550
    125  CG       -16.2480   -6.5870   45.6230 C.ar  380  TRP380      0.0003
    126  CD1      -15.3350   -7.4990   45.1120 C.ar  380  TRP380      0.0946
    127  CD2      -17.3370   -6.5360   44.6180 C.ar  380  TRP380      0.0152
    128  NE1      -15.7580   -7.9950   43.9060 N.ar  380  TRP380     -0.2442
    129  CE2      -16.9420   -7.4590   43.5420 C.ar  380  TRP380      0.0810
    130  CE3      -18.5520   -5.8570   44.5070 C.ar  380  TRP380      0.0012
    131  CZ2      -17.7470   -7.6900   42.4170 C.ar  380  TRP380      0.0191
    132  CZ3      -19.3620   -6.0930   43.3570 C.ar  380  TRP380      0.0001
    133  CH2      -18.9610   -6.9850   42.3400 C.ar  380  TRP380      0.0015
    134  N         -9.8760  -13.9780   44.5980 N.3   396  PHE396     -0.1227
    135  CA        -8.6910  -13.1560   44.7430 C.3   396  PHE396      0.1736
    136  C         -8.8030  -12.3180   45.9630 C.2   396  PHE396      0.2595
    137  O         -7.8020  -11.7490   46.4230 O.2   396  PHE396     -0.2718
    138  CB        -8.5580  -12.2130   43.5450 C.3   396  PHE396      0.0547
    139  CG        -7.6920  -12.7510   42.4590 C.ar  396  PHE396     -0.0202
    140  CD1       -6.3600  -13.1080   42.7260 C.ar  396  PHE396     -0.0042
    141  CD2       -8.1900  -12.9010   41.1640 C.ar  396  PHE396     -0.0042
    142  CE1       -5.5430  -13.6070   41.7210 C.ar  396  PHE396     -0.0003
    143  CE2       -7.3730  -13.3970   40.1540 C.ar  396  PHE396     -0.0003
    144  CZ        -6.0500  -13.7490   40.4330 C.ar  396  PHE396     -0.0000
    145  N        -10.0300  -12.2850   46.4770 N.am  397  VAL397     -0.1980
    146  CA       -10.5030  -11.1980   47.2680 C.3   397  VAL397      0.1595
    147  C        -11.1440  -11.6870   48.6000 C.2   397  VAL397      0.2287
    148  O        -11.8310  -12.6700   48.6470 O.2   397  VAL397     -0.2864
    149  CB       -11.4320  -10.3650   46.3490 C.3   397  VAL397      0.0276
    150  CG1      -12.8860  -10.4840   46.7620 C.3   397  VAL397      0.0022
    151  CG2      -10.9690   -8.9160   46.2260 C.3   397  VAL397      0.0022
@<TRIPOS>BOND
     1    51    52    1
     2    54    53    2
     3    52    55    1
     4    52    53    1
     5    55    56    1
     6    56    58   ar
     7    56    57   ar
     8    23    22    2
     9    66    65    2
    10    58    60   ar
    11    57    59   ar
    12    22    21    1
    13    45    44    2
    14    65    64    1
    15    63    64    1
    16    44    43    1
    17    64    67    1
    18    60    61   ar
    19    59    61   ar
    20    21    20    1
    21    21    24    1
    22    61    62    1
    23    37    36    2
    24    24    25    1
    25    43    46    1
    26    43    42    1
    27    67    68    1
    28    34    35    1
    29    36    42   am
    30    36    35    1
    31    46    47    1
    32    68    69   ar
    33    68    70   ar
    34    35    38    1
    35    69    71   ar
    36    25    26   ar
    37    25    27   ar
    38    70    72   ar
    39    26    28   ar
    40    38    39    1
    41    71    73   ar
    42    49    48   ar
    43    47    48    1
    44    41    39   am
    45    72    73   ar
    46    27    30   ar
    47    27    29   ar
    48    39    40    2
    49    28    29   ar
    50    48    50   ar
    51    30    32   ar
    52    77    76    2
    53     1     2    1
    54    74    75    1
    55    79    78    1
    56    79    80    1
    57    29    31   ar
    58    78    75    1
    59     2     5    1
    60     2     3    1
    61     5     6    1
    62    76    75    1
    63    32    33   ar
    64    82    80   am
    65    80    81    2
    66     6     7   ar
    67     6     8   ar
    68    31    33   ar
    69     3     4    2
    70     3     9   am
    71    92    91   ar
    72    92    90   ar
    73   143   144   ar
    74   143   141   ar
    75    91    89   ar
    76    90    88   ar
    77   144   142   ar
    78     9    10    1
    79    89    88   ar
    80    88    87    1
    81   141   139   ar
    82    87    84    1
    83    11    10    1
    84    11    12    2
    85   112   111   ar
    86   142   140   ar
    87    10    13    1
    88    83    84    1
    89   100   102   ar
    90   100    98   ar
    91   102   103   ar
    92   133   131   ar
    93   133   132   ar
    94   113   111   ar
    95   131   129   ar
    96   139   140   ar
    97   139   138    1
    98    84    85    1
    99   111   110    1
   100    86    85    2
   101    97    98    1
   102    97    94    1
   103    98    99   ar
   104    13    14    1
   105    15    17   ar
   106    15    14   ar
   107   103   104    1
   108   103   101   ar
   109   132   130   ar
   110    17    19   ar
   111    14    16   ar
   112   129   128   ar
   113   129   127   ar
   114   138   135    1
   115    99   101   ar
   116   109   110    1
   117   109   106    1
   118    94    93    1
   119    94    95    1
   120   128   126   ar
   121    95    96    2
   122    19    18   ar
   123    16    18   ar
   124   130   127   ar
   125   134   135    1
   126   127   125   ar
   127   105   106    1
   128   135   136    1
   129   106   107    1
   130   108   107    2
   131   126   125   ar
   132   119   118    1
   133   125   124    1
   134   136   137    2
   135   136   145   am
   136   151   149    1
   137   149   150    1
   138   149   146    1
   139   145   146    1
   140   124   121    1
   141   146   147    1
   142   118   115    1
   143   121   122    1
   144   121   120    1
   145   117   116    2
   146   114   115    1
   147   115   116    1
   148   122   123    2
   149   147   148    2
