@<TRIPOS>MOLECULE
tmp/3rimA00.pdb
 139 132 0 0 0
SMALL
GASTEIGER

@<TRIPOS>ATOM
      1  N         -0.4720  -27.3840   70.4310 N.3    40  HIS40      -0.1241
      2  CA        -0.2510  -26.1150   71.1230 C.3    40  HIS40       0.1621
      3  C          0.1790  -26.3340   72.5800 C.2    40  HIS40       0.2264
      4  O         -0.6600  -26.4990   73.4590 O.2    40  HIS40      -0.2867
      5  CB        -1.5180  -25.2710   71.0370 C.3    40  HIS40       0.0745
      6  CG        -1.9980  -25.0400   69.6420 C.ar   40  HIS40       0.0817
      7  ND1       -2.7980  -25.9390   68.9670 N.ar   40  HIS40      -0.2268
      8  CD2       -1.7750  -24.0170   68.7910 C.ar   40  HIS40       0.1154
      9  CE1       -3.0560  -25.4760   67.7630 C.ar   40  HIS40       0.1986
     10  NE2       -2.4600  -24.3020   67.6380 N.ar   40  HIS40      -0.2212
     11  N          0.9900  -22.3020   75.7770 N.3    43  THR43      -0.1218
     12  CA         0.0730  -21.5970   76.6490 C.3    43  THR43       0.1862
     13  C         -0.3150  -22.4890   77.8260 C.2    43  THR43       0.2287
     14  O         -0.4350  -22.0290   78.9810 O.2    43  THR43      -0.2866
     15  CB        -1.1640  -21.1410   75.8450 C.3    43  THR43       0.1770
     16  OG1       -0.7350  -20.5330   74.6150 O.3    43  THR43      -0.2211
     17  CG2       -2.0520  -20.1710   76.6390 C.3    43  THR43       0.0375
     18  N         -7.3280  -23.3670   71.3470 N.3    80  HIS80      -0.1241
     19  CA        -6.0190  -23.9440   70.9610 C.3    80  HIS80       0.1621
     20  C         -5.2820  -24.5380   72.1340 C.2    80  HIS80       0.2264
     21  O         -4.5990  -25.5660   71.9750 O.2    80  HIS80      -0.2867
     22  CB        -5.0990  -22.9410   70.2120 C.3    80  HIS80       0.0745
     23  CG        -4.8180  -21.6700   70.9460 C.ar   80  HIS80       0.0817
     24  ND1       -5.5200  -21.2340   72.0230 N.ar   80  HIS80      -0.2268
     25  CD2       -3.9570  -20.6810   70.6940 C.ar   80  HIS80       0.1154
     26  CE1       -5.0500  -20.0890   72.4720 C.ar   80  HIS80       0.1986
     27  NE2       -4.1140  -19.7090   71.6600 N.ar   80  HIS80      -0.2212
     28  N         -9.0760  -28.9980   69.3560 N.3   114  HIS114     -0.1241
     29  CA        -9.8430  -27.9980   70.0990 C.3   114  HIS114      0.1621
     30  C        -10.9400  -28.7430   70.7920 C.2   114  HIS114      0.2264
     31  O        -11.4240  -29.7510   70.2770 O.2   114  HIS114     -0.2867
     32  CB       -10.3820  -26.9400   69.1500 C.3   114  HIS114      0.0745
     33  CG        -9.2870  -26.2050   68.4440 C.ar  114  HIS114      0.0817
     34  ND1       -8.6710  -26.6920   67.3090 N.ar  114  HIS114     -0.2268
     35  CD2       -8.6330  -25.0640   68.7650 C.ar  114  HIS114      0.1154
     36  CE1       -7.7140  -25.8630   66.9370 C.ar  114  HIS114      0.1986
     37  NE2       -7.6710  -24.8640   67.8010 N.ar  114  HIS114     -0.2212
     38  N        -12.5130  -22.6900   69.6630 N.3   128  GLY128     -0.1210
     39  CA       -11.4960  -22.8220   68.6250 C.3   128  GLY128      0.1940
     40  C        -11.5410  -21.5970   67.7370 C.2   128  GLY128      0.2454
     41  O        -10.5300  -20.9200   67.5940 O.2   128  GLY128     -0.2732
     42  N        -12.7050  -21.3030   67.1310 N.am  129  PRO129     -0.2717
     43  CA       -12.7860  -20.0250   66.4610 C.3   129  PRO129      0.1535
     44  C        -12.6940  -18.9810   67.5310 C.2   129  PRO129      0.2598
     45  O        -13.5680  -18.9270   68.4110 O.2   129  PRO129     -0.2715
     46  CB       -14.1810  -20.0480   65.8470 C.3   129  PRO129      0.0310
     47  CG       -14.4230  -21.5100   65.6040 C.3   129  PRO129      0.0237
     48  CD       -13.8520  -22.1620   66.8040 C.3   129  PRO129      0.0939
     49  N        -11.6160  -18.2050   67.5110 N.am  130  LEU130     -0.1978
     50  CA       -11.3910  -17.2600   68.6150 C.3   130  LEU130      0.1596
     51  C        -12.5450  -16.2530   68.8170 C.2   130  LEU130      0.2287
     52  O        -13.2070  -15.8520   67.8720 O.2   130  LEU130     -0.2864
     53  CB       -10.0540  -16.5200   68.4460 C.3   130  LEU130      0.0297
     54  CG        -8.8290  -17.3960   68.7740 C.3   130  LEU130      0.0022
     55  CD1       -7.5600  -16.8880   68.0410 C.3   130  LEU130      0.0001
     56  CD2       -8.6270  -17.4810   70.2780 C.3   130  LEU130      0.0001
     57  N         -7.5210  -15.4120   75.4420 N.3   171  SER171     -0.1202
     58  CA        -6.2100  -14.9690   75.0140 C.3   171  SER171      0.2020
     59  C         -6.2200  -13.6180   74.2230 C.2   171  SER171      0.2619
     60  O         -7.2790  -12.9890   74.0620 O.2   171  SER171     -0.2717
     61  CB        -5.5470  -16.0740   74.2180 C.3   171  SER171      0.2103
     62  OG        -6.1850  -16.2530   72.9970 O.3   171  SER171     -0.2182
     63  N         -5.0430  -13.1790   73.7750 N.am  172  ASP172     -0.1959
     64  CA        -4.8900  -11.9910   72.9430 C.3   172  ASP172      0.1840
     65  C         -5.8460  -12.0270   71.7600 C.2   172  ASP172      0.2622
     66  O         -6.5800  -11.0500   71.4930 O.2   172  ASP172     -0.2715
     67  CB        -3.4410  -11.8280   72.4040 C.3   172  ASP172      0.1450
     68  CG        -2.4230  -11.5450   73.5050 C.2   172  ASP172      0.3671
     69  OD1       -2.5590  -10.5290   74.2210 O.co2 172  ASP172     -0.2456
     70  OD2       -1.4910  -12.3650   73.6640 O.co2 172  ASP172     -0.2456
     71  N         -5.8260  -13.1450   71.0380 N.am  173  GLY173     -0.1954
     72  CA        -6.7460  -13.3570   69.9210 C.3   173  GLY173      0.1869
     73  C         -8.2210  -13.1670   70.2860 C.2   173  GLY173      0.2309
     74  O         -8.9550  -12.5140   69.5190 O.2   173  GLY173     -0.2863
     75  N        -10.7200   -9.9660   68.6600 N.3   177  GLU177     -0.1245
     76  CA       -11.9240  -10.2780   67.8650 C.3   177  GLU177      0.1567
     77  C        -13.1010   -9.4070   68.1960 C.2   177  GLU177      0.2260
     78  O        -13.4850   -9.2930   69.3640 O.2   177  GLU177     -0.2867
     79  CB       -12.3080  -11.7580   68.0020 C.3   177  GLU177      0.0388
     80  CG       -11.4320  -12.7180   67.1260 C.3   177  GLU177      0.1160
     81  CD       -11.6990  -12.6760   65.5930 C.2   177  GLU177      0.3649
     82  OE1      -12.6500  -12.0010   65.1100 O.co2 177  GLU177     -0.2457
     83  OE2      -10.9220  -13.3200   64.8510 O.co2 177  GLU177     -0.2457
     84  N         -5.3120  -13.9620   79.2920 N.3   200  ASP200     -0.1239
     85  CA        -3.8770  -14.2690   79.2610 C.3   200  ASP200      0.1674
     86  C         -3.0830  -13.3020   78.3560 C.2   200  ASP200      0.2266
     87  O         -2.8780  -13.5510   77.1840 O.2   200  ASP200     -0.2867
     88  CB        -3.6320  -15.7390   78.8770 C.3   200  ASP200      0.1410
     89  CG        -2.1600  -16.0830   78.8150 C.2   200  ASP200      0.3668
     90  OD1       -1.3720  -15.4000   79.4870 O.co2 200  ASP200     -0.2456
     91  OD2       -1.7950  -17.0390   78.1050 O.co2 200  ASP200     -0.2456
     92  N          0.0170  -12.0150   77.0950 N.3   202  ASN202     -0.1240
     93  CA         1.3450  -12.6150   77.0800 C.3   202  ASN202      0.1653
     94  C          2.2170  -12.0970   75.9410 C.2   202  ASN202      0.2266
     95  O          3.2680  -12.6650   75.6420 O.2   202  ASN202     -0.2867
     96  CB         1.2680  -14.1620   77.1320 C.3   202  ASN202      0.1155
     97  CG         0.6520  -14.7870   75.8640 C.2   202  ASN202      0.2627
     98  OD1        0.2050  -14.0810   74.9250 O.2   202  ASN202     -0.2716
     99  ND2        0.6390  -16.1310   75.8220 N.am  202  ASN202     -0.0877
    100  N          2.2200  -12.4120   72.9860 N.3   204  ILE204     -0.1231
    101  CA         2.5180  -13.3620   71.9280 C.3   204  ILE204      0.1692
    102  C          1.2430  -13.8300   71.2220 C.2   204  ILE204      0.2593
    103  O          0.1720  -14.0540   71.8430 O.2   204  ILE204     -0.2718
    104  CB         3.3460  -14.5830   72.4520 C.3   204  ILE204      0.0266
    105  CG1        4.7860  -14.1670   72.8570 C.3   204  ILE204      0.0019
    106  CG2        3.2810  -15.7750   71.4540 C.3   204  ILE204      0.0020
    107  CD1        5.7910  -13.9030   71.7150 C.3   204  ILE204      0.0001
    108  N          1.3830  -13.9580   69.9030 N.am  205  SER205     -0.1938
    109  CA         0.4150  -14.6220   69.0610 C.3   205  SER205      0.2055
    110  C          1.2040  -15.2830   67.9420 C.2   205  SER205      0.2642
    111  O          2.4150  -15.4040   68.0740 O.2   205  SER205     -0.2714
    112  CB        -0.6340  -13.6370   68.5680 C.3   205  SER205      0.2130
    113  OG        -0.0520  -12.6430   67.7670 O.3   205  SER205     -0.2179
    114  N          0.5520  -15.7190   66.8650 N.am  206  ILE206     -0.1977
    115  CA         1.2330  -16.5250   65.8570 C.3   206  ILE206      0.1596
    116  C          2.3330  -15.7180   65.1800 C.2   206  ILE206      0.2287
    117  O          3.3790  -16.2570   64.8480 O.2   206  ILE206     -0.2864
    118  CB         0.2270  -17.2250   64.8840 C.3   206  ILE206      0.0276
    119  CG1       -0.5960  -18.2710   65.6510 C.3   206  ILE206      0.0022
    120  CG2        0.9480  -17.8570   63.7060 C.3   206  ILE206      0.0022
    121  CD1       -1.6500  -19.0420   64.8470 C.3   206  ILE206      0.0001
    122  N          4.7020  -16.7760   77.7660 N.3   264  ILE264     -0.1245
    123  CA         4.2510  -17.9970   77.1170 C.3   264  ILE264      0.1561
    124  C          5.3350  -19.0840   77.1700 C.2   264  ILE264      0.2260
    125  O          6.5130  -18.7940   76.9950 O.2   264  ILE264     -0.2867
    126  CB         3.7590  -17.7470   75.6600 C.3   264  ILE264      0.0252
    127  CG1        2.9030  -18.9130   75.1620 C.3   264  ILE264      0.0019
    128  CG2        4.9310  -17.5070   74.6900 C.3   264  ILE264      0.0019
    129  CD1        2.2900  -18.6600   73.8240 C.3   264  ILE264      0.0001
    130  N          3.7680  -21.2800   70.8720 N.3   278  HIS278     -0.1241
    131  CA         2.3240  -21.3120   70.7080 C.3   278  HIS278      0.1621
    132  C          1.7720  -22.5400   69.9580 C.2   278  HIS278      0.2264
    133  O          0.7980  -23.1690   70.4290 O.2   278  HIS278     -0.2867
    134  CB         1.7870  -20.0460   70.0180 C.3   278  HIS278      0.0745
    135  CG         0.4510  -20.2690   69.3710 C.ar  278  HIS278      0.0817
    136  ND1       -0.7250  -20.2480   70.0340 N.ar  278  HIS278     -0.2268
    137  CD2        0.1110  -20.6290   68.1330 C.ar  278  HIS278      0.1154
    138  CE1       -1.7340  -20.5290   69.2380 C.ar  278  HIS278      0.1986
    139  NE2       -1.2530  -20.7710   68.0670 N.ar  278  HIS278     -0.2212
@<TRIPOS>BOND
     1   120   118    1
     2   121   119    1
     3   117   116    2
     4    83    81   ar
     5   118   119    1
     6   118   115    1
     7    82    81   ar
     8   116   115    1
     9    81    80    1
    10    47    46    1
    11    47    48    1
    12    46    43    1
    13   115   114    1
    14    43    42    1
    15    43    44    1
    16    48    42    1
    17   114   110   am
    18    36    34   ar
    19    36    37   ar
    20    80    79    1
    21    42    40   am
    22    34    33   ar
    23    49    44   am
    24    49    50    1
    25    44    45    2
    26    41    40    2
    27    10     9   ar
    28    10     8   ar
    29    40    39    1
    30     9     7   ar
    31   113   112    1
    32    37    35   ar
    33    76    79    1
    34    76    77    1
    35    76    75    1
    36    52    51    2
    37   110   111    2
    38   110   109    1
    39    55    54    1
    40   139   137   ar
    41   139   138   ar
    42   137   135   ar
    43    77    78    2
    44    33    35   ar
    45    33    32    1
    46    53    50    1
    47    53    54    1
    48   112   109    1
    49    50    51    1
    50    39    38    1
    51    54    56    1
    52     8     6   ar
    53     7     6   ar
    54   109   108    1
    55    32    29    1
    56   138   136   ar
    57    28    29    1
    58   135   134    1
    59   135   136   ar
    60    74    73    2
    61     6     5    1
    62   108   102   am
    63    72    73    1
    64    72    71    1
    65   132   133    2
    66   132   131    1
    67   134   131    1
    68    29    30    1
    69    22    23    1
    70    22    19    1
    71    31    30    2
    72     1     2    1
    73    25    23   ar
    74    25    27   ar
    75   131   130    1
    76    23    24   ar
    77    19    18    1
    78    19    20    1
    79     5     2    1
    80    71    65   am
    81     2     3    1
    82   102   103    2
    83   102   101    1
    84   106   104    1
    85    66    65    2
    86    27    26   ar
    87   107   105    1
    88    65    64    1
    89   101   104    1
    90   101   100    1
    91    21    20    2
    92    24    26   ar
    93    67    64    1
    94    67    68    1
    95   104   105    1
    96     3     4    2
    97    64    63    1
    98    62    61    1
    99    68    70   ar
   100    68    69   ar
   101    63    59   am
   102   129   127    1
   103    60    59    2
   104    61    58    1
   105    59    58    1
   106    16    15    1
   107   128   126    1
   108    98    97    2
   109    58    57    1
   110   127   126    1
   111    95    94    2
   112   126   123    1
   113    11    12    1
   114    99    97   am
   115    15    17    1
   116    15    12    1
   117    97    96    1
   118    94    93    1
   119    12    13    1
   120   125   124    2
   121    93    92    1
   122    93    96    1
   123   123   124    1
   124   123   122    1
   125    87    86    2
   126    13    14    2
   127    91    89   ar
   128    86    85    1
   129    89    88    1
   130    89    90   ar
   131    88    85    1
   132    85    84    1
