@<TRIPOS>MOLECULE
tmp/3rinA00.pdb
 171 161 0 0 0
SMALL
GASTEIGER

@<TRIPOS>ATOM
      1  N         -1.5290   32.8930   39.2060 N.3    27  VAL27      -0.1245
      2  CA        -2.5760   32.9390   38.1510 C.3    27  VAL27       0.1561
      3  C         -2.8000   31.5680   37.5010 C.2    27  VAL27       0.2260
      4  O         -1.9090   30.7280   37.4810 O.2    27  VAL27      -0.2867
      5  CB        -2.3650   34.0140   37.0460 C.3    27  VAL27       0.0252
      6  CG1       -2.0590   35.3680   37.6570 C.3    27  VAL27       0.0019
      7  CG2       -1.2990   33.6200   36.0970 C.3    27  VAL27       0.0019
      8  N         -1.5800   26.4600   34.5440 N.3    32  TYR32      -0.1241
      9  CA        -0.3990   26.7570   33.7390 C.3    32  TYR32       0.1605
     10  C          0.9130   26.2830   34.3800 C.2    32  TYR32       0.2264
     11  O          1.9720   26.4310   33.7910 O.2    32  TYR32      -0.2867
     12  CB        -0.2840   28.2720   33.4680 C.3    32  TYR32       0.0534
     13  CG        -1.5270   29.0030   32.9730 C.ar   32  TYR32      -0.0201
     14  CD1       -2.0530   30.0760   33.6860 C.ar   32  TYR32      -0.0009
     15  CD2       -2.1530   28.6350   31.7950 C.ar   32  TYR32      -0.0009
     16  CE1       -3.2000   30.7600   33.2290 C.ar   32  TYR32       0.0417
     17  CE2       -3.2610   29.3060   31.3220 C.ar   32  TYR32       0.0417
     18  CZ        -3.7890   30.3590   32.0460 C.ar   32  TYR32       0.1957
     19  OH        -4.9040   31.0070   31.5720 O.3    32  TYR32      -0.2866
     20  N          2.7510   29.4410   38.1510 N.3    35  VAL35      -0.1245
     21  CA         2.8740   30.7440   37.5000 C.3    35  VAL35       0.1561
     22  C          2.2340   31.8430   38.3790 C.2    35  VAL35       0.2260
     23  O          1.0940   31.6940   38.8540 O.2    35  VAL35      -0.2867
     24  CB         2.1800   30.7560   36.0870 C.3    35  VAL35       0.0252
     25  CG1        2.2860   32.1370   35.3980 C.3    35  VAL35       0.0019
     26  CG2        2.7860   29.7570   35.2100 C.3    35  VAL35       0.0019
     27  N          4.4700   37.1750   33.5550 N.3    48  ALA48      -0.1245
     28  CA         4.1880   35.8940   34.2210 C.3    48  ALA48       0.1562
     29  C          5.5400   35.2800   34.5950 C.2    48  ALA48       0.2260
     30  O          6.4170   35.2700   33.7770 O.2    48  ALA48      -0.2867
     31  CB         3.4080   34.9440   33.2590 C.3    48  ALA48       0.0290
     32  N          7.2730   31.7660   36.0060 N.3    50  LYS50      -0.1245
     33  CA         7.0160   30.3460   36.2520 C.3    50  LYS50       0.1561
     34  C          8.2490   29.8000   36.9500 C.2    50  LYS50       0.2260
     35  O          9.3770   29.9300   36.4750 O.2    50  LYS50      -0.2867
     36  CB         6.6180   29.5990   34.9500 C.3    50  LYS50       0.0271
     37  CG         6.7700   28.0340   34.9380 C.3    50  LYS50       0.0035
     38  CD         6.8050   27.4350   33.4910 C.3    50  LYS50       0.0206
     39  CE         5.4380   27.0160   33.0240 C.3    50  LYS50       0.1093
     40  NZ         5.4970   26.0600   31.8610 N.3    50  LYS50      -0.1314
     41  N         12.5520   23.0520   27.8420 N.3    68  GLU68      -0.1245
     42  CA        11.7200   24.2510   27.9060 C.3    68  GLU68       0.1567
     43  C         12.5540   25.5270   27.8230 C.2    68  GLU68       0.2260
     44  O         12.1340   26.4970   27.2240 O.2    68  GLU68      -0.2867
     45  CB        10.8770   24.2670   29.1790 C.3    68  GLU68       0.0388
     46  CG         9.8870   25.3830   29.1530 C.3    68  GLU68       0.1160
     47  CD         8.9080   25.3180   30.2890 C.2    68  GLU68       0.3649
     48  OE1        9.0220   24.3960   31.0940 O.co2  68  GLU68      -0.2457
     49  OE2        7.9890   26.1540   30.3340 O.co2  68  GLU68      -0.2457
     50  N         13.7720   25.9440   24.1140 N.3    71  LEU71      -0.1231
     51  CA        12.6290   26.4130   23.2790 C.3    71  LEU71       0.1693
     52  C         12.3470   27.8960   23.4820 C.2    71  LEU71       0.2591
     53  O         12.3060   28.6760   22.5470 O.2    71  LEU71      -0.2718
     54  CB        11.3520   25.5910   23.5760 C.3    71  LEU71       0.0284
     55  CG        11.3060   24.1640   23.0370 C.3    71  LEU71       0.0019
     56  CD1       10.2010   23.3240   23.6760 C.3    71  LEU71       0.0001
     57  CD2       11.2090   24.1610   21.5000 C.3    71  LEU71       0.0001
     58  N         12.1890   28.2600   24.7360 N.am   72  LEU72      -0.1980
     59  CA        11.9200   29.6320   25.1760 C.3    72  LEU72       0.1596
     60  C         12.9340   30.6770   24.7500 C.2    72  LEU72       0.2287
     61  O         12.5480   31.7840   24.3120 O.2    72  LEU72      -0.2864
     62  CB        11.7180   29.6480   26.6910 C.3    72  LEU72       0.0297
     63  CG        10.3090   29.2150   27.0920 C.3    72  LEU72       0.0022
     64  CD1       10.2310   29.1330   28.5810 C.3    72  LEU72       0.0001
     65  CD2        9.3200   30.2360   26.6050 C.3    72  LEU72       0.0001
     66  N          5.2270   33.1550   22.6600 N.3    81  ILE81      -0.1245
     67  CA         5.7710   33.3800   24.0180 C.3    81  ILE81       0.1561
     68  C          7.2990   33.2470   23.9540 C.2    81  ILE81       0.2260
     69  O          7.8090   32.3410   23.2960 O.2    81  ILE81      -0.2867
     70  CB         5.2100   32.3920   25.0660 C.3    81  ILE81       0.0252
     71  CG1        4.7930   33.0910   26.3960 C.3    81  ILE81       0.0019
     72  CG2        6.2510   31.3060   25.3870 C.3    81  ILE81       0.0019
     73  CD1        4.0290   34.4780   26.2950 C.3    81  ILE81       0.0001
     74  N         11.2920   31.3480   35.0610 N.3   101  LEU101     -0.1245
     75  CA        11.1680   31.8360   33.7040 C.3   101  LEU101      0.1561
     76  C         10.1630   32.9760   33.6290 C.2   101  LEU101      0.2260
     77  O          9.0150   32.8380   34.0560 O.2   101  LEU101     -0.2867
     78  CB        10.7340   30.6940   32.7920 C.3   101  LEU101      0.0270
     79  CG        11.6670   29.4570   32.7740 C.3   101  LEU101      0.0019
     80  CD1       10.8880   28.2380   32.4570 C.3   101  LEU101      0.0001
     81  CD2       12.7510   29.6200   31.7170 C.3   101  LEU101      0.0001
     82  N          8.1700   35.8810   31.2710 N.3   103  THR103     -0.1203
     83  CA         7.6460   36.1220   29.9210 C.3   103  THR103      0.1994
     84  C          6.5950   37.2510   30.0700 C.2   103  THR103      0.2618
     85  O          6.3250   37.7010   31.1660 O.2   103  THR103     -0.2717
     86  CB         6.8600   34.8830   29.3080 C.3   103  THR103      0.1784
     87  OG1        5.5790   34.7830   29.9590 O.3   103  THR103     -0.2211
     88  CG2        7.6010   33.5380   29.4400 C.3   103  THR103      0.0376
     89  N          5.9380   37.6170   28.9790 N.am  104  HIS104     -0.1961
     90  CA         4.9280   38.6460   28.9860 C.3   104  HIS104      0.1787
     91  C          3.6660   38.1420   29.6620 C.2   104  HIS104      0.2620
     92  O          3.4260   36.9190   29.6960 O.2   104  HIS104     -0.2715
     93  CB         4.6190   39.0630   27.5590 C.3   104  HIS104      0.0785
     94  CG         5.5640   40.0810   26.9970 C.ar  104  HIS104      0.0821
     95  ND1        6.6100   39.7420   26.1610 N.ar  104  HIS104     -0.2267
     96  CD2        5.6040   41.4280   27.1180 C.ar  104  HIS104      0.1154
     97  CE1        7.2420   40.8420   25.7730 C.ar  104  HIS104      0.1986
     98  NE2        6.6700   41.8780   26.3620 N.ar  104  HIS104     -0.2212
     99  N          2.8770   39.0520   30.2340 N.am  105  LEU105     -0.1963
    100  CA         1.6110   38.6560   30.8300 C.3   105  LEU105      0.1728
    101  C          0.6460   39.3540   29.9480 C.2   105  LEU105      0.2616
    102  O          0.7570   40.5790   29.7120 O.2   105  LEU105     -0.2715
    103  CB         1.4500   39.1050   32.2670 C.3   105  LEU105      0.0311
    104  CG         0.1900   38.6340   33.0130 C.3   105  LEU105      0.0022
    105  CD1        0.3500   37.2360   33.5230 C.3   105  LEU105      0.0001
    106  CD2       -0.1910   39.5730   34.1420 C.3   105  LEU105      0.0001
    107  N         -0.2100   38.5180   29.3490 N.am  106  MET106     -0.1963
    108  CA        -1.1990   38.9380   28.4350 C.3   106  MET106      0.1736
    109  C         -2.4970   39.0640   29.2220 C.2   106  MET106      0.2617
    110  O         -3.3440   39.8910   28.8840 O.2   106  MET106     -0.2715
    111  CB        -1.3290   37.9110   27.3080 C.3   106  MET106      0.0427
    112  CG        -0.0690   37.6840   26.4980 C.3   106  MET106      0.0599
    113  SD         0.4710   39.1660   25.7010 S.3   106  MET106     -0.1393
    114  CE        -0.2900   39.1640   24.1320 C.3   106  MET106      0.0692
    115  N         -2.6410   38.2510   30.2530 N.am  107  GLY107     -0.1940
    116  CA        -3.7640   38.3550   31.1790 C.3   107  GLY107      0.2014
    117  C         -4.8140   37.2510   31.2080 C.2   107  GLY107      0.2639
    118  O         -5.4420   36.9900   32.2650 O.2   107  GLY107     -0.2714
    119  N         -5.0720   36.6500   30.0500 N.am  108  ALA108     -0.1963
    120  CA        -5.9970   35.5130   29.9430 C.3   108  ALA108      0.1728
    121  C         -5.6420   34.6120   28.7360 C.2   108  ALA108      0.2616
    122  O         -4.7900   34.9520   27.9220 O.2   108  ALA108     -0.2715
    123  CB        -7.4550   36.0190   29.8390 C.3   108  ALA108      0.0334
    124  N         -6.3380   33.4910   28.5990 N.am  109  ASP109     -0.1971
    125  CA        -6.1630   32.6170   27.4590 C.3   109  ASP109      0.1709
    126  C         -7.4230   32.6660   26.6000 C.2   109  ASP109      0.2293
    127  O         -8.4610   33.0910   27.0820 O.2   109  ASP109     -0.2864
    128  CB        -5.7160   31.1920   27.8980 C.3   109  ASP109      0.1436
    129  CG        -6.7850   30.4240   28.6580 C.2   109  ASP109      0.3671
    130  OD1       -7.9530   30.4780   28.2550 O.co2 109  ASP109     -0.2456
    131  OD2       -6.4560   29.7230   29.6310 O.co2 109  ASP109     -0.2456
    132  N         -2.2620   32.8770   24.5510 N.3   154  ALA154     -0.1245
    133  CA        -2.4100   33.9410   25.5430 C.3   154  ALA154      0.1562
    134  C         -2.8110   35.2310   24.8690 C.2   154  ALA154      0.2260
    135  O         -2.1900   35.6320   23.8790 O.2   154  ALA154     -0.2867
    136  CB        -1.1360   34.1160   26.3220 C.3   154  ALA154      0.0290
    137  N          1.6640   29.7640   23.4400 N.3   164  LEU164     -0.1231
    138  CA         2.3220   29.1760   24.5960 C.3   164  LEU164      0.1693
    139  C          2.5630   27.6830   24.3480 C.2   164  LEU164      0.2592
    140  O          1.8960   27.0510   23.5220 O.2   164  LEU164     -0.2718
    141  CB         1.4010   29.2850   25.8210 C.3   164  LEU164      0.0284
    142  CG         0.7190   30.5490   26.3520 C.3   164  LEU164      0.0019
    143  CD1        0.0040   30.1820   27.5780 C.3   164  LEU164      0.0001
    144  CD2        1.7420   31.5800   26.6870 C.3   164  LEU164      0.0001
    145  N          3.4950   27.0890   25.0540 N.am  165  ASP165     -0.1960
    146  CA         3.5600   25.6130   25.0840 C.3   165  ASP165      0.1840
    147  C          4.0000   24.8370   23.8590 C.2   165  ASP165      0.2622
    148  O          3.7590   23.6330   23.7680 O.2   165  ASP165     -0.2715
    149  CB         2.2110   25.0510   25.5490 C.3   165  ASP165      0.1450
    150  CG         2.1940   24.7760   27.0100 C.2   165  ASP165      0.3671
    151  OD1        2.8620   23.8000   27.3960 O.co2 165  ASP165     -0.2456
    152  OD2        1.5520   25.5570   27.7850 O.co2 165  ASP165     -0.2456
    153  N          4.6370   25.4990   22.9100 N.am  166  PHE166     -0.1974
    154  CA         5.0850   24.8210   21.6900 C.3   166  PHE166      0.1639
    155  C          6.1380   23.8050   22.0680 C.2   166  PHE166      0.2290
    156  O          6.9330   24.0710   22.9370 O.2   166  PHE166     -0.2864
    157  CB         5.6260   25.8470   20.6790 C.3   166  PHE166      0.0560
    158  CG         6.2890   26.9880   21.3330 C.ar  166  PHE166     -0.0200
    159  CD1        7.5910   26.8720   21.7880 C.ar  166  PHE166     -0.0042
    160  CD2        5.6180   28.1770   21.5320 C.ar  166  PHE166     -0.0042
    161  CE1        8.1930   27.9270   22.4870 C.ar  166  PHE166     -0.0003
    162  CE2        6.2200   29.2060   22.2090 C.ar  166  PHE166     -0.0003
    163  CZ         7.5180   29.0680   22.7010 C.ar  166  PHE166     -0.0000
    164  N          6.3590   21.1150   23.9190 N.3   168  LEU168     -0.1245
    165  CA         6.4900   20.5480   25.2740 C.3   168  LEU168      0.1561
    166  C          5.4980   19.4680   25.6280 C.2   168  LEU168      0.2260
    167  O          5.8740   18.4820   26.2980 O.2   168  LEU168     -0.2867
    168  CB         6.5810   21.6380   26.3650 C.3   168  LEU168      0.0270
    169  CG         8.0940   21.8750   26.6020 C.3   168  LEU168      0.0019
    170  CD1        8.2750   23.2280   27.0870 C.3   168  LEU168      0.0001
    171  CD2        8.7390   20.8870   27.5920 C.3   168  LEU168      0.0001
@<TRIPOS>BOND
     1   157   158    1
     2   157   154    1
     3   158   160   ar
     4   158   159   ar
     5    57    55    1
     6   160   162   ar
     7   154   155    1
     8   154   153    1
     9   159   161   ar
    10   155   156    2
    11   162   163   ar
    12   161   163   ar
    13    53    52    2
    14    66    67    1
    15   153   147   am
    16    55    54    1
    17    55    56    1
    18    51    52    1
    19    51    54    1
    20    51    50    1
    21    69    68    2
    22   137   138    1
    23    52    58   am
    24   140   139    2
    25   148   147    2
    26   147   146    1
    27   135   134    2
    28   164   165    1
    29    68    67    1
    30    67    70    1
    31   114   113    1
    32    61    60    2
    33   139   138    1
    34   139   145   am
    35   132   133    1
    36   138   141    1
    37    58    59    1
    38    60    59    1
    39   134   133    1
    40   145   146    1
    41    70    72    1
    42    70    71    1
    43   146   149    1
    44    59    62    1
    45   165   166    1
    46   165   168    1
    47   133   136    1
    48   149   150    1
    49   166   167    2
    50   113   112    1
    51    97    95   ar
    52    97    98   ar
    53   141   142    1
    54    95    94   ar
    55    73    71    1
    56   142   144    1
    57   142   143    1
    58    98    96   ar
    59   168   169    1
    60   112   111    1
    61   126   127    2
    62   126   125    1
    63   169   170    1
    64   169   171    1
    65    65    63    1
    66    62    63    1
    67    94    96   ar
    68    94    93    1
    69   150   151   ar
    70   150   152   ar
    71    63    64    1
    72    44    43    2
    73   111   108    1
    74   125   128    1
    75   125   124    1
    76    93    90    1
    77    43    42    1
    78    41    42    1
    79   128   129    1
    80    42    45    1
    81   122   121    2
    82   130   129   ar
    83   108   109    1
    84   108   107    1
    85   124   121   am
    86   129   131   ar
    87   121   120    1
    88   110   109    2
    89    89    90    1
    90    89    84   am
    91    90    91    1
    92    46    45    1
    93    46    47    1
    94   109   115   am
    95    86    88    1
    96    86    83    1
    97    86    87    1
    98   107   101   am
    99    91    92    2
   100    91    99   am
   101   102   101    2
   102   123   120    1
   103    83    84    1
   104    83    82    1
   105   120   119    1
   106   101   100    1
   107   119   117   am
   108    84    85    2
   109    99   100    1
   110   115   116    1
   111    47    49   ar
   112    47    48   ar
   113   100   103    1
   114   116   117    1
   115   117   118    2
   116    17    15   ar
   117    17    18   ar
   118    19    18    1
   119    81    79    1
   120    15    13   ar
   121    40    39    1
   122    18    16   ar
   123   103   104    1
   124    80    79    1
   125    79    78    1
   126    78    75    1
   127    13    12    1
   128    13    14   ar
   129   104   105    1
   130   104   106    1
   131    39    38    1
   132    16    14   ar
   133    31    28    1
   134    12     9    1
   135    38    37    1
   136    27    28    1
   137    76    75    1
   138    76    77    2
   139    75    74    1
   140     9    10    1
   141     9     8    1
   142    30    29    2
   143    11    10    2
   144    28    29    1
   145    37    36    1
   146    36    33    1
   147    26    24    1
   148    25    24    1
   149    32    33    1
   150    24    21    1
   151     7     5    1
   152    33    34    1
   153    35    34    2
   154     5     6    1
   155     5     2    1
   156     4     3    2
   157    21    20    1
   158    21    22    1
   159     3     2    1
   160     2     1    1
   161    22    23    2
