@<TRIPOS>MOLECULE
tmp/3ritC00.pdb
 123 112 0 0 0
SMALL
GASTEIGER

@<TRIPOS>ATOM
      1  N        -89.6880   24.0160   -4.6900 N.3    15  LEU15      -0.1245
      2  CA       -90.7140   23.0120   -4.4840 C.3    15  LEU15       0.1561
      3  C        -91.9780   23.6490   -3.9190 C.2    15  LEU15       0.2260
      4  O        -91.9110   24.5170   -3.0550 O.2    15  LEU15      -0.2867
      5  CB       -90.2220   21.9290   -3.5250 C.3    15  LEU15       0.0270
      6  CG       -88.8810   21.2490   -3.8040 C.3    15  LEU15       0.0019
      7  CD1      -88.6730   20.0520   -2.8860 C.3    15  LEU15       0.0001
      8  CD2      -88.8120   20.8030   -5.2330 C.3    15  LEU15       0.0001
      9  N        -93.8590   21.8600   -2.1650 N.3    17  ARG17      -0.1245
     10  CA       -93.9470   21.1570   -0.8780 C.3    17  ARG17       0.1563
     11  C        -92.6090   20.6900   -0.3130 C.2    17  ARG17       0.2260
     12  O        -92.1740   19.5790   -0.6030 O.2    17  ARG17      -0.2867
     13  CB       -94.8910   19.9540   -0.9580 C.3    17  ARG17       0.0307
     14  CG       -95.0650   19.2630    0.3860 C.3    17  ARG17       0.0489
     15  CD       -95.3980   17.7880    0.2580 C.3    17  ARG17       0.2205
     16  NE       -96.6380   17.5250   -0.4760 N.pl3  17  ARG17      -0.0865
     17  CZ       -97.8510   17.5050    0.0760 C.cat  17  ARG17       0.5346
     18  NH1      -97.9990   17.7590    1.3770 N.pl3  17  ARG17       0.1354
     19  NH2      -98.9170   17.2390   -0.6770 N.pl3  17  ARG17       0.1354
     20  N        -89.7960   19.1630    2.2220 N.3    19  TYR19      -0.1241
     21  CA       -89.9040   17.9050    2.9520 C.3    19  TYR19       0.1605
     22  C        -88.5900   17.4940    3.6010 C.2    19  TYR19       0.2264
     23  O        -87.5280   18.0160    3.2640 O.2    19  TYR19      -0.2867
     24  CB       -90.4500   16.7820    2.0480 C.3    19  TYR19       0.0534
     25  CG       -89.5070   16.3360    0.9430 C.ar   19  TYR19      -0.0201
     26  CD1      -89.3230   17.1130   -0.2010 C.ar   19  TYR19      -0.0009
     27  CD2      -88.8050   15.1320    1.0370 C.ar   19  TYR19      -0.0009
     28  CE1      -88.4600   16.7120   -1.2180 C.ar   19  TYR19       0.0417
     29  CE2      -87.9400   14.7230    0.0260 C.ar   19  TYR19       0.0417
     30  CZ       -87.7740   15.5170   -1.1020 C.ar   19  TYR19       0.1957
     31  OH       -86.9240   15.1200   -2.1180 O.3    19  TYR19      -0.2866
     32  N        -94.1840   10.3580   -2.4600 N.3   135  THR135     -0.1218
     33  CA       -93.3900   10.3110   -1.2480 C.3   135  THR135      0.1862
     34  C        -93.9340   11.1630   -0.1130 C.2   135  THR135      0.2287
     35  O        -94.3020   12.3210   -0.3020 O.2   135  THR135     -0.2866
     36  CB       -91.9560   10.7210   -1.5540 C.3   135  THR135      0.1770
     37  OG1      -91.4540    9.8950   -2.6160 O.3   135  THR135     -0.2211
     38  CG2      -91.0950   10.5710   -0.3330 C.3   135  THR135      0.0375
     39  N        -94.9650    5.9620   -0.5690 N.3   160  LYS160     -0.1245
     40  CA       -93.6370    5.6570   -0.0630 C.3   160  LYS160      0.1561
     41  C        -93.3790    6.5360    1.1450 C.2   160  LYS160      0.2260
     42  O        -93.4090    7.7610    1.0430 O.2   160  LYS160     -0.2867
     43  CB       -92.5900    5.9090   -1.1470 C.3   160  LYS160      0.0271
     44  CG       -91.1560    5.8620   -0.6710 C.3   160  LYS160      0.0035
     45  CD       -90.2440    5.5740   -1.8370 C.3   160  LYS160      0.0206
     46  CE       -88.8840    6.1910   -1.6380 C.3   160  LYS160      0.1093
     47  NZ       -87.9340    5.6480   -2.6190 N.3   160  LYS160     -0.1314
     48  N        -91.0550    7.8310    4.3230 N.3   162  LYS162     -0.1245
     49  CA       -89.7130    7.9220    4.8600 C.3   162  LYS162      0.1561
     50  C        -89.6870    7.7180    6.3710 C.2   162  LYS162      0.2260
     51  O        -90.4790    8.3030    7.0970 O.2   162  LYS162     -0.2867
     52  CB       -89.0840    9.2420    4.4470 C.3   162  LYS162      0.0271
     53  CG       -89.0440    9.3790    2.9290 C.3   162  LYS162      0.0035
     54  CD       -87.9600   10.3130    2.4460 C.3   162  LYS162      0.0206
     55  CE       -87.5360    9.9780    1.0170 C.3   162  LYS162      0.1093
     56  NZ       -86.6670    8.7730    0.9710 N.3   162  LYS162     -0.1314
     57  N        -88.9750    3.5980    3.4950 N.3   190  ASP190     -0.1239
     58  CA       -87.6010    3.9770    3.1670 C.3   190  ASP190      0.1674
     59  C        -86.8870    4.6030    4.3810 C.2   190  ASP190      0.2266
     60  O        -86.9430    5.8180    4.5790 O.2   190  ASP190     -0.2867
     61  CB       -87.5910    4.9420    1.9770 C.3   190  ASP190      0.1410
     62  CG       -86.1820    5.3070    1.5200 C.2   190  ASP190      0.3668
     63  OD1      -85.2120    4.9130    2.2040 O.co2 190  ASP190     -0.2456
     64  OD2      -86.0470    6.0020    0.4810 O.co2 190  ASP190     -0.2456
     65  N        -81.5370    4.5380  -10.4890 N.3   266  LYS266     -0.1245
     66  CA       -81.7240    5.9460  -10.7990 C.3   266  LYS266      0.1561
     67  C        -80.6840    6.4030  -11.8090 C.2   266  LYS266      0.2260
     68  O        -79.4770    6.2700  -11.5880 O.2   266  LYS266     -0.2867
     69  CB       -81.6280    6.8180   -9.5470 C.3   266  LYS266      0.0271
     70  CG       -82.5790    6.4500   -8.4160 C.3   266  LYS266      0.0035
     71  CD       -82.3930    7.4130   -7.2290 C.3   266  LYS266      0.0206
     72  CE       -83.0280    6.8930   -5.9430 C.3   266  LYS266      0.1093
     73  NZ       -82.8690    7.8610   -4.8160 N.3   266  LYS266     -0.1314
     74  N        -85.9730    8.1150   -8.4200 N.3   294  CYS294     -0.1221
     75  CA       -85.5220    9.4170   -8.8980 C.3   294  CYS294      0.1808
     76  C        -85.0590   10.3680   -7.8080 C.2   294  CYS294      0.2601
     77  O        -85.1420   10.0880   -6.6110 O.2   294  CYS294     -0.2717
     78  CB       -86.6380   10.1080   -9.6860 C.3   294  CYS294      0.0970
     79  SG       -88.1480   10.3940   -8.7130 S.3   294  CYS294     -0.0800
     80  N        -84.5760   11.5100   -8.2730 N.am  295  MET295     -0.1965
     81  CA       -84.1920   12.6320   -7.4490 C.3   295  MET295      0.1736
     82  C        -85.3350   13.6220   -7.6450 C.2   295  MET295      0.2616
     83  O        -86.3060   13.2900   -8.3240 O.2   295  MET295     -0.2715
     84  CB       -82.8650   13.1930   -7.9760 C.3   295  MET295      0.0427
     85  CG       -81.6420   12.8400   -7.1280 C.3   295  MET295      0.0599
     86  SD       -81.2630   11.0800   -6.9530 S.3   295  MET295     -0.1393
     87  CE       -81.3590   10.8690   -5.1770 C.3   295  MET295      0.0692
     88  N        -85.2580   14.8190   -7.0650 N.am  296  ASP296     -0.1971
     89  CA       -86.1560   15.8870   -7.5090 C.3   296  ASP296      0.1709
     90  C        -85.6970   16.3240   -8.9010 C.2   296  ASP296      0.2293
     91  O        -84.5620   16.7560   -9.0700 O.2   296  ASP296     -0.2864
     92  CB       -86.1170   17.0660   -6.5500 C.3   296  ASP296      0.1436
     93  CG       -86.7090   16.7370   -5.2080 C.2   296  ASP296      0.3671
     94  OD1      -87.9410   16.9010   -5.0520 O.co2 296  ASP296     -0.2456
     95  OD2      -85.9470   16.3170   -4.3080 O.co2 296  ASP296     -0.2456
     96  N        -90.9490    4.4430   -8.6260 N.3   319  ASP319     -0.1239
     97  CA       -91.0930    5.5930   -7.7550 C.3   319  ASP319      0.1674
     98  C        -90.6440    6.8220   -8.5460 C.2   319  ASP319      0.2266
     99  O        -89.5650    7.3780   -8.3410 O.2   319  ASP319     -0.2867
    100  CB       -90.2140    5.3580   -6.5250 C.3   319  ASP319      0.1410
    101  CG       -90.2180    6.5210   -5.5520 C.2   319  ASP319      0.3668
    102  OD1      -91.3090    7.0610   -5.2250 O.co2 319  ASP319     -0.2456
    103  OD2      -89.1100    6.8850   -5.0990 O.co2 319  ASP319     -0.2456
    104  N        -92.0630   10.0740   -8.8170 N.3   321  ASP321     -0.1225
    105  CA       -92.7580   11.3000   -8.4300 C.3   321  ASP321      0.1805
    106  C        -91.8990   12.5680   -8.4000 C.2   321  ASP321      0.2598
    107  O        -92.3850   13.6450   -8.0470 O.2   321  ASP321     -0.2718
    108  CB       -93.4330   11.1010   -7.0690 C.3   321  ASP321      0.1424
    109  CG       -92.4310   10.9510   -5.9280 C.2   321  ASP321      0.3668
    110  OD1      -91.3500   10.3640   -6.1370 O.co2 321  ASP321     -0.2456
    111  OD2      -92.7370   11.4330   -4.8170 O.co2 321  ASP321     -0.2456
    112  N        -90.6310   12.4460   -8.7690 N.am  322  GLY322     -0.1957
    113  CA       -89.6900   13.5450   -8.6340 C.3   322  GLY322      0.1869
    114  C        -90.0240   14.9030   -9.2350 C.2   322  GLY322      0.2309
    115  O        -89.4650   15.9090   -8.8060 O.2   322  GLY322     -0.2863
    116  N        -93.8570   17.9050   -7.4780 N.3   325  ASP325     -0.1239
    117  CA       -93.8830   18.9830   -6.4950 C.3   325  ASP325      0.1674
    118  C        -93.0530   20.1800   -6.9510 C.2   325  ASP325      0.2266
    119  O        -92.7830   21.0980   -6.1820 O.2   325  ASP325     -0.2867
    120  CB       -93.4680   18.4850   -5.0970 C.3   325  ASP325      0.1410
    121  CG       -94.4600   17.4500   -4.5160 C.2   325  ASP325      0.3668
    122  OD1      -95.5720   17.3200   -5.0860 O.co2 325  ASP325     -0.2456
    123  OD2      -94.1340   16.7760   -3.4950 O.co2 325  ASP325     -0.2456
@<TRIPOS>BOND
     1    67    68    2
     2    67    66    1
     3    66    65    1
     4    66    69    1
     5    78    75    1
     6    78    79    1
     7    69    70    1
     8   114   115    2
     9   114   113    1
    10    91    90    2
    11    90    89    1
    12    75    74    1
    13    75    76    1
    14   104   105    1
    15   112   113    1
    16   112   106   am
    17    96    97    1
    18    98    99    2
    19    98    97    1
    20   105   106    1
    21   105   108    1
    22    70    71    1
    23   106   107    2
    24    83    82    2
    25    80    76   am
    26    80    81    1
    27    84    81    1
    28    84    85    1
    29    76    77    2
    30    97   100    1
    31    82    81    1
    32    82    88   am
    33    89    88    1
    34    89    92    1
    35   116   117    1
    36    71    72    1
    37    85    86    1
    38   108   109    1
    39    86    87    1
    40   118   117    1
    41   118   119    2
    42    92    93    1
    43   100   101    1
    44   117   120    1
    45   110   109   ar
    46    72    73    1
    47   109   111   ar
    48   101   102   ar
    49   101   103   ar
    50     8     6    1
    51    93    94   ar
    52    93    95   ar
    53   120   121    1
    54   122   121   ar
    55     1     2    1
    56   121   123   ar
    57     2     3    1
    58     2     5    1
    59     3     4    2
    60     6     5    1
    61     6     7    1
    62    47    46    1
    63    37    36    1
    64    32    33    1
    65     9    10    1
    66    31    30    1
    67    45    46    1
    68    45    44    1
    69    36    33    1
    70    36    38    1
    71    33    34    1
    72    28    30   ar
    73    28    26   ar
    74    43    44    1
    75    43    40    1
    76    30    29   ar
    77    13    10    1
    78    13    14    1
    79    10    11    1
    80    19    17    1
    81    12    11    2
    82    39    40    1
    83    16    17    2
    84    16    15    1
    85    35    34    2
    86    26    25   ar
    87    40    41    1
    88    29    27   ar
    89    17    18    1
    90    15    14    1
    91    64    62   ar
    92    25    27   ar
    93    25    24    1
    94    56    55    1
    95    55    54    1
    96    42    41    2
    97    62    61    1
    98    62    63   ar
    99    61    58    1
   100    24    21    1
   101    20    21    1
   102    54    53    1
   103    53    52    1
   104    21    22    1
   105    58    57    1
   106    58    59    1
   107    23    22    2
   108    48    49    1
   109    59    60    2
   110    52    49    1
   111    49    50    1
   112    50    51    2
