@<TRIPOS>MOLECULE
tmp/3ritC01.pdb
 169 153 0 0 0
SMALL
GASTEIGER

@<TRIPOS>ATOM
      1  N        -89.7960   19.1630    2.2220 N.3    19  TYR19      -0.1241
      2  CA       -89.9040   17.9050    2.9520 C.3    19  TYR19       0.1605
      3  C        -88.5900   17.4940    3.6010 C.2    19  TYR19       0.2264
      4  O        -87.5280   18.0160    3.2640 O.2    19  TYR19      -0.2867
      5  CB       -90.4500   16.7820    2.0480 C.3    19  TYR19       0.0534
      6  CG       -89.5070   16.3360    0.9430 C.ar   19  TYR19      -0.0201
      7  CD1      -89.3230   17.1130   -0.2010 C.ar   19  TYR19      -0.0009
      8  CD2      -88.8050   15.1320    1.0370 C.ar   19  TYR19      -0.0009
      9  CE1      -88.4600   16.7120   -1.2180 C.ar   19  TYR19       0.0417
     10  CE2      -87.9400   14.7230    0.0260 C.ar   19  TYR19       0.0417
     11  CZ       -87.7740   15.5170   -1.1020 C.ar   19  TYR19       0.1957
     12  OH       -86.9240   15.1200   -2.1180 O.3    19  TYR19      -0.2866
     13  N        -85.7990   14.4870    4.8020 N.3    21  ILE21      -0.1245
     14  CA       -85.2620   13.1320    4.6510 C.3    21  ILE21       0.1561
     15  C        -84.2760   12.8960    5.7820 C.2    21  ILE21       0.2260
     16  O        -83.8810   13.8540    6.4460 O.2    21  ILE21      -0.2867
     17  CB       -84.5500   12.9120    3.3080 C.3    21  ILE21       0.0252
     18  CG1      -83.9500   14.2190    2.8010 C.3    21  ILE21       0.0019
     19  CG2      -85.5050   12.3390    2.2820 C.3    21  ILE21       0.0019
     20  CD1      -82.8450   13.9990    1.7910 C.3    21  ILE21       0.0001
     21  N        -81.2830   15.4630    6.7700 N.3    24  ARG24      -0.1245
     22  CA       -81.3410   16.3810    5.6170 C.3    24  ARG24       0.1563
     23  C        -82.6130   17.2670    5.6400 C.2    24  ARG24       0.2260
     24  O        -83.3520   17.3000    6.6230 O.2    24  ARG24      -0.2867
     25  CB       -81.2610   15.6280    4.2810 C.3    24  ARG24       0.0307
     26  CG       -79.9090   14.9670    3.9450 C.3    24  ARG24       0.0489
     27  CD       -79.1900   15.6170    2.7510 C.3    24  ARG24       0.2205
     28  NE       -79.7470   15.2140    1.4590 N.pl3  24  ARG24      -0.0865
     29  CZ       -79.9970   16.0530    0.4540 C.cat  24  ARG24       0.5346
     30  NH1      -79.7360   17.3510    0.5880 N.pl3  24  ARG24       0.1354
     31  NH2      -80.5130   15.5990   -0.6860 N.pl3  24  ARG24       0.1354
     32  N        -85.1740   19.6030    2.2730 N.3    26  ILE26      -0.1245
     33  CA       -85.1530   20.1430    0.9010 C.3    26  ILE26       0.1561
     34  C        -86.2870   21.1430    0.6040 C.2    26  ILE26       0.2260
     35  O        -87.4610   20.7550    0.6140 O.2    26  ILE26      -0.2867
     36  CB       -85.2020   18.9710   -0.1210 C.3    26  ILE26       0.0252
     37  CG1      -84.2230   17.8670    0.3030 C.3    26  ILE26       0.0019
     38  CG2      -84.9210   19.4500   -1.5450 C.3    26  ILE26       0.0019
     39  CD1      -84.3170   16.5790   -0.4880 C.3    26  ILE26       0.0001
     40  N        -76.5880   14.1570   -7.1720 N.3    51  GLU51      -0.1245
     41  CA       -76.8230   13.9090   -5.7570 C.3    51  GLU51       0.1567
     42  C        -75.4850   13.6080   -5.0860 C.2    51  GLU51       0.2260
     43  O        -74.9650   12.4960   -5.2000 O.2    51  GLU51      -0.2867
     44  CB       -77.7830   12.7190   -5.6190 C.3    51  GLU51       0.0388
     45  CG       -78.2360   12.4020   -4.2060 C.3    51  GLU51       0.1160
     46  CD       -78.7170   13.6380   -3.4540 C.2    51  GLU51       0.3649
     47  OE1      -79.8610   14.0930   -3.7220 O.co2  51  GLU51      -0.2457
     48  OE2      -77.9400   14.1550   -2.6030 O.co2  51  GLU51      -0.2457
     49  N        -74.6200   10.7510   -2.4290 N.3    54  VAL54      -0.1245
     50  CA       -74.7310    9.4070   -2.9790 C.3    54  VAL54       0.1561
     51  C        -73.6190    9.0960   -3.9770 C.2    54  VAL54       0.2260
     52  O        -72.8990    8.1220   -3.8150 O.2    54  VAL54      -0.2867
     53  CB       -76.0890    9.1540   -3.6390 C.3    54  VAL54       0.0252
     54  CG1      -76.1070    7.7730   -4.2440 C.3    54  VAL54       0.0019
     55  CG2      -77.2050    9.3180   -2.6310 C.3    54  VAL54       0.0019
     56  N        -94.1840   10.3580   -2.4600 N.3   135  THR135     -0.1218
     57  CA       -93.3900   10.3110   -1.2480 C.3   135  THR135      0.1862
     58  C        -93.9340   11.1630   -0.1130 C.2   135  THR135      0.2287
     59  O        -94.3020   12.3210   -0.3020 O.2   135  THR135     -0.2866
     60  CB       -91.9560   10.7210   -1.5540 C.3   135  THR135      0.1770
     61  OG1      -91.4540    9.8950   -2.6160 O.3   135  THR135     -0.2211
     62  CG2      -91.0950   10.5710   -0.3330 C.3   135  THR135      0.0375
     63  N        -94.9650    5.9620   -0.5690 N.3   160  LYS160     -0.1245
     64  CA       -93.6370    5.6570   -0.0630 C.3   160  LYS160      0.1561
     65  C        -93.3790    6.5360    1.1450 C.2   160  LYS160      0.2260
     66  O        -93.4090    7.7610    1.0430 O.2   160  LYS160     -0.2867
     67  CB       -92.5900    5.9090   -1.1470 C.3   160  LYS160      0.0271
     68  CG       -91.1560    5.8620   -0.6710 C.3   160  LYS160      0.0035
     69  CD       -90.2440    5.5740   -1.8370 C.3   160  LYS160      0.0206
     70  CE       -88.8840    6.1910   -1.6380 C.3   160  LYS160      0.1093
     71  NZ       -87.9340    5.6480   -2.6190 N.3   160  LYS160     -0.1314
     72  N        -91.0550    7.8310    4.3230 N.3   162  LYS162     -0.1245
     73  CA       -89.7130    7.9220    4.8600 C.3   162  LYS162      0.1561
     74  C        -89.6870    7.7180    6.3710 C.2   162  LYS162      0.2260
     75  O        -90.4790    8.3030    7.0970 O.2   162  LYS162     -0.2867
     76  CB       -89.0840    9.2420    4.4470 C.3   162  LYS162      0.0271
     77  CG       -89.0440    9.3790    2.9290 C.3   162  LYS162      0.0035
     78  CD       -87.9600   10.3130    2.4460 C.3   162  LYS162      0.0206
     79  CE       -87.5360    9.9780    1.0170 C.3   162  LYS162      0.1093
     80  NZ       -86.6670    8.7730    0.9710 N.3   162  LYS162     -0.1314
     81  N        -88.9750    3.5980    3.4950 N.3   190  ASP190     -0.1239
     82  CA       -87.6010    3.9770    3.1670 C.3   190  ASP190      0.1674
     83  C        -86.8870    4.6030    4.3810 C.2   190  ASP190      0.2266
     84  O        -86.9430    5.8180    4.5790 O.2   190  ASP190     -0.2867
     85  CB       -87.5910    4.9420    1.9770 C.3   190  ASP190      0.1410
     86  CG       -86.1820    5.3070    1.5200 C.2   190  ASP190      0.3668
     87  OD1      -85.2120    4.9130    2.2040 O.co2 190  ASP190     -0.2456
     88  OD2      -86.0470    6.0020    0.4810 O.co2 190  ASP190     -0.2456
     89  N        -83.8240    4.7950    4.7960 N.3   192  ASN192     -0.1240
     90  CA       -82.6540    5.5030    4.3130 C.3   192  ASN192      0.1653
     91  C        -81.4100    5.3640    5.1970 C.2   192  ASN192      0.2266
     92  O        -80.8770    6.3670    5.6760 O.2   192  ASN192     -0.2867
     93  CB       -83.0070    6.9700    4.2190 C.3   192  ASN192      0.1155
     94  CG       -82.3940    7.6200    3.0390 C.2   192  ASN192      0.2627
     95  OD1      -81.1690    7.8160    2.9920 O.2   192  ASN192     -0.2716
     96  ND2      -83.2320    7.9600    2.0500 N.am  192  ASN192     -0.0877
     97  N        -86.7940   -0.1930    1.8760 N.3   216  GLU216     -0.1245
     98  CA       -85.7480    0.3180    1.0060 C.3   216  GLU216      0.1567
     99  C        -84.4990    0.7920    1.7680 C.2   216  GLU216      0.2260
    100  O        -84.5680    1.7240    2.5740 O.2   216  GLU216     -0.2867
    101  CB       -86.3180    1.4320    0.1510 C.3   216  GLU216      0.0388
    102  CG       -85.4150    1.8650   -0.9500 C.3   216  GLU216      0.1160
    103  CD       -86.0100    3.0140   -1.7300 C.2   216  GLU216      0.3649
    104  OE1      -87.2590    3.1170   -1.7450 O.co2 216  GLU216     -0.2457
    105  OE2      -85.2360    3.8200   -2.3040 O.co2 216  GLU216     -0.2457
    106  N        -80.7380    0.8860   -2.5800 N.3   241  ASP241     -0.1225
    107  CA       -80.7440    2.1590   -3.2890 C.3   241  ASP241      0.1805
    108  C        -79.3500    2.7640   -3.2730 C.2   241  ASP241      0.2597
    109  O        -78.6180    2.6460   -4.2530 O.2   241  ASP241     -0.2718
    110  CB       -81.7670    3.1040   -2.6630 C.3   241  ASP241      0.1424
    111  CG       -81.8450    4.4500   -3.3580 C.2   241  ASP241      0.3668
    112  OD1      -80.9940    4.7560   -4.2040 O.co2 241  ASP241     -0.2456
    113  OD2      -82.7680    5.2190   -3.0340 O.co2 241  ASP241     -0.2456
    114  N        -78.9680    3.3520   -2.1400 N.am  242  GLU242     -0.1979
    115  CA       -77.6580    3.9870   -1.9990 C.3   242  GLU242      0.1602
    116  C        -76.4950    3.0000   -2.1230 C.2   242  GLU242      0.2287
    117  O        -75.3620    3.4030   -2.3720 O.2   242  GLU242     -0.2864
    118  CB       -77.5580    4.7440   -0.6760 C.3   242  GLU242      0.0415
    119  CG       -78.3810    6.0420   -0.6170 C.3   242  GLU242      0.1163
    120  CD       -79.7620    5.8530    0.0310 C.2   242  GLU242      0.3649
    121  OE1      -80.5230    4.9630   -0.3980 O.co2 242  GLU242     -0.2457
    122  OE2      -80.0810    6.5840    0.9910 O.co2 242  GLU242     -0.2457
    123  N        -83.1060   -0.4510   -6.8170 N.3   264  ASN264     -0.1240
    124  CA       -83.6820    0.8260   -7.1930 C.3   264  ASN264      0.1653
    125  C        -82.7070    1.5430   -8.1230 C.2   264  ASN264      0.2266
    126  O        -81.6800    2.0760   -7.6810 O.2   264  ASN264     -0.2867
    127  CB       -84.0000    1.6470   -5.9380 C.3   264  ASN264      0.1155
    128  CG       -84.5440    3.0350   -6.2510 C.2   264  ASN264      0.2627
    129  OD1      -84.6110    3.4440   -7.4010 O.2   264  ASN264     -0.2716
    130  ND2      -84.9380    3.7620   -5.2160 N.am  264  ASN264     -0.0877
    131  N        -81.5370    4.5380  -10.4890 N.3   266  LYS266     -0.1245
    132  CA       -81.7240    5.9460  -10.7990 C.3   266  LYS266      0.1561
    133  C        -80.6840    6.4030  -11.8090 C.2   266  LYS266      0.2260
    134  O        -79.4770    6.2700  -11.5880 O.2   266  LYS266     -0.2867
    135  CB       -81.6280    6.8180   -9.5470 C.3   266  LYS266      0.0271
    136  CG       -82.5790    6.4500   -8.4160 C.3   266  LYS266      0.0035
    137  CD       -82.3930    7.4130   -7.2290 C.3   266  LYS266      0.0206
    138  CE       -83.0280    6.8930   -5.9430 C.3   266  LYS266      0.1093
    139  NZ       -82.8690    7.8610   -4.8160 N.3   266  LYS266     -0.1314
    140  N        -85.9730    8.1150   -8.4200 N.3   294  CYS294     -0.1221
    141  CA       -85.5220    9.4170   -8.8980 C.3   294  CYS294      0.1808
    142  C        -85.0590   10.3680   -7.8080 C.2   294  CYS294      0.2601
    143  O        -85.1420   10.0880   -6.6110 O.2   294  CYS294     -0.2717
    144  CB       -86.6380   10.1080   -9.6860 C.3   294  CYS294      0.0970
    145  SG       -88.1480   10.3940   -8.7130 S.3   294  CYS294     -0.0800
    146  N        -84.5760   11.5100   -8.2730 N.am  295  MET295     -0.1965
    147  CA       -84.1920   12.6320   -7.4490 C.3   295  MET295      0.1736
    148  C        -85.3350   13.6220   -7.6450 C.2   295  MET295      0.2616
    149  O        -86.3060   13.2900   -8.3240 O.2   295  MET295     -0.2715
    150  CB       -82.8650   13.1930   -7.9760 C.3   295  MET295      0.0427
    151  CG       -81.6420   12.8400   -7.1280 C.3   295  MET295      0.0599
    152  SD       -81.2630   11.0800   -6.9530 S.3   295  MET295     -0.1393
    153  CE       -81.3590   10.8690   -5.1770 C.3   295  MET295      0.0692
    154  N        -85.2580   14.8190   -7.0650 N.am  296  ASP296     -0.1971
    155  CA       -86.1560   15.8870   -7.5090 C.3   296  ASP296      0.1709
    156  C        -85.6970   16.3240   -8.9010 C.2   296  ASP296      0.2293
    157  O        -84.5620   16.7560   -9.0700 O.2   296  ASP296     -0.2864
    158  CB       -86.1170   17.0660   -6.5500 C.3   296  ASP296      0.1436
    159  CG       -86.7090   16.7370   -5.2080 C.2   296  ASP296      0.3671
    160  OD1      -87.9410   16.9010   -5.0520 O.co2 296  ASP296     -0.2456
    161  OD2      -85.9470   16.3170   -4.3080 O.co2 296  ASP296     -0.2456
    162  N        -90.9490    4.4430   -8.6260 N.3   319  ASP319     -0.1239
    163  CA       -91.0930    5.5930   -7.7550 C.3   319  ASP319      0.1674
    164  C        -90.6440    6.8220   -8.5460 C.2   319  ASP319      0.2266
    165  O        -89.5650    7.3780   -8.3410 O.2   319  ASP319     -0.2867
    166  CB       -90.2140    5.3580   -6.5250 C.3   319  ASP319      0.1410
    167  CG       -90.2180    6.5210   -5.5520 C.2   319  ASP319      0.3668
    168  OD1      -91.3090    7.0610   -5.2250 O.co2 319  ASP319     -0.2456
    169  OD2      -89.1100    6.8850   -5.0990 O.co2 319  ASP319     -0.2456
@<TRIPOS>BOND
     1   133   134    2
     2   133   132    1
     3   132   131    1
     4   132   135    1
     5   144   141    1
     6   144   145    1
     7   135   136    1
     8   157   156    2
     9   156   155    1
    10   141   140    1
    11   141   142    1
    12   162   163    1
    13   164   165    2
    14   164   163    1
    15   136   137    1
    16   149   148    2
    17   146   142   am
    18   146   147    1
    19   125   126    2
    20   125   124    1
    21   150   147    1
    22   150   151    1
    23   142   143    2
    24   163   166    1
    25   148   147    1
    26   148   154   am
    27   155   154    1
    28   155   158    1
    29   129   128    2
    30   137   138    1
    31   124   123    1
    32   124   127    1
    33    40    41    1
    34   151   152    1
    35   152   153    1
    36   158   159    1
    37   166   167    1
    38   128   127    1
    39   128   130   am
    40   138   139    1
    41    41    44    1
    42    41    42    1
    43    44    45    1
    44   167   168   ar
    45   167   169   ar
    46   159   160   ar
    47   159   161   ar
    48    43    42    2
    49   109   108    2
    50    54    53    1
    51    45    46    1
    52   112   111   ar
    53    51    52    2
    54    51    50    1
    55    47    46   ar
    56    53    50    1
    57    53    55    1
    58    46    48   ar
    59   111   113   ar
    60   111   110    1
    61   107   108    1
    62   107   110    1
    63   107   106    1
    64   108   114   am
    65    50    49    1
    66    71    70    1
    67    61    60    1
    68    56    57    1
    69   117   116    2
    70   105   103   ar
    71   114   115    1
    72   116   115    1
    73    12    11    1
    74   115   118    1
    75    69    70    1
    76    69    68    1
    77   104   103   ar
    78   103   102    1
    79    60    57    1
    80    60    62    1
    81    38    36    1
    82    57    58    1
    83     9    11   ar
    84     9     7   ar
    85    67    68    1
    86    67    64    1
    87    11    10   ar
    88   102   101    1
    89    31    29    1
    90   118   119    1
    91   119   120    1
    92    63    64    1
    93    39    37    1
    94   121   120   ar
    95    59    58    2
    96     7     6   ar
    97    36    37    1
    98    36    33    1
    99    64    65    1
   100    10     8   ar
   101   120   122   ar
   102   101    98    1
   103    29    30    1
   104    29    28    2
   105    88    86   ar
   106    34    35    2
   107    34    33    1
   108    33    32    1
   109     6     8   ar
   110     6     5    1
   111    80    79    1
   112    98    99    1
   113    98    97    1
   114    79    78    1
   115    66    65    2
   116    28    27    1
   117    86    85    1
   118    86    87   ar
   119    99   100    2
   120    20    18    1
   121    85    82    1
   122     5     2    1
   123    96    94   am
   124     1     2    1
   125    19    17    1
   126    78    77    1
   127    27    26    1
   128    18    17    1
   129    77    76    1
   130     2     3    1
   131    95    94    2
   132    94    93    1
   133    82    81    1
   134    82    83    1
   135     4     3    2
   136    17    14    1
   137    26    25    1
   138    93    90    1
   139    25    22    1
   140    90    89    1
   141    90    91    1
   142    72    73    1
   143    83    84    2
   144    76    73    1
   145    14    13    1
   146    14    15    1
   147    73    74    1
   148    91    92    2
   149    22    23    1
   150    22    21    1
   151    23    24    2
   152    15    16    2
   153    74    75    2
