@<TRIPOS>MOLECULE
tmp/3rjaA03.pdb
 81 79 0 0 0
SMALL
GASTEIGER

@<TRIPOS>ATOM
      1  N        -26.0930  -20.5490   -8.6260 N.3    13  PRO13      -0.2102
      2  CA       -25.5210  -21.7630   -9.2470 C.3    13  PRO13       0.1504
      3  C        -25.9700  -23.0210   -8.5040 C.2    13  PRO13       0.2576
      4  O        -26.1280  -23.0160   -7.2740 O.2    13  PRO13      -0.2718
      5  CB       -24.0110  -21.5550   -9.1350 C.3    13  PRO13       0.0282
      6  CG       -23.8360  -20.0620   -8.8830 C.3    13  PRO13       0.0208
      7  CD       -25.0520  -19.6250   -8.1380 C.3    13  PRO13       0.0893
      8  N        -26.2640  -24.0660   -9.2700 N.am   14  ILE14      -0.1966
      9  CA       -26.7250  -25.3050   -8.6960 C.3    14  ILE14       0.1727
     10  C        -25.8200  -26.4250   -9.1690 C.2    14  ILE14       0.2616
     11  O        -25.2480  -26.3190  -10.2280 O.2    14  ILE14      -0.2715
     12  CB       -28.2130  -25.5800   -9.0100 C.3    14  ILE14       0.0290
     13  CG1      -28.4910  -25.5900  -10.5180 C.3    14  ILE14       0.0022
     14  CG2      -29.1100  -24.5560   -8.2750 C.3    14  ILE14       0.0023
     15  CD1      -29.8560  -26.1750  -10.8970 C.3    14  ILE14       0.0001
     16  N        -25.6600  -27.4810   -8.3740 N.am   15  ASP15      -0.1957
     17  CA       -24.8910  -28.6260   -8.8390 C.3    15  ASP15       0.1840
     18  C        -25.8030  -29.5330   -9.6780 C.2    15  ASP15       0.2621
     19  O        -26.9940  -29.6390   -9.4250 O.2    15  ASP15      -0.2715
     20  CB       -24.2690  -29.4290   -7.6770 C.3    15  ASP15       0.1450
     21  CG       -23.1000  -28.7260   -7.0080 C.2    15  ASP15       0.3671
     22  OD1      -22.4690  -27.8090   -7.5860 O.co2  15  ASP15      -0.2456
     23  OD2      -22.7870  -29.1190   -5.8580 O.co2  15  ASP15      -0.2456
     24  N        -25.2130  -30.1750  -10.6730 N.am   16  ILE16      -0.1977
     25  CA       -25.9270  -31.0640  -11.5870 C.3    16  ILE16       0.1596
     26  C        -25.5630  -32.4920  -11.2270 C.2    16  ILE16       0.2287
     27  O        -24.3980  -32.8620  -11.3450 O.2    16  ILE16      -0.2864
     28  CB       -25.5080  -30.8100  -13.0680 C.3    16  ILE16       0.0276
     29  CG1      -25.9590  -29.4250  -13.5230 C.3    16  ILE16       0.0022
     30  CG2      -26.0730  -31.8980  -14.0030 C.3    16  ILE16       0.0022
     31  CD1      -27.3040  -29.0380  -12.9840 C.3    16  ILE16       0.0001
     32  N        -22.0950  -34.7400  -12.2770 N.3    19  THR19      -0.1203
     33  CA       -20.9140  -33.9450  -12.6250 C.3    19  THR19       0.1994
     34  C        -19.8950  -33.9550  -11.4690 C.2    19  THR19       0.2618
     35  O        -20.2560  -34.2400  -10.3070 O.2    19  THR19      -0.2717
     36  CB       -21.2780  -32.4910  -12.9670 C.3    19  THR19       0.1784
     37  OG1      -21.7920  -31.8260  -11.8080 O.3    19  THR19      -0.2211
     38  CG2      -22.3080  -32.4140  -14.0840 C.3    19  THR19       0.0376
     39  N        -18.6470  -33.6150  -11.7850 N.am   20  ALA20      -0.1965
     40  CA       -17.5850  -33.5440  -10.7840 C.3    20  ALA20       0.1728
     41  C        -17.9970  -32.7000   -9.5780 C.2    20  ALA20       0.2616
     42  O        -17.8990  -33.1790   -8.4540 O.2    20  ALA20      -0.2715
     43  CB       -16.2700  -33.0090  -11.3940 C.3    20  ALA20       0.0334
     44  N        -18.4520  -31.4660   -9.8130 N.am   21  ASP21      -0.1957
     45  CA       -18.8380  -30.5850   -8.7170 C.3    21  ASP21       0.1840
     46  C        -19.8810  -31.2360   -7.8100 C.2    21  ASP21       0.2622
     47  O        -19.7480  -31.1780   -6.6010 O.2    21  ASP21      -0.2715
     48  CB       -19.3250  -29.2290   -9.2300 C.3    21  ASP21       0.1450
     49  CG       -18.1690  -28.2760   -9.5350 C.2    21  ASP21       0.3671
     50  OD1      -17.8230  -27.4480   -8.6610 O.co2  21  ASP21      -0.2456
     51  OD2      -17.5870  -28.3660  -10.6360 O.co2  21  ASP21      -0.2456
     52  N        -20.8890  -31.8790   -8.4070 N.am   22  TYR22      -0.1974
     53  CA       -21.9380  -32.5210   -7.6070 C.3    22  TYR22       0.1639
     54  C        -21.3450  -33.6520   -6.7550 C.2    22  TYR22       0.2290
     55  O        -21.5340  -33.6660   -5.5390 O.2    22  TYR22      -0.2864
     56  CB       -23.0920  -33.0360   -8.4840 C.3    22  TYR22       0.0560
     57  CG       -24.1950  -33.7140   -7.6960 C.ar   22  TYR22      -0.0198
     58  CD1      -24.1280  -35.0660   -7.3880 C.ar   22  TYR22      -0.0009
     59  CD2      -25.3020  -32.9970   -7.2640 C.ar   22  TYR22      -0.0009
     60  CE1      -25.1480  -35.6900   -6.6610 C.ar   22  TYR22       0.0417
     61  CE2      -26.3010  -33.5940   -6.5330 C.ar   22  TYR22       0.0417
     62  CZ       -26.2230  -34.9410   -6.2310 C.ar   22  TYR22       0.1957
     63  OH       -27.2540  -35.5340   -5.5160 O.3    22  TYR22      -0.2866
     64  N        -24.6430  -23.9850   -4.9250 N.3    42  GLN42      -0.1245
     65  CA       -23.2140  -23.7490   -4.7150 C.3    42  GLN42       0.1566
     66  C        -23.0060  -22.2260   -4.7720 C.2    42  GLN42       0.2260
     67  O        -22.7690  -21.6560   -5.8570 O.2    42  GLN42      -0.2867
     68  CB       -22.3940  -24.4580   -5.7880 C.3    42  GLN42       0.0367
     69  CG       -20.8900  -24.5350   -5.4810 C.3    42  GLN42       0.0905
     70  CD       -20.0760  -25.0110   -6.6730 C.2    42  GLN42       0.2608
     71  OE1      -19.7290  -26.2070   -6.7840 O.2    42  GLN42      -0.2717
     72  NE2      -19.7620  -24.0940   -7.5620 N.am   42  GLN42      -0.0878
     73  N        -21.9850  -18.1950   -4.3360 N.3    44  GLN44      -0.1245
     74  CA       -20.7990  -17.3630   -4.5080 C.3    44  GLN44       0.1566
     75  C        -20.8880  -16.0550   -3.7090 C.2    44  GLN44       0.2260
     76  O        -19.8690  -15.4410   -3.3910 O.2    44  GLN44      -0.2867
     77  CB       -20.5730  -17.0530   -6.0140 C.3    44  GLN44       0.0367
     78  CG       -20.1490  -18.2780   -6.8310 C.3    44  GLN44       0.0905
     79  CD       -18.7040  -18.7500   -6.5280 C.2    44  GLN44       0.2608
     80  OE1      -17.8810  -17.9830   -6.0100 O.2    44  GLN44      -0.2717
     81  NE2      -18.4050  -20.0120   -6.8390 N.am   44  GLN44      -0.0878
@<TRIPOS>BOND
     1    38    36    1
     2    30    28    1
     3    29    28    1
     4    29    31    1
     5    28    25    1
     6    36    33    1
     7    36    37    1
     8    33    32    1
     9    33    34    1
    10    39    34   am
    11    39    40    1
    12    25    26    1
    13    25    24    1
    14    34    35    2
    15    43    40    1
    16    27    26    2
    17    15    13    1
    18    40    41    1
    19    24    18   am
    20    51    49   ar
    21    13    12    1
    22    11    10    2
    23    44    41   am
    24    44    45    1
    25    18    19    2
    26    18    17    1
    27    41    42    2
    28    49    48    1
    29    49    50   ar
    30     8     9    1
    31     8     3   am
    32     2     5    1
    33     2     1    1
    34     2     3    1
    35    48    45    1
    36    10     9    1
    37    10    16   am
    38     5     6    1
    39    12     9    1
    40    12    14    1
    41     6     7    1
    42    17    16    1
    43    17    20    1
    44    45    46    1
    45     1     7    1
    46     3     4    2
    47    56    57    1
    48    56    53    1
    49    52    46   am
    50    52    53    1
    51    46    47    2
    52    57    58   ar
    53    57    59   ar
    54    20    21    1
    55    53    54    1
    56    22    21   ar
    57    72    70   am
    58    58    60   ar
    59    59    61   ar
    60    21    23   ar
    61    81    79   am
    62    78    79    1
    63    78    77    1
    64    71    70    2
    65    54    55    2
    66    70    69    1
    67    60    62   ar
    68    61    62   ar
    69    79    80    2
    70    62    63    1
    71    77    74    1
    72    67    66    2
    73    68    69    1
    74    68    65    1
    75    64    65    1
    76    66    65    1
    77    74    73    1
    78    74    75    1
    79    75    76    2
