@<TRIPOS>MOLECULE
tmp/3rjaA02.pdb
 170 162 0 0 0
SMALL
GASTEIGER

@<TRIPOS>ATOM
      1  N        -17.9400  -35.9460    4.8610 N.3    29  PHE29      -0.1241
      2  CA       -16.6660  -36.3440    5.4630 C.3    29  PHE29       0.1605
      3  C        -16.7970  -37.7610    6.0790 C.2    29  PHE29       0.2264
      4  O        -15.8870  -38.5840    5.9650 O.2    29  PHE29      -0.2867
      5  CB       -16.1800  -35.3180    6.5240 C.3    29  PHE29       0.0534
      6  CG       -15.0160  -35.8180    7.3650 C.ar   29  PHE29      -0.0203
      7  CD1      -13.7280  -35.9590    6.8010 C.ar   29  PHE29      -0.0042
      8  CD2      -15.2010  -36.1600    8.7000 C.ar   29  PHE29      -0.0042
      9  CE1      -12.6570  -36.4340    7.5790 C.ar   29  PHE29      -0.0003
     10  CE2      -14.1190  -36.6550    9.5030 C.ar   29  PHE29      -0.0003
     11  CZ       -12.8690  -36.7810    8.9570 C.ar   29  PHE29      -0.0000
     12  N        -17.3670  -31.1130    7.8530 N.3    70  HIS70      -0.1241
     13  CA       -16.8150  -31.9480    8.9090 C.3    70  HIS70       0.1621
     14  C        -17.7660  -32.4460   10.0060 C.2    70  HIS70       0.2264
     15  O        -17.3540  -33.2440   10.8610 O.2    70  HIS70      -0.2867
     16  CB       -15.5230  -31.3290    9.4610 C.3    70  HIS70       0.0745
     17  CG       -14.3190  -31.7360    8.6720 C.ar   70  HIS70       0.0817
     18  ND1      -13.4640  -32.7350    9.0890 N.ar   70  HIS70      -0.2268
     19  CD2      -13.8800  -31.3440    7.4500 C.ar   70  HIS70       0.1154
     20  CE1      -12.5290  -32.9160    8.1650 C.ar   70  HIS70       0.1986
     21  NE2      -12.7570  -32.0850    7.1640 N.ar   70  HIS70      -0.2212
     22  N        -19.6840  -34.6720   12.1990 N.3    72  TYR72      -0.1241
     23  CA       -19.5320  -36.1190   12.4000 C.3    72  TYR72       0.1605
     24  C        -20.8720  -36.7820   12.1330 C.2    72  TYR72       0.2264
     25  O        -20.9360  -37.9800   11.8710 O.2    72  TYR72      -0.2867
     26  CB       -19.0650  -36.4200   13.8160 C.3    72  TYR72       0.0534
     27  CG       -17.6400  -35.9950   14.1490 C.ar   72  TYR72      -0.0201
     28  CD1      -16.7670  -35.4890   13.1730 C.ar   72  TYR72      -0.0009
     29  CD2      -17.1460  -36.1490   15.4560 C.ar   72  TYR72      -0.0009
     30  CE1      -15.4340  -35.1510   13.4980 C.ar   72  TYR72       0.0417
     31  CE2      -15.8720  -35.8080   15.7880 C.ar   72  TYR72       0.0417
     32  CZ       -15.0000  -35.3120   14.8130 C.ar   72  TYR72       0.1957
     33  OH       -13.7100  -34.9770   15.1850 O.3    72  TYR72      -0.2866
     34  N         -7.0990  -27.9430   14.7490 N.3   131  THR131     -0.1203
     35  CA        -5.8680  -28.3700   14.0870 C.3   131  THR131      0.1994
     36  C         -6.0800  -28.9260   12.6790 C.2   131  THR131      0.2618
     37  O         -5.1280  -29.0070   11.9250 O.2   131  THR131     -0.2717
     38  CB        -5.1740  -29.5030   14.8710 C.3   131  THR131      0.1784
     39  OG1       -6.0990  -30.5900   15.0200 O.3   131  THR131     -0.2211
     40  CG2       -4.7200  -29.0290   16.2570 C.3   131  THR131      0.0376
     41  N         -7.2920  -29.3760   12.3540 N.am  132  CYS132     -0.1969
     42  CA        -7.5210  -30.0350   11.0750 C.3   132  CYS132      0.1712
     43  C         -7.6640  -28.9960    9.9460 C.2   132  CYS132      0.2296
     44  O         -8.5410  -28.1410   10.0040 O.2   132  CYS132     -0.2864
     45  CB        -8.7740  -30.9290   11.1720 C.3   132  CYS132      0.0983
     46  SG        -8.7210  -32.1440   12.5480 S.3   132  CYS132     -0.0798
     47  N         -2.9350  -31.9770   25.8020 N.3   248  ARG248     -0.1245
     48  CA        -3.8990  -33.0600   26.0100 C.3   248  ARG248      0.1563
     49  C         -3.2040  -34.4020   26.2500 C.2   248  ARG248      0.2260
     50  O         -2.0280  -34.5590   25.9470 O.2   248  ARG248     -0.2867
     51  CB        -4.8690  -33.1750   24.8200 C.3   248  ARG248      0.0307
     52  CG        -4.2310  -33.2520   23.4050 C.3   248  ARG248      0.0489
     53  CD        -5.2660  -33.8200   22.4020 C.3   248  ARG248      0.2205
     54  NE        -4.9720  -33.5490   20.9970 N.pl3 248  ARG248     -0.0865
     55  CZ        -5.6970  -32.7380   20.2230 C.cat 248  ARG248      0.5346
     56  NH1       -5.3610  -32.5660   18.9510 N.pl3 248  ARG248      0.1354
     57  NH2       -6.7590  -32.1020   20.7130 N.pl3 248  ARG248      0.1354
     58  N         -3.4380  -43.1950   20.5940 N.3   252  TYR252     -0.1241
     59  CA        -3.7050  -43.6690   19.2420 C.3   252  TYR252      0.1605
     60  C         -3.1270  -45.0820   19.0240 C.2   252  TYR252      0.2264
     61  O         -3.1710  -45.6030   17.9110 O.2   252  TYR252     -0.2867
     62  CB        -3.0980  -42.6880   18.2200 C.3   252  TYR252      0.0534
     63  CG        -3.3560  -41.2570   18.6420 C.ar  252  TYR252     -0.0201
     64  CD1       -4.6300  -40.6810   18.4660 C.ar  252  TYR252     -0.0009
     65  CD2       -2.3680  -40.5030   19.2760 C.ar  252  TYR252     -0.0009
     66  CE1       -4.9010  -39.3970   18.8910 C.ar  252  TYR252      0.0417
     67  CE2       -2.6390  -39.1980   19.7090 C.ar  252  TYR252      0.0417
     68  CZ        -3.9080  -38.6610   19.5010 C.ar  252  TYR252      0.1957
     69  OH        -4.2070  -37.3900   19.9110 O.3   252  TYR252     -0.2866
     70  N          0.5500  -34.6290   24.3620 N.3   260  GLU260     -0.1245
     71  CA         1.0310  -33.7370   23.2970 C.3   260  GLU260      0.1567
     72  C          0.5990  -32.3210   23.5950 C.2   260  GLU260      0.2260
     73  O         -0.5190  -32.0800   24.0510 O.2   260  GLU260     -0.2867
     74  CB         0.4460  -34.0490   21.9090 C.3   260  GLU260      0.0388
     75  CG         0.1120  -35.4560   21.5850 C.3   260  GLU260      0.1160
     76  CD        -0.6300  -35.5260   20.2420 C.2   260  GLU260      0.3649
     77  OE1       -1.7930  -35.9600   20.2250 O.co2 260  GLU260     -0.2457
     78  OE2       -0.0580  -35.0880   19.2230 O.co2 260  GLU260     -0.2457
     79  N         -1.5150  -33.2210   10.3920 N.3   304  ASN304     -0.1240
     80  CA        -1.5480  -34.5850    9.8720 C.3   304  ASN304      0.1653
     81  C         -1.5450  -34.6500    8.3390 C.2   304  ASN304      0.2266
     82  O         -1.9460  -35.6600    7.7740 O.2   304  ASN304     -0.2867
     83  CB        -2.7440  -35.3730   10.4260 C.3   304  ASN304      0.1155
     84  CG        -2.5850  -35.7050   11.8930 C.2   304  ASN304      0.2627
     85  OD1       -1.4870  -36.0420   12.3380 O.2   304  ASN304     -0.2716
     86  ND2       -3.6760  -35.5980   12.6610 N.am  304  ASN304     -0.0877
     87  N        -13.6020  -40.3240    5.8770 N.3   317  GLU317     -0.1245
     88  CA       -13.3810  -41.3760    6.8500 C.3   317  GLU317      0.1567
     89  C        -14.7100  -42.0400    7.1520 C.2   317  GLU317      0.2260
     90  O        -15.7770  -41.5370    6.7690 O.2   317  GLU317     -0.2867
     91  CB       -12.7480  -40.8100    8.1440 C.3   317  GLU317      0.0388
     92  CG       -11.4110  -40.0910    7.8960 C.3   317  GLU317      0.1160
     93  CD       -10.7320  -39.5650    9.1810 C.2   317  GLU317      0.3649
     94  OE1      -11.0970  -39.9490   10.3140 O.co2 317  GLU317     -0.2457
     95  OE2       -9.8400  -38.7270    9.0440 O.co2 317  GLU317     -0.2457
     96  N         -9.2360  -48.9640   14.0640 N.3   352  PHE352     -0.1241
     97  CA        -8.5430  -47.8680   14.7510 C.3   352  PHE352      0.1605
     98  C         -9.4990  -47.1230   15.7100 C.2   352  PHE352      0.2264
     99  O        -10.6750  -46.8830   15.3830 O.2   352  PHE352     -0.2867
    100  CB        -7.9840  -46.9010   13.7180 C.3   352  PHE352      0.0534
    101  CG        -7.2940  -45.7110   14.3020 C.ar  352  PHE352     -0.0203
    102  CD1       -6.1540  -45.8590   15.0760 C.ar  352  PHE352     -0.0042
    103  CD2       -7.7920  -44.4180   14.0720 C.ar  352  PHE352     -0.0042
    104  CE1       -5.5140  -44.7480   15.6280 C.ar  352  PHE352     -0.0003
    105  CE2       -7.1570  -43.2830   14.6120 C.ar  352  PHE352     -0.0003
    106  CZ        -6.0130  -43.4510   15.3880 C.ar  352  PHE352     -0.0000
    107  N         -9.2730  -43.9050   19.0240 N.3   354  PHE354     -0.1241
    108  CA        -8.5380  -43.0760   19.9630 C.3   354  PHE354      0.1605
    109  C         -9.4650  -42.3660   20.9700 C.2   354  PHE354      0.2264
    110  O        -10.6840  -42.2690   20.7590 O.2   354  PHE354     -0.2867
    111  CB        -7.6150  -42.0930   19.2310 C.3   354  PHE354      0.0534
    112  CG        -8.3390  -40.9800   18.5140 C.ar  354  PHE354     -0.0203
    113  CD1       -8.8450  -39.8920   19.2210 C.ar  354  PHE354     -0.0042
    114  CD2       -8.4790  -41.0070   17.1130 C.ar  354  PHE354     -0.0042
    115  CE1       -9.5000  -38.8370   18.5490 C.ar  354  PHE354     -0.0003
    116  CE2       -9.1180  -39.9710   16.4300 C.ar  354  PHE354     -0.0003
    117  CZ        -9.6360  -38.8780   17.1550 C.ar  354  PHE354     -0.0000
    118  N         -9.0260  -38.4990   23.2190 N.3   356  GLN356     -0.1245
    119  CA        -8.2140  -37.3370   23.5720 C.3   356  GLN356      0.1566
    120  C         -8.8300  -36.7210   24.7980 C.2   356  GLN356      0.2260
    121  O        -10.0440  -36.4740   24.8300 O.2   356  GLN356     -0.2867
    122  CB        -8.1630  -36.3150   22.4310 C.3   356  GLN356      0.0367
    123  CG        -7.5510  -36.8910   21.1780 C.3   356  GLN356      0.0905
    124  CD        -7.6880  -36.0210   19.9630 C.2   356  GLN356      0.2608
    125  OE1       -6.7870  -35.9620   19.1140 O.2   356  GLN356     -0.2717
    126  NE2       -8.8170  -35.3510   19.8510 N.am  356  GLN356     -0.0878
    127  N        -12.7510  -36.4390   23.5920 N.3   387  GLN387     -0.1245
    128  CA       -13.1870  -37.0350   22.3420 C.3   387  GLN387      0.1566
    129  C        -12.9170  -38.5430   22.3310 C.2   387  GLN387      0.2260
    130  O        -11.8260  -38.9950   22.7340 O.2   387  GLN387     -0.2867
    131  CB       -12.5170  -36.3560   21.1310 C.3   387  GLN387      0.0367
    132  CG       -13.0330  -36.9590   19.7950 C.3   387  GLN387      0.0905
    133  CD       -12.6240  -36.1960   18.5520 C.2   387  GLN387      0.2608
    134  OE1      -13.2930  -36.2960   17.5140 O.2   387  GLN387     -0.2717
    135  NE2      -11.4920  -35.4600   18.6250 N.am  387  GLN387     -0.0878
    136  N        -13.3420  -41.7110   19.4890 N.3   389  TYR389     -0.1241
    137  CA       -13.3850  -41.8280   18.0020 C.3   389  TYR389      0.1605
    138  C        -13.1240  -43.2900   17.6200 C.2   389  TYR389      0.2264
    139  O        -12.1830  -43.8860   18.1280 O.2   389  TYR389     -0.2867
    140  CB       -12.2930  -40.9750   17.3900 C.3   389  TYR389      0.0534
    141  CG       -12.4960  -40.4930   15.9590 C.ar  389  TYR389     -0.0201
    142  CD1      -13.1240  -39.2760   15.7020 C.ar  389  TYR389     -0.0009
    143  CD2      -11.9990  -41.2160   14.8610 C.ar  389  TYR389     -0.0009
    144  CE1      -13.2790  -38.7930   14.4140 C.ar  389  TYR389      0.0417
    145  CE2      -12.1460  -40.7200   13.5480 C.ar  389  TYR389      0.0417
    146  CZ       -12.7910  -39.5040   13.3520 C.ar  389  TYR389      0.1957
    147  OH       -12.9700  -38.9860   12.0890 O.3   389  TYR389     -0.2866
    148  N        -12.9280  -45.6890   14.2460 N.3   391  ARG391     -0.1245
    149  CA       -12.8240  -45.6110   12.7920 C.3   391  ARG391      0.1563
    150  C        -12.4910  -46.9350   12.0450 C.2   391  ARG391      0.2260
    151  O        -11.4550  -47.5410   12.2700 O.2   391  ARG391     -0.2867
    152  CB       -11.8090  -44.5320   12.3930 C.3   391  ARG391      0.0307
    153  CG       -11.5990  -44.4630   10.8910 C.3   391  ARG391      0.0489
    154  CD       -10.7560  -43.2920   10.4580 C.3   391  ARG391      0.2205
    155  NE        -9.3140  -43.4650   10.6530 N.pl3 391  ARG391     -0.0865
    156  CZ        -8.4860  -42.4800   11.0660 C.cat 391  ARG391      0.5346
    157  NH1       -8.9470  -41.2460   11.4120 N.pl3 391  ARG391      0.1354
    158  NH2       -7.1820  -42.7240   11.1710 N.pl3 391  ARG391      0.1354
    159  N        -18.2350  -32.3220   18.2390 N.3   428  TYR428     -0.1241
    160  CA       -18.0550  -33.7570   18.0760 C.3   428  TYR428      0.1605
    161  C        -19.4390  -34.4080   18.0190 C.2   428  TYR428      0.2264
    162  O        -19.8090  -35.2140   18.8900 O.2   428  TYR428     -0.2867
    163  CB       -17.2110  -34.3290   19.2120 C.3   428  TYR428      0.0534
    164  CG       -15.8350  -33.7290   19.3640 C.ar  428  TYR428     -0.0201
    165  CD1      -15.1550  -33.2140   18.2500 C.ar  428  TYR428     -0.0009
    166  CD2      -15.1740  -33.7300   20.6120 C.ar  428  TYR428     -0.0009
    167  CE1      -13.8880  -32.6810   18.3550 C.ar  428  TYR428      0.0417
    168  CE2      -13.8800  -33.1710   20.7320 C.ar  428  TYR428      0.0417
    169  CZ       -13.2520  -32.6570   19.5780 C.ar  428  TYR428      0.1957
    170  OH       -11.9860  -32.1200   19.6040 O.3   428  TYR428     -0.2866
@<TRIPOS>BOND
     1     1     2    1
     2     2     3    1
     3     2     5    1
     4    87    88    1
     5     4     3    2
     6     5     6    1
     7    90    89    2
     8     7     6   ar
     9     7     9   ar
    10    88    89    1
    11    88    91    1
    12    21    19   ar
    13    21    20   ar
    14     6     8   ar
    15    19    17   ar
    16     9    11   ar
    17    82    81    2
    18    12    13    1
    19    92    91    1
    20    92    93    1
    21    20    18   ar
    22    81    80    1
    23    17    18   ar
    24    17    16    1
    25     8    10   ar
    26    13    16    1
    27    13    14    1
    28    11    10   ar
    29    95    93   ar
    30    93    94   ar
    31    80    79    1
    32    80    83    1
    33    43    44    2
    34    43    42    1
    35    14    15    2
    36    83    84    1
    37   154   155    1
    38   154   153    1
    39   155   156    2
    40   153   152    1
    41   156   158    1
    42   156   157    1
    43    42    45    1
    44    42    41    1
    45    45    46    1
    46    25    24    2
    47    84    85    2
    48    84    86   am
    49    37    36    2
    50   150   151    2
    51   150   149    1
    52   147   146    1
    53    24    23    1
    54    22    23    1
    55    41    36   am
    56   152   149    1
    57    23    26    1
    58    36    35    1
    59   149   148    1
    60    28    30   ar
    61    28    27   ar
    62   146   145   ar
    63   146   144   ar
    64    30    32   ar
    65   145   143   ar
    66   100   101    1
    67   100    97    1
    68    26    27    1
    69    96    97    1
    70   103   101   ar
    71   103   105   ar
    72    35    34    1
    73    35    38    1
    74    27    29   ar
    75   101   102   ar
    76   144   142   ar
    77   105   106   ar
    78    97    98    1
    79    32    33    1
    80    32    31   ar
    81   143   141   ar
    82    38    39    1
    83    38    40    1
    84   102   104   ar
    85    99    98    2
    86   106   104   ar
    87    29    31   ar
    88   142   141   ar
    89   141   140    1
    90   116   114   ar
    91   116   117   ar
    92   114   112   ar
    93   117   115   ar
    94   140   137    1
    95   134   133    2
    96   138   137    1
    97   138   139    2
    98    61    60    2
    99   137   136    1
   100   161   160    1
   101   161   162    2
   102   160   159    1
   103   160   163    1
   104    62    63    1
   105    62    59    1
   106   165   167   ar
   107   165   164   ar
   108   167   169   ar
   109    64    63   ar
   110    64    66   ar
   111   112   113   ar
   112   112   111    1
   113   115   113   ar
   114   133   135   am
   115   133   132    1
   116    63    65   ar
   117    66    68   ar
   118    56    55    1
   119    60    59    1
   120   107   108    1
   121   125   124    2
   122   163   164    1
   123    78    76   ar
   124   111   108    1
   125    59    58    1
   126    65    67   ar
   127   164   166   ar
   128    68    67   ar
   129    68    69    1
   130   169   170    1
   131   169   168   ar
   132   132   131    1
   133   126   124   am
   134   108   109    1
   135   124   123    1
   136    55    57    1
   137    55    54    2
   138    77    76   ar
   139    76    75    1
   140   166   168   ar
   141   110   109    2
   142    54    53    1
   143   131   128    1
   144   123   122    1
   145    75    74    1
   146    74    71    1
   147   129   128    1
   148   129   130    2
   149   128   127    1
   150    53    52    1
   151   122   119    1
   152   118   119    1
   153    71    72    1
   154    71    70    1
   155    52    51    1
   156   119   120    1
   157    72    73    2
   158   120   121    2
   159    51    48    1
   160    47    48    1
   161    50    49    2
   162    48    49    1
