@<TRIPOS>MOLECULE
tmp/3rjcA00.pdb
 162 153 0 0 0
SMALL
GASTEIGER

@<TRIPOS>ATOM
      1  N        120.5370   55.2120  -42.7340 N.3     8  GLU8       -0.1245
      2  CA       120.1740   54.4010  -41.5790 C.3     8  GLU8        0.1567
      3  C        120.9390   53.0900  -41.6330 C.2     8  GLU8        0.2260
      4  O        121.5610   52.7690  -42.6430 O.2     8  GLU8       -0.2867
      5  CB       118.6760   54.0840  -41.5950 C.3     8  GLU8        0.0388
      6  CG       117.7660   55.2720  -41.8500 C.3     8  GLU8        0.1160
      7  CD       116.3330   54.8520  -42.1000 C.2     8  GLU8        0.3649
      8  OE1      116.1080   54.0370  -43.0200 O.co2   8  GLU8       -0.2457
      9  OE2      115.4320   55.3320  -41.3790 O.co2   8  GLU8       -0.2457
     10  N        120.6610   49.3230  -41.9610 N.3    10  ILE10      -0.1245
     11  CA       119.7320   48.2870  -42.4020 C.3    10  ILE10       0.1561
     12  C        119.8040   47.0360  -41.5360 C.2    10  ILE10       0.2260
     13  O        118.7970   46.3640  -41.3210 O.2    10  ILE10      -0.2867
     14  CB       120.0150   47.8890  -43.8670 C.3    10  ILE10       0.0252
     15  CG1      119.5340   48.9920  -44.8090 C.3    10  ILE10       0.0019
     16  CG2      119.3600   46.5500  -44.1860 C.3    10  ILE10       0.0019
     17  CD1      119.7570   48.6790  -46.2700 C.3    10  ILE10       0.0001
     18  N        124.6480   42.2510  -41.5450 N.3    13  GLY13      -0.1225
     19  CA       124.7460   41.2110  -42.5570 C.3    13  GLY13       0.1811
     20  C        125.3800   39.9110  -42.0950 C.2    13  GLY13       0.2280
     21  O        125.1300   39.4400  -40.9840 O.2    13  GLY13      -0.2866
     22  N        125.2220   46.6130  -42.6430 N.3    18  VAL18      -0.1245
     23  CA       124.6390   47.0990  -43.8800 C.3    18  VAL18       0.1561
     24  C        123.9010   48.3910  -43.6170 C.2    18  VAL18       0.2260
     25  O        123.1770   48.5140  -42.6340 O.2    18  VAL18      -0.2867
     26  CB       123.6680   46.0780  -44.4670 C.3    18  VAL18       0.0252
     27  CG1      123.2160   46.5210  -45.8560 C.3    18  VAL18       0.0019
     28  CG2      124.3370   44.7230  -44.5240 C.3    18  VAL18       0.0019
     29  N        122.1800   50.1080  -50.9280 N.3    31  ALA31      -0.1245
     30  CA       122.4080   49.3500  -49.6960 C.3    31  ALA31       0.1562
     31  C        123.9230   49.1840  -49.6940 C.2    31  ALA31       0.2260
     32  O        124.4950   48.6740  -50.6610 O.2    31  ALA31      -0.2867
     33  CB       121.7400   47.9850  -49.7610 C.3    31  ALA31       0.0290
     34  N        127.1890   47.5380  -47.8100 N.3    33  LYS33      -0.1245
     35  CA       127.6690   46.5440  -46.8600 C.3    33  LYS33       0.1561
     36  C        129.1530   46.7710  -46.5720 C.2    33  LYS33       0.2260
     37  O        129.9680   46.8360  -47.4910 O.2    33  LYS33      -0.2867
     38  CB       127.4690   45.1360  -47.4160 C.3    33  LYS33       0.0271
     39  CG       127.8600   44.0410  -46.4310 C.3    33  LYS33       0.0035
     40  CD       127.6710   42.6610  -47.0320 C.3    33  LYS33       0.0206
     41  CE       127.8830   41.5800  -45.9910 C.3    33  LYS33       0.1093
     42  NZ       127.8280   40.2310  -46.6180 N.3    33  LYS33      -0.1314
     43  N        119.6300   40.4500  -56.4080 N.3    60  VAL60      -0.1245
     44  CA       119.9130   41.8430  -56.0730 C.3    60  VAL60       0.1561
     45  C        121.1830   42.3090  -56.8000 C.2    60  VAL60       0.2260
     46  O        122.2600   41.7580  -56.6070 O.2    60  VAL60      -0.2867
     47  CB       120.0720   42.0240  -54.5430 C.3    60  VAL60       0.0252
     48  CG1      120.4810   43.4540  -54.2040 C.3    60  VAL60       0.0019
     49  CG2      118.7380   41.7200  -53.8750 C.3    60  VAL60       0.0019
     50  N        125.0270   47.7100  -53.3390 N.3    76  PHE76      -0.1227
     51  CA       123.9050   46.9950  -53.9360 C.3    76  PHE76       0.1736
     52  C        122.7160   47.8930  -54.2140 C.2    76  PHE76       0.2595
     53  O        122.5410   48.9190  -53.5690 O.2    76  PHE76      -0.2718
     54  CB       123.4160   45.9070  -52.9790 C.3    76  PHE76       0.0547
     55  CG       124.3940   44.8170  -52.7480 C.ar   76  PHE76      -0.0202
     56  CD1      124.5210   43.7760  -53.6620 C.ar   76  PHE76      -0.0042
     57  CD2      125.1710   44.8060  -51.6040 C.ar   76  PHE76      -0.0042
     58  CE1      125.4040   42.7350  -53.4330 C.ar   76  PHE76      -0.0003
     59  CE2      126.0660   43.7650  -51.3630 C.ar   76  PHE76      -0.0003
     60  CZ       126.1770   42.7260  -52.2830 C.ar   76  PHE76      -0.0000
     61  N        121.8970   47.4820  -55.1760 N.am   77  GLU77      -0.1965
     62  CA       120.6660   48.1980  -55.4770 C.3    77  GLU77       0.1733
     63  C        119.8330   48.0800  -54.1880 C.2    77  GLU77       0.2616
     64  O        119.8570   47.0460  -53.5090 O.2    77  GLU77      -0.2715
     65  CB       119.9440   47.5330  -56.6610 C.3    77  GLU77       0.0429
     66  CG       119.5020   46.0970  -56.4120 C.3    77  GLU77       0.1163
     67  CD       118.5080   45.5810  -57.4500 C.2    77  GLU77       0.3649
     68  OE1      117.5090   46.2790  -57.7300 O.co2  77  GLU77      -0.2457
     69  OE2      118.7090   44.4740  -57.9820 O.co2  77  GLU77      -0.2457
     70  N        119.0920   49.1230  -53.8450 N.am   78  PHE78      -0.1960
     71  CA       118.3210   49.1160  -52.6120 C.3    78  PHE78       0.1771
     72  C        116.9120   48.5650  -52.8160 C.2    78  PHE78       0.2619
     73  O        116.2120   48.9640  -53.7500 O.2    78  PHE78      -0.2715
     74  CB       118.2640   50.5430  -52.0440 C.3    78  PHE78       0.0574
     75  CG       117.4430   50.6840  -50.7880 C.ar   78  PHE78      -0.0200
     76  CD1      116.1370   51.1660  -50.8410 C.ar   78  PHE78      -0.0042
     77  CD2      117.9860   50.3590  -49.5500 C.ar   78  PHE78      -0.0042
     78  CE1      115.3840   51.3290  -49.6880 C.ar   78  PHE78      -0.0003
     79  CE2      117.2500   50.5140  -48.3840 C.ar   78  PHE78      -0.0003
     80  CZ       115.9370   51.0050  -48.4480 C.ar   78  PHE78      -0.0000
     81  N        116.5320   47.6010  -51.9800 N.am   79  LEU79      -0.1963
     82  CA       115.1720   47.0490  -52.0460 C.3    79  LEU79       0.1728
     83  C        114.4670   47.5590  -50.8050 C.2    79  LEU79       0.2616
     84  O        115.0860   47.8190  -49.7770 O.2    79  LEU79      -0.2715
     85  CB       115.1770   45.5120  -52.0960 C.3    79  LEU79       0.0311
     86  CG       115.3710   44.7830  -53.4470 C.3    79  LEU79       0.0022
     87  CD1      114.0600   44.7920  -54.2640 C.3    79  LEU79       0.0001
     88  CD2      116.5010   45.4090  -54.2410 C.3    79  LEU79       0.0001
     89  N        113.1540   47.6870  -50.9200 N.am   80  HIS80      -0.1959
     90  CA       112.2810   48.2160  -49.9050 C.3    80  HIS80       0.1787
     91  C        112.1480   47.4670  -48.5680 C.2    80  HIS80       0.2620
     92  O        112.1010   48.0840  -47.5020 O.2    80  HIS80      -0.2715
     93  CB       110.8890   48.3770  -50.5500 C.3    80  HIS80       0.0785
     94  CG       110.9270   48.7160  -52.0220 C.ar   80  HIS80       0.0821
     95  ND1      109.7830   48.8440  -52.7910 N.ar   80  HIS80      -0.2267
     96  CD2      111.9640   48.9850  -52.8520 C.ar   80  HIS80       0.1154
     97  CE1      110.1160   49.1790  -54.0230 C.ar   80  HIS80       0.1986
     98  NE2      111.4350   49.2730  -54.0860 N.ar   80  HIS80      -0.2212
     99  N        112.0830   46.1370  -48.6050 N.am   81  GLN81      -0.1963
    100  CA       111.8690   45.3900  -47.3630 C.3    81  GLN81       0.1733
    101  C        112.3580   43.9630  -47.5420 C.2    81  GLN81       0.2616
    102  O        112.5170   43.5240  -48.6710 O.2    81  GLN81      -0.2715
    103  CB       110.3630   45.3980  -47.0740 C.3    81  GLN81       0.0408
    104  CG       109.8840   44.6840  -45.8200 C.3    81  GLN81       0.0908
    105  CD       108.4590   45.1000  -45.4770 C.2    81  GLN81       0.2608
    106  OE1      108.1990   46.2720  -45.1880 O.2    81  GLN81      -0.2717
    107  NE2      107.5360   44.1610  -45.5270 N.am   81  GLN81      -0.0878
    108  N        112.6220   43.2610  -46.4420 N.am   82  ASP82      -0.1971
    109  CA       113.0510   41.8700  -46.5710 C.3    82  ASP82       0.1709
    110  C        111.9040   40.9490  -46.2200 C.2    82  ASP82       0.2293
    111  O        110.9240   41.3560  -45.5930 O.2    82  ASP82      -0.2864
    112  CB       114.2860   41.5570  -45.7180 C.3    82  ASP82       0.1436
    113  CG       114.0400   41.7300  -44.2290 C.2    82  ASP82       0.3671
    114  OD1      113.1190   41.0990  -43.6730 O.co2  82  ASP82      -0.2456
    115  OD2      114.7910   42.4970  -43.6140 O.co2  82  ASP82      -0.2456
    116  N        110.8350   40.6080  -42.4620 N.3    85  LYS85      -0.1245
    117  CA       109.9420   41.6710  -42.0060 C.3    85  LYS85       0.1561
    118  C        108.5280   41.5030  -42.5550 C.2    85  LYS85       0.2260
    119  O        107.5460   41.6320  -41.8140 O.2    85  LYS85      -0.2867
    120  CB       110.5070   43.0690  -42.3680 C.3    85  LYS85       0.0271
    121  CG       109.5690   44.2250  -41.9830 C.3    85  LYS85       0.0035
    122  CD       110.3200   45.5530  -41.8410 C.3    85  LYS85       0.0206
    123  CE       109.4250   46.6340  -41.2400 C.3    85  LYS85       0.1093
    124  NZ       110.1960   47.8760  -40.9000 N.3    85  LYS85      -0.1314
    125  N        115.7090   36.9220  -44.1100 N.3   127  GLN127     -0.1231
    126  CA       116.3930   38.2100  -43.9680 C.3   127  GLN127      0.1698
    127  C        117.1920   38.6140  -45.2150 C.2   127  GLN127      0.2592
    128  O        117.4390   39.8100  -45.4130 O.2   127  GLN127     -0.2718
    129  CB       117.3150   38.1900  -42.7450 C.3   127  GLN127      0.0381
    130  CG       116.5540   38.1160  -41.4360 C.3   127  GLN127      0.0905
    131  CD       117.4540   37.8390  -40.2550 C.2   127  GLN127      0.2608
    132  OE1      118.0010   36.7450  -40.1190 O.2   127  GLN127     -0.2717
    133  NE2      117.6190   38.8350  -39.3940 N.am  127  GLN127     -0.0878
    134  N        117.6320   37.6590  -46.0420 N.am  128  ASN128     -0.1974
    135  CA       118.3290   38.0970  -47.2580 C.3   128  ASN128      0.1688
    136  C        117.5640   37.9080  -48.5620 C.2   128  ASN128      0.2292
    137  O        118.1640   37.8410  -49.6320 O.2   128  ASN128     -0.2864
    138  CB       119.7420   37.5230  -47.4030 C.3   128  ASN128      0.1181
    139  CG       119.8000   36.0410  -47.2820 C.2   128  ASN128      0.2629
    140  OD1      118.9830   35.3170  -47.8540 O.2   128  ASN128     -0.2716
    141  ND2      120.8040   35.5590  -46.5330 N.am  128  ASN128     -0.0877
    142  N        114.7960   39.8860  -50.5640 N.3   130  LEU130     -0.1245
    143  CA       114.2560   41.2440  -50.5680 C.3   130  LEU130      0.1561
    144  C        113.0990   41.4060  -51.5290 C.2   130  LEU130      0.2260
    145  O        113.1170   40.8560  -52.6380 O.2   130  LEU130     -0.2867
    146  CB       115.3700   42.2140  -50.9610 C.3   130  LEU130      0.0270
    147  CG       116.6880   41.8770  -50.2780 C.3   130  LEU130      0.0019
    148  CD1      117.7830   42.8000  -50.7870 C.3   130  LEU130      0.0001
    149  CD2      116.5210   42.0020  -48.7630 C.3   130  LEU130      0.0001
    150  N        119.6530   38.0060  -52.0580 N.3   140  ALA140     -0.1231
    151  CA       120.6970   38.9640  -51.6930 C.3   140  ALA140      0.1694
    152  C        121.7030   38.3400  -50.7360 C.2   140  ALA140      0.2592
    153  O        121.5200   37.2240  -50.2770 O.2   140  ALA140     -0.2718
    154  CB       120.0940   40.1960  -51.0490 C.3   140  ALA140      0.0304
    155  N        122.7700   39.0840  -50.4630 N.am  141  ASP141     -0.1974
    156  CA       123.8180   38.6770  -49.5330 C.3   141  ASP141      0.1709
    157  C        124.3410   37.2710  -49.8040 C.2   141  ASP141      0.2293
    158  O        124.3300   36.4130  -48.9120 O.2   141  ASP141     -0.2864
    159  CB       123.2760   38.7570  -48.1120 C.3   141  ASP141      0.1436
    160  CG       124.3720   38.8370  -47.0610 C.2   141  ASP141      0.3671
    161  OD1      124.1140   38.4300  -45.9100 O.co2 141  ASP141     -0.2456
    162  OD2      125.4740   39.3260  -47.3700 O.co2 141  ASP141     -0.2456
@<TRIPOS>BOND
     1    69    67   ar
     2    68    67   ar
     3    67    66    1
     4    45    46    2
     5    45    44    1
     6    65    66    1
     7    65    62    1
     8    43    44    1
     9    44    47    1
    10    62    61    1
    11    62    63    1
    12    61    52   am
    13    47    48    1
    14    47    49    1
    15    87    86    1
    16    88    86    1
    17    52    51    1
    18    52    53    2
    19    63    70   am
    20    63    64    2
    21    98    97   ar
    22    98    96   ar
    23    97    95   ar
    24    51    50    1
    25    51    54    1
    26    70    71    1
    27    73    72    2
    28    56    58   ar
    29    56    55   ar
    30    86    85    1
    31    58    60   ar
    32    54    55    1
    33    96    94   ar
    34    72    71    1
    35    72    81   am
    36    95    94   ar
    37    55    57   ar
    38   145   144    2
    39    71    74    1
    40    60    59   ar
    41    85    82    1
    42   150   151    1
    43    82    81    1
    44    82    83    1
    45    74    75    1
    46    94    93    1
    47   151   154    1
    48   151   152    1
    49    57    59   ar
    50   144   143    1
    51   146   143    1
    52   146   147    1
    53    29    30    1
    54    89    83   am
    55    89    90    1
    56    76    75   ar
    57    76    78   ar
    58    83    84    2
    59    75    77   ar
    60   148   147    1
    61   152   155   am
    62   152   153    2
    63    32    31    2
    64   143   142    1
    65    93    90    1
    66   155   156    1
    67   147   149    1
    68    90    91    1
    69   157   156    1
    70   157   158    2
    71    33    30    1
    72    30    31    1
    73    78    80   ar
    74   137   136    2
    75    77    79   ar
    76   156   159    1
    77   102   101    2
    78    99    91   am
    79    99   100    1
    80    91    92    2
    81   136   135    1
    82    80    79   ar
    83   159   160    1
    84   140   139    2
    85    34    35    1
    86   101   100    1
    87   101   108   am
    88    37    36    2
    89    38    35    1
    90    38    39    1
    91   138   139    1
    92   138   135    1
    93   162   160   ar
    94   100   103    1
    95   139   141   am
    96   135   134    1
    97   103   104    1
    98   160   161   ar
    99    40    39    1
   100    40    41    1
   101    35    36    1
   102    42    41    1
   103   109   108    1
   104   109   110    1
   105   109   112    1
   106    17    15    1
   107   110   111    2
   108   134   127   am
   109    27    26    1
   110   104   105    1
   111   112   113    1
   112   107   105   am
   113   105   106    2
   114   128   127    2
   115   127   126    1
   116    15    14    1
   117    28    26    1
   118    26    23    1
   119   113   114   ar
   120   113   115   ar
   121    16    14    1
   122   125   126    1
   123   126   129    1
   124    23    24    1
   125    23    22    1
   126    14    11    1
   127    24    25    2
   128     8     7   ar
   129   129   130    1
   130     1     2    1
   131     4     3    2
   132    19    20    1
   133    19    18    1
   134   118   117    1
   135   118   119    2
   136   116   117    1
   137    11    10    1
   138    11    12    1
   139   120   117    1
   140   120   121    1
   141     7     6    1
   142     7     9   ar
   143    20    21    2
   144   121   122    1
   145     6     5    1
   146   122   123    1
   147     3     2    1
   148     5     2    1
   149    12    13    2
   150   130   131    1
   151   123   124    1
   152   131   132    2
   153   131   133   am
