@<TRIPOS>MOLECULE
tmp/3rjdA01.pdb
 111 110 0 0 0
SMALL
GASTEIGER

@<TRIPOS>ATOM
      1  N         -7.2260   18.0380   -6.3880 N.3     7  GLN7       -0.1231
      2  CA        -7.7310   16.6440   -6.4110 C.3     7  GLN7        0.1683
      3  C         -8.2800   16.3220   -5.0320 C.2     7  GLN7        0.2434
      4  O         -9.5100   16.3640   -4.9230 O.2     7  GLN7       -0.2733
      5  CB        -6.7110   15.6100   -6.9250 C.3     7  GLN7        0.0380
      6  CG        -7.2960   14.5960   -7.9240 C.3     7  GLN7        0.0905
      7  CD        -8.4910   13.8020   -7.4220 C.2     7  GLN7        0.2608
      8  OE1       -8.5500   13.3530   -6.2690 O.2     7  GLN7       -0.2717
      9  NE2       -9.4620   13.5860   -8.2980 N.am    7  GLN7       -0.0878
     10  N         -7.4820   16.1870   -3.9320 N.am    8  PRO8       -0.2718
     11  CA        -8.1150   16.1520   -2.6040 C.3     8  PRO8        0.1520
     12  C         -8.5100   17.6340   -2.3940 C.2     8  PRO8        0.2440
     13  O         -7.6310   18.4920   -2.5260 O.2     8  PRO8       -0.2731
     14  CB        -6.9850   15.6710   -1.6750 C.3     8  PRO8        0.0310
     15  CG        -5.8190   15.3290   -2.5850 C.3     8  PRO8        0.0237
     16  CD        -6.0100   16.1660   -3.8030 C.3     8  PRO8        0.0939
     17  N         -9.8210   17.9860   -2.2850 N.am    9  PRO9       -0.2716
     18  CA       -10.2190   19.4130   -2.2760 C.3     9  PRO9        0.1536
     19  C         -9.5970   20.3650   -1.2630 C.2     9  PRO9        0.2598
     20  O         -9.5180   21.5660   -1.5230 O.2     9  PRO9       -0.2715
     21  CB       -11.7420   19.3570   -2.1050 C.3     9  PRO9        0.0310
     22  CG       -12.0190   18.0090   -1.5360 C.3     9  PRO9        0.0237
     23  CD       -11.0100   17.1160   -2.1870 C.3     9  PRO9        0.0939
     24  N         -9.1900   19.8340   -0.1160 N.am   10  TRP10      -0.1974
     25  CA        -8.6330   20.5500    1.0220 C.3    10  TRP10       0.1640
     26  C         -7.4500   21.4760    0.7550 C.2    10  TRP10       0.2290
     27  O         -6.4220   21.0720    0.2160 O.2    10  TRP10      -0.2864
     28  CB        -8.4040   19.5850    2.1750 C.3    10  TRP10       0.0576
     29  CG        -9.4620   18.5190    2.2420 C.ar   10  TRP10       0.0006
     30  CD1       -9.3000   17.1930    1.9700 C.ar   10  TRP10       0.0946
     31  CD2      -10.8680   18.7120    2.4760 C.ar   10  TRP10       0.0152
     32  NE1      -10.5060   16.5360    2.0800 N.ar   10  TRP10      -0.2442
     33  CE2      -11.4860   17.4460    2.3830 C.ar   10  TRP10       0.0810
     34  CE3      -11.6630   19.8320    2.7790 C.ar   10  TRP10       0.0012
     35  CZ2      -12.8610   17.2670    2.5780 C.ar   10  TRP10       0.0191
     36  CZ3      -13.0230   19.6510    2.9830 C.ar   10  TRP10       0.0001
     37  CH2      -13.6070   18.3810    2.8900 C.ar   10  TRP10       0.0015
     38  N        -17.6350   22.7270    2.4640 N.3   101  ALA101     -0.1245
     39  CA       -17.2980   21.4530    3.0810 C.3   101  ALA101      0.1562
     40  C        -16.2320   21.6810    4.1320 C.2   101  ALA101      0.2260
     41  O        -15.2400   22.3700    3.8770 O.2   101  ALA101     -0.2867
     42  CB       -16.7940   20.4710    2.0350 C.3   101  ALA101      0.0290
     43  N        -13.9290   19.5230    7.2520 N.3   103  ARG103     -0.1231
     44  CA       -13.4350   18.2060    7.6250 C.3   103  ARG103      0.1694
     45  C        -12.5070   18.3110    8.8170 C.2   103  ARG103      0.2592
     46  O        -11.5210   19.0420    8.7610 O.2   103  ARG103     -0.2718
     47  CB       -12.7200   17.5460    6.4260 C.3   103  ARG103      0.0321
     48  CG       -12.0400   16.2130    6.7340 C.3   103  ARG103      0.0489
     49  CD       -11.7560   15.4320    5.4730 C.3   103  ARG103      0.2205
     50  NE       -11.3210   14.0660    5.7650 N.pl3 103  ARG103     -0.0865
     51  CZ       -10.1440   13.5590    5.4120 C.cat 103  ARG103      0.5346
     52  NH1       -9.2680   14.2990    4.7440 N.pl3 103  ARG103      0.1354
     53  NH2       -9.8380   12.3060    5.7180 N.pl3 103  ARG103      0.1354
     54  N        -12.8070   17.5680    9.8880 N.am  104  CYS104     -0.1956
     55  CA       -11.9180   17.5160   11.0400 C.3   104  CYS104      0.1843
     56  C        -10.9920   16.3380   10.7660 C.2   104  CYS104      0.2625
     57  O        -11.3320   15.1890   11.0550 O.2   104  CYS104     -0.2714
     58  CB       -12.6860   17.3560   12.3490 C.3   104  CYS104      0.0997
     59  SG       -11.6700   17.5930   13.8280 S.3   104  CYS104     -0.0797
     60  N         -9.8680   16.6200   10.0970 N.am  105  HIS105     -0.1959
     61  CA        -8.8910   15.6140    9.6840 C.3   105  HIS105      0.1787
     62  C         -7.8230   15.3450   10.7340 C.2   105  HIS105      0.2620
     63  O         -7.1500   16.2740   11.1850 O.2   105  HIS105     -0.2715
     64  CB        -8.2650   16.0050    8.3320 C.3   105  HIS105      0.0785
     65  CG        -7.2940   15.0100    7.7750 C.ar  105  HIS105      0.0821
     66  ND1       -7.6160   13.6680    7.6560 N.ar  105  HIS105     -0.2267
     67  CD2       -6.0540   15.2070    7.2700 C.ar  105  HIS105      0.1154
     68  CE1       -6.5520   13.0910    7.1190 C.ar  105  HIS105      0.1986
     69  NE2       -5.5910   13.9780    6.8650 N.ar  105  HIS105     -0.2212
     70  N         -7.6640   14.0630   11.1040 N.am  106  ALA106     -0.1977
     71  CA        -6.6670   13.6030   12.0740 C.3   106  ALA106      0.1597
     72  C         -5.3870   13.1520   11.3870 C.2   106  ALA106      0.2287
     73  O         -5.4320   12.6510   10.2610 O.2   106  ALA106     -0.2864
     74  CB        -7.2350   12.4660   12.9080 C.3   106  ALA106      0.0319
     75  N         -4.6430    9.5410    9.5200 N.3   109  ASP109     -0.1239
     76  CA        -6.0100    9.0040    9.4840 C.3   109  ASP109      0.1674
     77  C         -6.4350    8.2370   10.7540 C.2   109  ASP109      0.2266
     78  O         -7.2910    7.3490   10.6760 O.2   109  ASP109     -0.2867
     79  CB        -6.2810    8.1990    8.1960 C.3   109  ASP109      0.1410
     80  CG        -6.4160    9.0500    6.9500 C.2   109  ASP109      0.3668
     81  OD1       -7.5150    9.5990    6.7250 O.co2 109  ASP109     -0.2456
     82  OD2       -5.4360    9.1300    6.1780 O.co2 109  ASP109     -0.2456
     83  N        -16.3510   10.7070   14.0250 N.3   130  ASN130     -0.1225
     84  CA       -15.9160   11.7820   13.1930 C.3   130  ASN130      0.1785
     85  C        -16.6320   11.7130   11.8930 C.2   130  ASN130      0.2598
     86  O        -16.7350   10.6880   11.2920 O.2   130  ASN130     -0.2718
     87  CB       -14.4340   11.6700   12.9640 C.3   130  ASN130      0.1169
     88  CG       -13.8780   12.8560   12.2970 C.2   130  ASN130      0.2627
     89  OD1      -14.5010   13.8860   12.2510 O.2   130  ASN130     -0.2716
     90  ND2      -12.6950   12.7260   11.7650 N.am  130  ASN130     -0.0877
     91  N        -17.1220   12.8540   11.4790 N.am  131  SER131     -0.1938
     92  CA       -17.9180   13.0490   10.2800 C.3   131  SER131      0.2055
     93  C        -17.6640   14.4510    9.7390 C.2   131  SER131      0.2643
     94  O        -17.3380   15.3600   10.5100 O.2   131  SER131     -0.2714
     95  CB       -19.3980   12.8780   10.6170 C.3   131  SER131      0.2130
     96  OG       -20.2210   13.0550    9.4770 O.3   131  SER131     -0.2179
     97  N        -17.8430   14.5230    8.4430 N.am  132  ASN132     -0.1971
     98  CA       -17.6840   15.7530    7.6780 C.3   132  ASN132      0.1688
     99  C        -18.8990   16.6480    7.8110 C.2   132  ASN132      0.2292
    100  O        -20.0180   16.1640    7.9960 O.2   132  ASN132     -0.2864
    101  CB       -17.3870   15.4520    6.2070 C.3   132  ASN132      0.1181
    102  CG       -16.0180   14.8630    5.9710 C.2   132  ASN132      0.2629
    103  OD1      -15.0650   15.1100    6.7190 O.2   132  ASN132     -0.2716
    104  ND2      -15.8890   14.0720    4.9190 N.am  132  ASN132     -0.0877
    105  N        -20.9180   19.5170    5.7820 N.3   134  THR134     -0.1218
    106  CA       -21.1250   20.2260    4.5260 C.3   134  THR134      0.1862
    107  C        -22.3050   21.1710    4.6800 C.2   134  THR134      0.2287
    108  O        -23.4290   20.7240    4.9320 O.2   134  THR134     -0.2866
    109  CB       -21.2600   19.2700    3.3280 C.3   134  THR134      0.1770
    110  OG1      -22.3490   18.3770    3.5580 O.3   134  THR134     -0.2211
    111  CG2      -19.9860   18.4870    3.0490 C.3   134  THR134      0.0375
@<TRIPOS>BOND
     1     9     7   am
     2     6     7    1
     3     6     5    1
     4     7     8    2
     5     5     2    1
     6     2     1    1
     7     2     3    1
     8     3     4    2
     9     3    10   am
    10    10    16    1
    11    10    11    1
    12    16    15    1
    13    11    12    1
    14    11    14    1
    15    15    14    1
    16    13    12    2
    17    12    17   am
    18    17    18    1
    19    17    23    1
    20    18    21    1
    21    18    19    1
    22    23    22    1
    23    21    22    1
    24    20    19    2
    25    19    24   am
    26    24    25    1
    27    27    26    2
    28    26    25    1
    29    25    28    1
    30    30    32   ar
    31    30    29   ar
    32    42    39    1
    33    32    33   ar
    34    28    29    1
    35    29    31   ar
    36    33    31   ar
    37    33    35   ar
    38    38    39    1
    39    31    34   ar
    40    35    37   ar
    41    34    36   ar
    42    37    36   ar
    43   111   109    1
    44    39    40    1
    45   109   110    1
    46   109   106    1
    47    41    40    2
    48   106   107    1
    49   106   105    1
    50   107   108    2
    51    52    51    1
    52   104   102   am
    53    51    53    1
    54    51    50    2
    55    49    50    1
    56    49    48    1
    57   102   101    1
    58   102   103    2
    59    82    80   ar
    60   101    98    1
    61    47    48    1
    62    47    44    1
    63    81    80   ar
    64    69    68   ar
    65    69    67   ar
    66    80    79    1
    67    68    66   ar
    68    43    44    1
    69    67    65   ar
    70    44    45    1
    71    66    65   ar
    72    98    99    1
    73    98    97    1
    74    65    64    1
    75    99   100    2
    76    79    76    1
    77    64    61    1
    78    97    93   am
    79    46    45    2
    80    45    54   am
    81    96    95    1
    82    76    75    1
    83    76    77    1
    84    61    60    1
    85    61    62    1
    86    93    92    1
    87    93    94    2
    88    54    55    1
    89    60    56   am
    90    73    72    2
    91    92    95    1
    92    92    91    1
    93    78    77    2
    94    62    70   am
    95    62    63    2
    96    56    55    1
    97    56    57    2
    98    55    58    1
    99    70    71    1
   100    86    85    2
   101    72    71    1
   102    91    85   am
   103    90    88   am
   104    85    84    1
   105    71    74    1
   106    89    88    2
   107    88    87    1
   108    58    59    1
   109    87    84    1
   110    84    83    1
