@<TRIPOS>MOLECULE
tmp/3rjdA00.pdb
 86 81 0 0 0
SMALL
GASTEIGER

@<TRIPOS>ATOM
      1  N          4.4600   30.2850   -7.6630 N.3    38  LEU38      -0.1231
      2  CA         4.4750   30.0950   -6.2110 C.3    38  LEU38       0.1693
      3  C          5.0460   31.3780   -5.6060 C.2    38  LEU38       0.2592
      4  O          6.1910   31.7220   -5.8950 O.2    38  LEU38      -0.2718
      5  CB         5.3630   28.8880   -5.8360 C.3    38  LEU38       0.0284
      6  CG         4.8820   27.9710   -4.7020 C.3    38  LEU38       0.0019
      7  CD1        5.6130   26.6440   -4.7410 C.3    38  LEU38       0.0001
      8  CD2        5.0630   28.6090   -3.3280 C.3    38  LEU38       0.0001
      9  N          4.3350   32.1870   -4.7820 N.am   39  ASN39      -0.1974
     10  CA         4.6290   33.4530   -4.1010 C.3    39  ASN39       0.1688
     11  C          5.1090   34.5330   -5.1040 C.2    39  ASN39       0.2292
     12  O          6.0660   35.2660   -4.8360 O.2    39  ASN39      -0.2864
     13  CB         5.6360   33.2330   -2.9510 C.3    39  ASN39       0.1181
     14  CG         5.2240   32.2050   -1.9190 C.2    39  ASN39       0.2629
     15  OD1        4.1220   31.6440   -1.9560 O.2    39  ASN39      -0.2716
     16  ND2        6.1150   31.9310   -0.9740 N.am   39  ASN39      -0.0877
     17  N          6.8260   22.4270    4.6210 N.3    57  VAL57      -0.1231
     18  CA         6.6200   23.8490    4.9580 C.3    57  VAL57       0.1692
     19  C          6.8260   24.8550    3.8250 C.2    57  VAL57       0.2592
     20  O          6.1110   25.8560    3.7860 O.2    57  VAL57      -0.2718
     21  CB         7.3100   24.3030    6.2650 C.3    57  VAL57       0.0266
     22  CG1        6.6050   23.7240    7.4870 C.3    57  VAL57       0.0020
     23  CG2        8.8010   23.9670    6.2630 C.3    57  VAL57       0.0020
     24  N          7.7870   24.5900    2.9180 N.am   58  ASN58      -0.1974
     25  CA         8.0110   25.5240    1.8190 C.3    58  ASN58       0.1688
     26  C          7.0180   25.3690    0.6610 C.2    58  ASN58       0.2292
     27  O          6.8770   26.2980   -0.1390 O.2    58  ASN58      -0.2864
     28  CB         9.4890   25.5680    1.3960 C.3    58  ASN58       0.1181
     29  CG        10.3960   26.1670    2.4570 C.2    58  ASN58       0.2629
     30  OD1       10.0020   27.0560    3.2300 O.2    58  ASN58      -0.2716
     31  ND2       11.6390   25.7010    2.5250 N.am   58  ASN58      -0.0877
     32  N          3.9420   25.5040    1.1120 N.3    60  SER60      -0.1202
     33  CA         2.9060   26.4500    1.5160 C.3    60  SER60       0.2020
     34  C          3.0630   27.7420    0.7030 C.2    60  SER60       0.2619
     35  O          4.1670   28.0540    0.2390 O.2    60  SER60      -0.2717
     36  CB         3.0260   26.7790    3.0040 C.3    60  SER60       0.2103
     37  OG         2.6770   25.6870    3.8370 O.3    60  SER60      -0.2182
     38  N          1.9690   28.4770    0.5420 N.am   61  GLY61      -0.1956
     39  CA         1.9910   29.7480   -0.1650 C.3    61  GLY61       0.1869
     40  C          0.8570   29.9900   -1.1320 C.2    61  GLY61       0.2309
     41  O         -0.1050   29.2200   -1.1890 O.2    61  GLY61      -0.2863
     42  N         -4.3470   30.0990   -1.7680 N.3    77  GLN77      -0.1231
     43  CA        -3.3820   29.8990   -0.6890 C.3    77  GLN77       0.1698
     44  C         -3.4440   28.4750   -0.1490 C.2    77  GLN77       0.2592
     45  O         -4.4870   28.0380    0.3310 O.2    77  GLN77      -0.2718
     46  CB        -3.5710   30.9300    0.4390 C.3    77  GLN77       0.0381
     47  CG        -3.2080   32.3700    0.0500 C.3    77  GLN77       0.0905
     48  CD        -1.7630   32.7600    0.3000 C.2    77  GLN77       0.2608
     49  OE1       -0.9180   31.9610    0.7240 O.2    77  GLN77      -0.2717
     50  NE2       -1.4510   34.0240    0.0510 N.am   77  GLN77      -0.0878
     51  N         -2.3290   27.7460   -0.2490 N.am   78  LEU78      -0.1966
     52  CA        -2.2130   26.3770    0.2500 C.3    78  LEU78       0.1728
     53  C         -1.3230   26.3790    1.5020 C.2    78  LEU78       0.2619
     54  O         -0.2420   26.9570    1.4680 O.2    78  LEU78      -0.2715
     55  CB        -1.6190   25.4780   -0.8500 C.3    78  LEU78       0.0311
     56  CG        -1.6700   23.9670   -0.6300 C.3    78  LEU78       0.0022
     57  CD1       -3.0210   23.3960   -1.0540 C.3    78  LEU78       0.0001
     58  CD2       -0.5630   23.2810   -1.4080 C.3    78  LEU78       0.0001
     59  N         -1.7850   25.7750    2.6090 N.am   79  GLU79      -0.1918
     60  CA        -0.9930   25.7260    3.8450 C.3    79  GLU79       0.1949
     61  C         -0.7400   24.3250    4.3920 C.2    79  GLU79       0.2658
     62  O         -1.6760   23.5620    4.6270 O.2    79  GLU79      -0.2711
     63  CB        -1.4980   26.7040    4.9310 C.2    79  GLU79       0.0111
     64  CG        -2.9290   26.4890    5.4160 C.2    79  GLU79       0.0838
     65  CD        -3.4490   27.4800    6.4430 C.2    79  GLU79       0.3877
     66  OE1       -4.1890   27.0490    7.3570 O.co2  79  GLU79      -0.2406
     67  OE2       -3.1280   28.6860    6.3330 O.co2  79  GLU79      -0.2406
     68  N          0.5390   23.9790    4.5700 N.am   80  ILE80      -0.1974
     69  CA         0.8990   22.6790    5.1250 C.3    80  ILE80       0.1596
     70  C          1.1850   22.7730    6.6310 C.2    80  ILE80       0.2287
     71  O          1.8550   23.7090    7.0690 O.2    80  ILE80      -0.2864
     72  CB         1.8220   21.7740    4.2330 C.3    80  ILE80       0.0276
     73  CG1        2.7630   20.7980    4.9880 C.3    80  ILE80       0.0022
     74  CG2        2.4640   22.4920    3.0520 C.3    80  ILE80       0.0022
     75  CD1        3.8870   21.3730    5.9110 C.3    80  ILE80       0.0001
     76  N          1.7090   20.7380   10.7350 N.3    82  ARG82      -0.1245
     77  CA         1.9350   19.6340   11.6020 C.3    82  ARG82       0.1563
     78  C          1.1050   19.6660   12.7410 C.2    82  ARG82       0.2260
     79  O          0.8960   20.5780   13.1840 O.2    82  ARG82      -0.2867
     80  CB         3.1820   19.8410   12.2770 C.3    82  ARG82       0.0307
     81  CG         4.1930   20.2660   11.4790 C.3    82  ARG82       0.0489
     82  CD         5.5120   20.0160   11.9950 C.3    82  ARG82       0.2205
     83  NE         5.5850   18.6760   12.5330 N.pl3  82  ARG82      -0.0865
     84  CZ         6.6540   18.0840   13.0510 C.cat  82  ARG82       0.5346
     85  NH1        7.8170   18.6780   13.0890 N.pl3  82  ARG82       0.1354
     86  NH2        6.5400   16.8920   13.5340 N.pl3  82  ARG82       0.1354
@<TRIPOS>BOND
     1     1     2    1
     2     2     5    1
     3     2     3    1
     4     4     3    2
     5     5     6    1
     6     3     9   am
     7    11    12    2
     8    11    10    1
     9     9    10    1
    10     7     6    1
    11     6     8    1
    12    10    13    1
    13    13    14    1
    14    15    14    2
    15    14    16   am
    16    42    43    1
    17    58    56    1
    18    41    40    2
    19    40    39    1
    20    57    56    1
    21    55    56    1
    22    55    52    1
    23    43    44    1
    24    43    46    1
    25    51    44   am
    26    51    52    1
    27    39    38    1
    28    44    45    2
    29    27    26    2
    30    47    48    1
    31    47    46    1
    32    50    48   am
    33    35    34    2
    34    52    53    1
    35    48    49    2
    36    38    34   am
    37    26    25    1
    38    34    33    1
    39    32    33    1
    40    28    25    1
    41    28    29    1
    42    54    53    2
    43    53    59   am
    44    33    36    1
    45    25    24    1
    46    29    31   am
    47    29    30    2
    48    59    60    1
    49    24    19   am
    50    36    37    1
    51    74    72    1
    52    20    19    2
    53    19    18    1
    54    60    61    1
    55    60    63    1
    56    72    73    1
    57    72    69    1
    58    61    68   am
    59    61    62    2
    60    68    69    1
    61    17    18    1
    62    63    64    2
    63    18    21    1
    64    73    75    1
    65    69    70    1
    66    64    65    1
    67    23    21    1
    68    21    22    1
    69    67    65   ar
    70    65    66   ar
    71    70    71    2
    72    76    77    1
    73    81    82    1
    74    81    80    1
    75    77    80    1
    76    77    78    1
    77    82    83    1
    78    83    84    2
    79    78    79    2
    80    84    85    1
    81    84    86    1
