@<TRIPOS>MOLECULE
tmp/3rjdA04.pdb
 71 67 0 0 0
SMALL
GASTEIGER

@<TRIPOS>ATOM
      1  N        -15.6910   30.7780   15.3400 N.3   120  ASN120     -0.1240
      2  CA       -15.2870   31.9460   16.1290 C.3   120  ASN120      0.1653
      3  C        -15.1970   31.6170   17.6320 C.2   120  ASN120      0.2266
      4  O        -15.6160   32.4100   18.4810 O.2   120  ASN120     -0.2867
      5  CB       -16.1990   33.1620   15.8270 C.3   120  ASN120      0.1155
      6  CG       -16.0760   33.6790   14.4150 C.2   120  ASN120      0.2627
      7  OD1      -14.9850   33.7260   13.8300 O.2   120  ASN120     -0.2716
      8  ND2      -17.1870   34.1230   13.8450 N.am  120  ASN120     -0.0877
      9  N        -23.8550   34.8830    5.4380 N.3   140  ILE140     -0.1245
     10  CA       -22.9690   35.6970    6.2790 C.3   140  ILE140      0.1561
     11  C        -22.7520   35.2180    7.7180 C.2   140  ILE140      0.2260
     12  O        -21.7760   35.6310    8.3460 O.2   140  ILE140     -0.2867
     13  CB       -23.2590   37.2240    6.1830 C.3   140  ILE140      0.0252
     14  CG1      -24.7750   37.5530    6.2050 C.3   140  ILE140      0.0019
     15  CG2      -22.5740   37.8240    4.9580 C.3   140  ILE140      0.0019
     16  CD1      -25.4070   37.6420    7.6040 C.3   140  ILE140      0.0001
     17  N        -19.5020   33.1580    8.1940 N.3   143  ASN143     -0.1225
     18  CA       -18.2490   33.9060    8.1280 C.3   143  ASN143      0.1785
     19  C        -17.5010   33.7140    9.4260 C.2   143  ASN143      0.2598
     20  O        -18.1170   33.6520   10.4910 O.2   143  ASN143     -0.2718
     21  CB       -18.5060   35.4030    7.9180 C.3   143  ASN143      0.1169
     22  CG       -17.4550   36.0940    7.0890 C.2   143  ASN143      0.2627
     23  OD1      -17.3000   35.8020    5.9070 O.2   143  ASN143     -0.2716
     24  ND2      -16.7060   37.0400    7.6530 N.am  143  ASN143     -0.0877
     25  N        -16.1810   33.6310    9.3360 N.am  144  GLY144     -0.1942
     26  CA       -15.3410   33.5040   10.5170 C.3   144  GLY144      0.2014
     27  C        -14.3320   32.3850   10.5080 C.2   144  GLY144      0.2639
     28  O        -14.2040   31.6440    9.5300 O.2   144  GLY144     -0.2714
     29  N        -13.6070   32.2790   11.6240 N.am  145  THR145     -0.1950
     30  CA       -12.5680   31.2880   11.8600 C.3   145  THR145      0.1897
     31  C        -13.1420   29.9730   12.3820 C.2   145  THR145      0.2313
     32  O        -13.9080   29.9670   13.3450 O.2   145  THR145     -0.2863
     33  CB       -11.3290   31.8820   12.5770 C.3   145  THR145      0.1794
     34  OG1      -10.6480   30.8640   13.3090 O.3   145  THR145     -0.2208
     35  CG2      -11.6640   33.0220   13.5020 C.3   145  THR145      0.0378
     36  N         -9.5780   30.9550    8.6060 N.3   162  SER162     -0.1202
     37  CA       -10.5160   32.0300    8.3460 C.3   162  SER162      0.2020
     38  C        -11.2150   31.7530    7.0240 C.2   162  SER162      0.2619
     39  O        -10.5500   31.5410    6.0050 O.2   162  SER162     -0.2717
     40  CB        -9.7880   33.3700    8.2690 C.3   162  SER162      0.2103
     41  OG        -8.9610   33.5910    9.3990 O.3   162  SER162     -0.2182
     42  N        -12.5530   31.7100    7.0480 N.am  163  VAL163     -0.1965
     43  CA       -13.3540   31.5500    5.8380 C.3   163  VAL163      0.1727
     44  C        -14.1410   32.8380    5.6110 C.2   163  VAL163      0.2617
     45  O        -14.6980   33.3950    6.5610 O.2   163  VAL163     -0.2715
     46  CB       -14.1650   30.2200    5.6550 C.3   163  VAL163      0.0290
     47  CG1      -13.5470   29.0550    6.4220 C.3   163  VAL163      0.0023
     48  CG2      -15.6420   30.3740    5.9890 C.3   163  VAL163      0.0023
     49  N        -14.0880   33.3640    4.3860 N.am  164  THR164     -0.1937
     50  CA       -14.7770   34.5970    4.0320 C.3   164  THR164      0.2028
     51  C        -15.9590   34.2870    3.1350 C.2   164  THR164      0.2642
     52  O        -15.7790   33.8450    2.0000 O.2   164  THR164     -0.2714
     53  CB       -13.7940   35.6640    3.4980 C.3   164  THR164      0.1808
     54  OG1      -12.8970   36.0140    4.5510 O.3   164  THR164     -0.2208
     55  CG2      -14.4920   36.9250    3.0110 C.3   164  THR164      0.0379
     56  N        -17.1650   34.4720    3.6800 N.am  165  VAL165     -0.1963
     57  CA       -18.4270   34.2930    2.9730 C.3   165  VAL165      0.1727
     58  C        -18.8400   35.7040    2.5440 C.2   165  VAL165      0.2616
     59  O        -19.1880   36.5300    3.3900 O.2   165  VAL165     -0.2715
     60  CB       -19.5220   33.5740    3.8150 C.3   165  VAL165      0.0290
     61  CG1      -20.7380   33.2420    2.9570 C.3   165  VAL165      0.0023
     62  CG2      -18.9780   32.3070    4.4750 C.3   165  VAL165      0.0023
     63  N        -18.7050   36.0010    1.2450 N.am  166  LYS166     -0.1977
     64  CA       -19.0410   37.3120    0.6970 C.3   166  LYS166      0.1596
     65  C        -20.5390   37.4450    0.4450 C.2   166  LYS166      0.2287
     66  O        -21.1570   36.5490   -0.1410 O.2   166  LYS166     -0.2864
     67  CB       -18.2410   37.6080   -0.5800 C.3   166  LYS166      0.0298
     68  CG       -16.7780   37.9400   -0.3170 C.3   166  LYS166      0.0038
     69  CD       -16.1390   38.6510   -1.5050 C.3   166  LYS166      0.0206
     70  CE       -14.6440   38.8360   -1.3600 C.3   166  LYS166      0.1093
     71  NZ       -14.2830   39.7960   -0.2810 N.3   166  LYS166     -0.1314
@<TRIPOS>BOND
     1    69    70    1
     2    69    68    1
     3    70    71    1
     4    67    68    1
     5    67    64    1
     6    66    65    2
     7    65    64    1
     8    64    63    1
     9    63    58   am
    10    52    51    2
    11    58    57    1
    12    58    59    2
    13    61    60    1
    14    57    56    1
    15    57    60    1
    16    55    53    1
    17    51    56   am
    18    51    50    1
    19    53    50    1
    20    53    54    1
    21    60    62    1
    22    50    49    1
    23    49    44   am
    24    15    13    1
    25     9    10    1
    26    44    43    1
    27    44    45    2
    28    46    43    1
    29    46    48    1
    30    46    47    1
    31    43    42    1
    32    23    22    2
    33    39    38    2
    34    13    14    1
    35    13    10    1
    36    14    16    1
    37    10    11    1
    38    38    42   am
    39    38    37    1
    40    22    24   am
    41    22    21    1
    42    11    12    2
    43    21    18    1
    44    18    17    1
    45    18    19    1
    46    40    37    1
    47    40    41    1
    48    37    36    1
    49    25    19   am
    50    25    26    1
    51    19    20    2
    52    28    27    2
    53    27    26    1
    54    27    29   am
    55    29    30    1
    56    30    31    1
    57    30    33    1
    58    31    32    2
    59    33    34    1
    60    33    35    1
    61     7     6    2
    62     8     6   am
    63     6     5    1
    64     1     2    1
    65     5     2    1
    66     2     3    1
    67     3     4    2
