@<TRIPOS>MOLECULE
tmp/3rjiA00.pdb
 144 136 0 0 0
SMALL
GASTEIGER

@<TRIPOS>ATOM
      1  N         18.1820   -1.6560    9.1550 N.3    31  ARG31      -0.1245
      2  CA        16.7270   -1.6890    9.2010 C.3    31  ARG31       0.1563
      3  C         16.1680   -2.2210    7.8890 C.2    31  ARG31       0.2260
      4  O         15.2340   -3.0170    7.8870 O.2    31  ARG31      -0.2867
      5  CB        16.1820   -0.2790    9.4400 C.3    31  ARG31       0.0307
      6  CG        16.4660    0.2370   10.8280 C.3    31  ARG31       0.0489
      7  CD        15.2760    0.0040   11.7210 C.3    31  ARG31       0.2205
      8  NE        14.3400    1.1140   11.5860 N.pl3  31  ARG31      -0.0865
      9  CZ        13.0230    0.9830   11.5170 C.cat  31  ARG31       0.5346
     10  NH1       12.4640   -0.2170   11.5620 N.pl3  31  ARG31       0.1354
     11  NH2       12.2690    2.0620   11.4180 N.pl3  31  ARG31       0.1354
     12  N          3.1460   -3.5450   25.1560 N.3   140  ARG140     -0.1245
     13  CA         2.3640   -3.4510   23.9200 C.3   140  ARG140      0.1563
     14  C          0.8940   -3.1800   24.2570 C.2   140  ARG140      0.2260
     15  O          0.4410   -3.4520   25.3720 O.2   140  ARG140     -0.2867
     16  CB         2.4470   -4.7660   23.1410 C.3   140  ARG140      0.0307
     17  CG         3.8530   -5.2670   22.8390 C.3   140  ARG140      0.0489
     18  CD         4.4090   -4.5890   21.6220 C.3   140  ARG140      0.2205
     19  NE         3.4970   -4.7310   20.4950 N.pl3 140  ARG140     -0.0865
     20  CZ         3.7480   -4.2750   19.2760 C.cat 140  ARG140      0.5346
     21  NH1        4.8900   -3.6510   19.0280 N.pl3 140  ARG140      0.1354
     22  NH2        2.8570   -4.4360   18.3100 N.pl3 140  ARG140      0.1354
     23  N         -1.2220    4.4140   12.0240 N.3   170  GLY170     -0.1210
     24  CA        -0.1560    3.5890   12.5570 C.3   170  GLY170      0.1956
     25  C         -0.3860    2.1050   12.3330 C.2   170  GLY170      0.2612
     26  O         -1.0780    1.7060   11.3950 O.2   170  GLY170     -0.2717
     27  N          0.2090    1.2810   13.1930 N.am  171  SER171     -0.1952
     28  CA         0.0790   -0.1660   13.0880 C.3   171  SER171      0.1924
     29  C         -1.3810   -0.5950   13.2310 C.2   171  SER171      0.2314
     30  O         -1.7950   -1.6150   12.6770 O.2   171  SER171     -0.2863
     31  CB         0.9260   -0.8560   14.1680 C.3   171  SER171      0.2116
     32  OG         0.3730   -0.6550   15.4540 O.3   171  SER171     -0.2180
     33  N         -2.9590   -0.7000   10.0760 N.3   174  ARG174     -0.1245
     34  CA        -2.3900   -1.7640    9.2610 C.3   174  ARG174      0.1563
     35  C         -2.9040   -3.1340    9.6860 C.2   174  ARG174      0.2260
     36  O         -2.4230   -4.1540    9.2000 O.2   174  ARG174     -0.2867
     37  CB        -0.8570   -1.7380    9.3160 C.3   174  ARG174      0.0307
     38  CG        -0.2480   -0.4300    8.8320 C.3   174  ARG174      0.0489
     39  CD         1.2070   -0.6090    8.4680 C.3   174  ARG174      0.2205
     40  NE         2.0260   -1.0530    9.5910 N.pl3 174  ARG174     -0.0865
     41  CZ         2.5720   -0.2470   10.4930 C.cat 174  ARG174      0.5346
     42  NH1        2.3920    1.0680   10.4190 N.pl3 174  ARG174      0.1354
     43  NH2        3.3180   -0.7580   11.4660 N.pl3 174  ARG174      0.1354
     44  N         -0.4010   -2.8100   19.2670 N.3   179  SER179     -0.1202
     45  CA         0.2950   -1.5960   18.8610 C.3   179  SER179      0.2020
     46  C          1.2560   -1.0820   19.9170 C.2   179  SER179      0.2619
     47  O          1.0980   -1.3660   21.1030 O.2   179  SER179     -0.2717
     48  CB        -0.7230   -0.4900   18.5590 C.3   179  SER179      0.2103
     49  OG        -1.5430   -0.8410   17.4620 O.3   179  SER179     -0.2182
     50  N          2.2500   -0.3180   19.4680 N.am  180  GLY180     -0.1942
     51  CA         3.2100    0.2630   20.3810 C.3   180  GLY180      0.2014
     52  C          2.5800    1.4860   21.0220 C.2   180  GLY180      0.2638
     53  O          2.8900    1.8240   22.1650 O.2   180  GLY180     -0.2714
     54  N          1.6900    2.1540   20.2870 N.am  181  ASP181     -0.1971
     55  CA         1.0140    3.3380   20.8020 C.3   181  ASP181      0.1709
     56  C         -0.2000    3.6570   19.9440 C.2   181  ASP181      0.2293
     57  O         -0.5730    2.8860   19.0530 O.2   181  ASP181     -0.2864
     58  CB         1.9650    4.5420   20.7840 C.3   181  ASP181      0.1436
     59  CG         2.2490    5.0460   19.3660 C.2   181  ASP181      0.3671
     60  OD1        1.9140    4.3490   18.3900 O.co2 181  ASP181     -0.2456
     61  OD2        2.8240    6.1380   19.2210 O.co2 181  ASP181     -0.2456
     62  N         -1.8060    6.4240   17.3270 N.3   183  ASP183     -0.1239
     63  CA        -1.5290    7.5630   16.4680 C.3   183  ASP183      0.1674
     64  C         -2.8350    8.0220   15.8530 C.2   183  ASP183      0.2266
     65  O         -3.4840    7.2750   15.1140 O.2   183  ASP183     -0.2867
     66  CB        -0.5340    7.1620   15.3770 C.3   183  ASP183      0.1410
     67  CG         0.7320    6.5540   15.9510 C.2   183  ASP183      0.3668
     68  OD1        1.4760    7.2650   16.6670 O.co2 183  ASP183     -0.2456
     69  OD2        0.9790    5.3630   15.6900 O.co2 183  ASP183     -0.2456
     70  N         -0.1290   10.0910   20.0100 N.3   247  ASP247     -0.1239
     71  CA         0.2970   11.1630   19.1270 C.3   247  ASP247      0.1674
     72  C         -0.9150   11.5750   18.2980 C.2   247  ASP247      0.2266
     73  O         -1.6580   10.7240   17.7950 O.2   247  ASP247     -0.2867
     74  CB         1.4060   10.7010   18.1750 C.3   247  ASP247      0.1410
     75  CG         2.6540   10.2510   18.8950 C.2   247  ASP247      0.3668
     76  OD1        3.0900   10.9460   19.8420 O.co2 247  ASP247     -0.2456
     77  OD2        3.2110    9.2050   18.4960 O.co2 247  ASP247     -0.2456
     78  N          0.9460    8.8350    4.9460 N.3   262  TYR262     -0.1227
     79  CA         2.0830    9.0730    5.8370 C.3   262  TYR262      0.1736
     80  C          1.9080    8.4380    7.2280 C.2   262  TYR262      0.2595
     81  O          2.7640    7.6770    7.6860 O.2   262  TYR262     -0.2718
     82  CB         2.3090   10.5730    6.0070 C.3   262  TYR262      0.0548
     83  CG         3.0120   10.9290    7.2960 C.ar  262  TYR262     -0.0200
     84  CD1        4.3540   10.5970    7.5060 C.ar  262  TYR262     -0.0009
     85  CD2        2.3210   11.5600    8.3260 C.ar  262  TYR262     -0.0009
     86  CE1        4.9820   10.8860    8.7170 C.ar  262  TYR262      0.0417
     87  CE2        2.9380   11.8520    9.5350 C.ar  262  TYR262      0.0417
     88  CZ         4.2580   11.5150    9.7290 C.ar  262  TYR262      0.1957
     89  OH         4.8400   11.7810   10.9490 O.3   262  TYR262     -0.2866
     90  N          0.8030    8.7570    7.8920 N.am  263  PHE263     -0.1962
     91  CA         0.5380    8.2630    9.2400 C.3   263  PHE263      0.1771
     92  C          0.2580    6.7760    9.3730 C.2   263  PHE263      0.2620
     93  O          0.3150    6.2320   10.4800 O.2   263  PHE263     -0.2715
     94  CB        -0.6140    9.0580    9.8760 C.3   263  PHE263      0.0574
     95  CG        -0.3270    9.5260   11.2790 C.ar  263  PHE263     -0.0200
     96  CD1        0.9870    9.7830   11.6870 C.ar  263  PHE263     -0.0042
     97  CD2       -1.3690    9.7810   12.1710 C.ar  263  PHE263     -0.0042
     98  CE1        1.2590   10.2930   12.9560 C.ar  263  PHE263     -0.0003
     99  CE2       -1.1120   10.2930   13.4440 C.ar  263  PHE263     -0.0003
    100  CZ         0.2050   10.5510   13.8400 C.ar  263  PHE263     -0.0000
    101  N         -0.0500    6.1110    8.2630 N.am  264  THR264     -0.1937
    102  CA        -0.3000    4.6890    8.3190 C.3   264  THR264      0.2028
    103  C          1.0030    3.9050    8.3290 C.2   264  THR264      0.2643
    104  O          1.0730    2.8220    8.9040 O.2   264  THR264     -0.2714
    105  CB        -1.1830    4.2290    7.1490 C.3   264  THR264      0.1808
    106  OG1       -2.5040    4.7470    7.3320 O.3   264  THR264     -0.2208
    107  CG2       -1.2710    2.7170    7.1080 C.3   264  THR264      0.0379
    108  N          2.0390    4.4560    7.7030 N.am  265  GLY265     -0.1939
    109  CA         3.3260    3.7760    7.6770 C.3   265  GLY265      0.2014
    110  C          3.3000    2.4460    6.9470 C.2   265  GLY265      0.2640
    111  O          2.4720    2.2570    6.0600 O.2   265  GLY265     -0.2714
    112  N          4.1840    1.5110    7.3050 N.am  266  SER266     -0.1935
    113  CA         5.1780    1.6770    8.3730 C.3   266  SER266      0.2055
    114  C          6.2720    2.6900    8.0370 C.2   266  SER266      0.2643
    115  O          6.3580    3.1860    6.9170 O.2   266  SER266     -0.2714
    116  CB         5.8370    0.3320    8.6790 C.3   266  SER266      0.2130
    117  OG         6.6300   -0.0970    7.5830 O.3   266  SER266     -0.2179
    118  N          7.1130    2.9790    9.0240 N.am  267  ASP267     -0.1971
    119  CA         8.2000    3.9300    8.8430 C.3   267  ASP267      0.1709
    120  C          9.1150    3.4920    7.7160 C.2   267  ASP267      0.2293
    121  O          9.5250    4.3060    6.8950 O.2   267  ASP267     -0.2864
    122  CB         9.0010    4.0660   10.1370 C.3   267  ASP267      0.1436
    123  CG         9.4250    2.7250   10.7050 C.2   267  ASP267      0.3671
    124  OD1        9.2470    1.6810   10.0300 O.co2 267  ASP267     -0.2456
    125  OD2        9.9440    2.7140   11.8370 O.co2 267  ASP267     -0.2456
    126  N          7.2360    3.8210    4.3600 N.3   270  ASN270     -0.1240
    127  CA         7.2120    5.2100    3.9270 C.3   270  ASN270      0.1653
    128  C          8.5630    5.6070    3.3260 C.2   270  ASN270      0.2266
    129  O          8.6110    6.2350    2.2680 O.2   270  ASN270     -0.2867
    130  CB         6.8720    6.1410    5.0970 C.3   270  ASN270      0.1155
    131  CG         5.4020    6.0720    5.4940 C.2   270  ASN270      0.2627
    132  OD1        4.6060    5.3900    4.8510 O.2   270  ASN270     -0.2716
    133  ND2        5.0350    6.7860    6.5590 N.am  270  ASN270     -0.0877
    134  N          8.9120    6.7080   -0.4210 N.3   274  ARG274     -0.1245
    135  CA         9.4300    8.0250   -0.7650 C.3   274  ARG274      0.1563
    136  C         10.7080    7.9320   -1.6060 C.2   274  ARG274      0.2260
    137  O         10.9440    8.7670   -2.4850 O.2   274  ARG274     -0.2867
    138  CB         9.6600    8.8430    0.5090 C.3   274  ARG274      0.0307
    139  CG         8.3590    9.0720    1.2670 C.3   274  ARG274      0.0489
    140  CD         8.4590   10.0740    2.3920 C.3   274  ARG274      0.2205
    141  NE         7.1390   10.3020    2.9920 N.pl3 274  ARG274     -0.0865
    142  CZ         6.9040   11.1360    4.0040 C.cat 274  ARG274      0.5346
    143  NH1        7.8960   11.8390    4.5400 N.pl3 274  ARG274      0.1354
    144  NH2        5.6770   11.2510    4.4970 N.pl3 274  ARG274      0.1354
@<TRIPOS>BOND
     1   137   136    2
     2   136   135    1
     3   135   134    1
     4   135   138    1
     5   138   139    1
     6   139   140    1
     7   129   128    2
     8   140   141    1
     9   141   142    2
    10   128   127    1
    11   127   126    1
    12   127   130    1
    13   142   144    1
    14   142   143    1
    15   132   131    2
    16    78    79    1
    17   130   131    1
    18   131   133   am
    19    79    82    1
    20    79    80    1
    21    82    83    1
    22   111   110    2
    23   121   120    2
    24   115   114    2
    25   110   112   am
    26   110   109    1
    27   107   105    1
    28   105   106    1
    29   105   102    1
    30    80    81    2
    31    80    90   am
    32    83    84   ar
    33    83    85   ar
    34   112   113    1
    35    84    86   ar
    36   117   116    1
    37   109   108    1
    38   108   103   am
    39   120   119    1
    40     4     3    2
    41     3     2    1
    42    90    91    1
    43   114   113    1
    44   114   118   am
    45   101   102    1
    46   101    92   am
    47   102   103    1
    48    85    87   ar
    49   103   104    2
    50   113   116    1
    51    39    38    1
    52    39    40    1
    53    86    88   ar
    54    38    37    1
    55   119   118    1
    56   119   122    1
    57     1     2    1
    58    36    35    2
    59     2     5    1
    60    91    92    1
    61    91    94    1
    62    34    37    1
    63    34    35    1
    64    34    33    1
    65    92    93    2
    66     5     6    1
    67    87    88   ar
    68    40    41    2
    69    88    89    1
    70    94    95    1
    71   124   123   ar
    72   122   123    1
    73    42    41    1
    74    41    43    1
    75   123   125   ar
    76     6     7    1
    77    95    96   ar
    78    95    97   ar
    79    26    25    2
    80    11     9    1
    81     9    10    1
    82     9     8    2
    83     8     7    1
    84    96    98   ar
    85    23    24    1
    86    97    99   ar
    87    25    24    1
    88    25    27   am
    89    30    29    2
    90    98   100   ar
    91    28    27    1
    92    28    29    1
    93    28    31    1
    94    99   100   ar
    95    31    32    1
    96    65    64    2
    97    66    67    1
    98    66    63    1
    99    69    67   ar
   100    64    63    1
   101    67    68   ar
   102    63    62    1
   103    49    48    1
   104    73    72    2
   105    74    75    1
   106    74    71    1
   107    72    71    1
   108    22    20    1
   109    60    59   ar
   110    77    75   ar
   111    48    45    1
   112    45    44    1
   113    45    46    1
   114    75    76   ar
   115    21    20    1
   116    57    56    2
   117    71    70    1
   118    61    59   ar
   119    20    19    2
   120    59    58    1
   121    50    46   am
   122    50    51    1
   123    46    47    2
   124    56    55    1
   125    54    55    1
   126    54    52   am
   127    51    52    1
   128    19    18    1
   129    58    55    1
   130    52    53    2
   131    18    17    1
   132    17    16    1
   133    16    13    1
   134    13    14    1
   135    13    12    1
   136    14    15    2
