@<TRIPOS>MOLECULE
tmp/3rjmA00.pdb
 105 103 0 0 0
SMALL
GASTEIGER

@<TRIPOS>ATOM
      1  N          3.2880   -3.3460   31.3260 N.3    44  GLU44      -0.1231
      2  CA         3.6590   -4.7470   31.1540 C.3    44  GLU44       0.1699
      3  C          3.5030   -5.1740   29.6810 C.2    44  GLU44       0.2592
      4  O          2.5790   -4.7500   28.9790 O.2    44  GLU44      -0.2718
      5  CB         2.8590   -5.6620   32.0970 C.3    44  GLU44       0.0402
      6  CG         3.1100   -5.3170   33.5560 C.3    44  GLU44       0.1161
      7  CD         2.0060   -4.4220   34.0900 C.2    44  GLU44       0.3649
      8  OE1        1.1000   -4.0120   33.3300 O.co2  44  GLU44      -0.2457
      9  OE2        2.0420   -4.1350   35.3040 O.co2  44  GLU44      -0.2457
     10  N          4.4390   -5.9860   29.2080 N.am   45  PHE45      -0.1962
     11  CA         4.3690   -6.5270   27.8620 C.3    45  PHE45       0.1771
     12  C          3.0540   -7.2970   27.6390 C.2    45  PHE45       0.2619
     13  O          2.6890   -8.1910   28.4180 O.2    45  PHE45      -0.2715
     14  CB         5.5810   -7.4180   27.6130 C.3    45  PHE45       0.0574
     15  CG         5.4270   -8.3600   26.4490 C.ar   45  PHE45      -0.0200
     16  CD1        5.7310   -7.9500   25.1640 C.ar   45  PHE45      -0.0042
     17  CD2        5.0320   -9.6670   26.6510 C.ar   45  PHE45      -0.0042
     18  CE1        5.6070   -8.8140   24.1010 C.ar   45  PHE45      -0.0003
     19  CE2        4.9140  -10.5400   25.5980 C.ar   45  PHE45      -0.0003
     20  CZ         5.1870  -10.1140   24.3160 C.ar   45  PHE45      -0.0000
     21  N          2.3550   -6.9490   26.5630 N.am   46  ARG46      -0.1963
     22  CA         1.0180   -7.4690   26.3220 C.3    46  ARG46       0.1729
     23  C          1.1360   -8.8200   25.6640 C.2    46  ARG46       0.2616
     24  O          0.9950   -8.9870   24.4420 O.2    46  ARG46      -0.2715
     25  CB         0.1510   -6.4770   25.5140 C.3    46  ARG46       0.0348
     26  CG        -0.3440   -5.3070   26.3970 C.3    46  ARG46       0.0492
     27  CD        -1.2890   -4.2860   25.7070 C.3    46  ARG46       0.2205
     28  NE        -2.5660   -4.8780   25.3200 N.pl3  46  ARG46      -0.0865
     29  CZ        -2.8470   -5.3350   24.1100 C.cat  46  ARG46       0.5346
     30  NH1       -4.0310   -5.8740   23.8810 N.pl3  46  ARG46       0.1354
     31  NH2       -1.9640   -5.2740   23.1200 N.pl3  46  ARG46       0.1354
     32  N          1.4330   -9.7870   26.5090 N.am   47  SER47      -0.1950
     33  CA         1.5180  -11.1700   26.0900 C.3    47  SER47       0.1924
     34  C          0.1410  -11.5480   25.5840 C.2    47  SER47       0.2314
     35  O         -0.8530  -11.1870   26.2080 O.2    47  SER47      -0.2863
     36  CB         1.9160  -12.0590   27.2780 C.3    47  SER47       0.2116
     37  OG         2.7500  -13.1080   26.8360 O.3    47  SER47      -0.2180
     38  N         -3.9600   -1.9260   22.9570 N.3   103  SER103     -0.1202
     39  CA        -2.8430   -1.3410   23.6960 C.3   103  SER103      0.2020
     40  C         -3.2060   -1.3280   25.1600 C.2   103  SER103      0.2619
     41  O         -4.2320   -1.8640   25.5380 O.2   103  SER103     -0.2717
     42  CB        -2.5750    0.1020   23.2190 C.3   103  SER103      0.2103
     43  OG        -1.3410    0.6090   23.6980 O.3   103  SER103     -0.2182
     44  N         -2.3430   -0.7460   25.9760 N.am  104  HIS104     -0.1961
     45  CA        -2.6860   -0.3790   27.3410 C.3   104  HIS104      0.1790
     46  C         -3.3120    0.9970   27.2560 C.2   104  HIS104      0.2659
     47  O         -3.1320    1.7080   26.2600 O.2   104  HIS104     -0.2711
     48  CB        -1.4300   -0.2980   28.2140 C.3   104  HIS104      0.0785
     49  CG        -0.9290   -1.6260   28.6850 C.ar  104  HIS104      0.0821
     50  ND1       -1.7210   -2.5080   29.3890 N.ar  104  HIS104     -0.2267
     51  CD2        0.2870   -2.2130   28.5790 C.ar  104  HIS104      0.1154
     52  CE1       -1.0180   -3.5860   29.6890 C.ar  104  HIS104      0.1986
     53  NE2        0.2030   -3.4350   29.2060 N.ar  104  HIS104     -0.2212
     54  N         -4.0390    1.3780   28.2990 N.am  105  GLY105     -0.1730
     55  CA        -4.6450    2.7030   28.3380 C.2   105  GLY105      0.1340
     56  C         -5.2540    3.1680   29.6600 C.2   105  GLY105      0.2521
     57  O         -5.1730    2.4910   30.6890 O.2   105  GLY105     -0.2816
     58  N         -9.4530   -2.2710   22.4510 N.3   145  GLN145     -0.1231
     59  CA        -8.9460   -3.2100   23.4550 C.3   145  GLN145      0.1698
     60  C         -7.8590   -2.4910   24.2490 C.2   145  GLN145      0.2592
     61  O         -6.7200   -2.3870   23.8270 O.2   145  GLN145     -0.2718
     62  CB        -8.4040   -4.4770   22.7910 C.3   145  GLN145      0.0381
     63  CG        -7.8350   -5.5000   23.7660 C.3   145  GLN145      0.0905
     64  CD        -8.8910   -6.0680   24.6600 C.2   145  GLN145      0.2608
     65  OE1       -8.8360   -5.9630   25.8900 O.2   145  GLN145     -0.2717
     66  NE2       -9.8940   -6.6440   24.0410 N.am  145  GLN145     -0.0878
     67  N         -8.2480   -1.9520   25.3860 N.am  146  ALA146     -0.1966
     68  CA        -7.3370   -1.2500   26.2550 C.3   146  ALA146      0.1728
     69  C         -8.0430   -1.0600   27.5710 C.2   146  ALA146      0.2616
     70  O         -9.2440   -0.8480   27.6030 O.2   146  ALA146     -0.2715
     71  CB        -6.9670    0.0880   25.6690 C.3   146  ALA146      0.0334
     72  N         -7.2980   -1.1570   28.6600 N.am  147  CYS147     -0.1968
     73  CA        -7.8110   -0.8220   29.9800 C.3   147  CYS147      0.1712
     74  C         -8.2080    0.6520   30.0430 C.2   147  CYS147      0.2296
     75  O         -7.6900    1.4890   29.2920 O.2   147  CYS147     -0.2864
     76  CB        -6.7490   -1.1110   31.0420 C.3   147  CYS147      0.0983
     77  SG        -6.5030   -2.8880   31.4040 S.3   147  CYS147     -0.0798
     78  N         -8.4690    2.0380   33.2900 N.3   149  GLY149     -0.1210
     79  CA        -8.3090    2.0180   34.7380 C.3   149  GLY149      0.1956
     80  C         -7.4030    0.8890   35.2090 C.2   149  GLY149      0.2612
     81  O         -6.9330    0.0750   34.4000 O.2   149  GLY149     -0.2717
     82  N         -7.1950    0.8370   36.5300 N.am  150  ASP150     -0.1959
     83  CA        -6.2590   -0.0890   37.1750 C.3   150  ASP150      0.1840
     84  C         -6.8910   -1.0230   38.1980 C.2   150  ASP150      0.2622
     85  O         -6.2880   -2.0360   38.5710 O.2   150  ASP150     -0.2715
     86  CB        -5.1760    0.7210   37.9020 C.3   150  ASP150      0.1450
     87  CG        -4.1200    1.2620   36.9570 C.2   150  ASP150      0.3671
     88  OD1       -3.7260    0.5200   36.0190 O.co2 150  ASP150     -0.2456
     89  OD2       -3.6780    2.4210   37.1610 O.co2 150  ASP150     -0.2456
     90  N         -8.0640   -0.6640   38.6990 N.am  151  GLU151     -0.1963
     91  CA        -8.6690   -1.4300   39.7650 C.3   151  GLU151      0.1733
     92  C         -9.3070   -2.7020   39.1550 C.2   151  GLU151      0.2617
     93  O         -9.9310   -2.6530   38.0920 O.2   151  GLU151     -0.2715
     94  CB        -9.6790   -0.5600   40.5430 C.3   151  GLU151      0.0429
     95  CG        -9.0060    0.6470   41.1750 C.3   151  GLU151      0.1163
     96  CD        -9.1840    1.8760   40.3010 C.2   151  GLU151      0.3649
     97  OE1       -9.7540    1.7860   39.1910 O.co2 151  GLU151     -0.2457
     98  OE2       -8.7550    2.9600   40.7480 O.co2 151  GLU151     -0.2457
     99  N         -9.1020   -3.8360   39.8210 N.am  152  THR152     -0.1951
    100  CA        -9.7340   -5.1180   39.4540 C.3   152  THR152      0.1897
    101  C        -11.2370   -5.1270   39.7380 C.2   152  THR152      0.2313
    102  O        -11.6560   -4.6200   40.7740 O.2   152  THR152     -0.2863
    103  CB        -9.1310   -6.2730   40.3010 C.3   152  THR152      0.1794
    104  OG1       -7.7140   -6.3360   40.0960 O.3   152  THR152     -0.2208
    105  CG2       -9.7470   -7.5980   39.9220 C.3   152  THR152      0.0378
@<TRIPOS>BOND
     1    58    59    1
     2    62    59    1
     3    62    63    1
     4    38    39    1
     5    31    29    1
     6    42    39    1
     7    42    43    1
     8    59    60    1
     9    39    40    1
    10    63    64    1
    11    61    60    2
    12    30    29    1
    13    66    64   am
    14    18    20   ar
    15    18    16   ar
    16    29    28    2
    17    60    67   am
    18    20    19   ar
    19    24    23    2
    20    64    65    2
    21    40    41    2
    22    40    44   am
    23    16    15   ar
    24    28    27    1
    25    67    68    1
    26    25    22    1
    27    25    26    1
    28    34    33    1
    29    34    35    2
    30    19    17   ar
    31    23    22    1
    32    23    32   am
    33    71    68    1
    34    27    26    1
    35    44    45    1
    36    33    32    1
    37    33    36    1
    38    68    69    1
    39    47    46    2
    40    22    21    1
    41    15    17   ar
    42    15    14    1
    43    21    12   am
    44    37    36    1
    45    46    45    1
    46    46    54    1
    47    45    48    1
    48    69    70    2
    49    69    72   am
    50    14    11    1
    51    12    11    1
    52    12    13    2
    53    11    10    1
    54    48    49    1
    55    54    55    2
    56    55    56    1
    57    51    49   ar
    58    51    53   ar
    59    72    73    1
    60    49    50   ar
    61     4     3    2
    62    53    52   ar
    63    10     3   am
    64    75    74    2
    65    50    52   ar
    66    56    57    2
    67     3     2    1
    68    73    74    1
    69    73    76    1
    70    76    77    1
    71     2     1    1
    72     2     5    1
    73     5     6    1
    74    78    79    1
    75     8     7   ar
    76     6     7    1
    77     7     9   ar
    78    81    80    2
    79    79    80    1
    80    80    82   am
    81    88    87   ar
    82    82    83    1
    83    87    89   ar
    84    87    86    1
    85    83    86    1
    86    83    84    1
    87    93    92    2
    88    84    85    2
    89    84    90   am
    90    90    91    1
    91    92    91    1
    92    92    99   am
    93    97    96   ar
    94   100   101    1
    95   100    99    1
    96   100   103    1
    97   101   102    2
    98    91    94    1
    99   105   103    1
   100   104   103    1
   101    96    98   ar
   102    96    95    1
   103    94    95    1
