@<TRIPOS>MOLECULE
tmp/3rjmB00.pdb
 138 138 0 0 0
SMALL
GASTEIGER

@<TRIPOS>ATOM
      1  N        -10.6230   -2.3590   34.2600 N.3    22  ALA22      -0.1231
      2  CA        -9.5880   -3.0330   33.5040 C.3    22  ALA22       0.1694
      3  C        -10.2230   -4.0180   32.5410 C.2    22  ALA22       0.2592
      4  O        -11.3090   -4.5310   32.8000 O.2    22  ALA22      -0.2718
      5  CB        -8.6550   -3.7650   34.4620 C.3    22  ALA22       0.0304
      6  N         -9.5500   -4.2620   31.4280 N.am   23  ALA23      -0.1966
      7  CA        -9.9320   -5.3200   30.5000 C.3    23  ALA23       0.1728
      8  C         -9.0000   -6.4930   30.7620 C.2    23  ALA23       0.2616
      9  O         -7.8330   -6.2720   31.0410 O.2    23  ALA23      -0.2715
     10  CB        -9.7860   -4.8380   29.0680 C.3    23  ALA23       0.0334
     11  N         -9.4990   -7.7270   30.6640 N.am   24  MET24      -0.1963
     12  CA        -8.6980   -8.9190   30.9420 C.3    24  MET24       0.1736
     13  C         -8.1770   -9.5800   29.6640 C.2    24  MET24       0.2616
     14  O         -8.8340   -9.5680   28.6120 O.2    24  MET24      -0.2715
     15  CB        -9.5120   -9.9400   31.7500 C.3    24  MET24       0.0427
     16  CG       -10.0030   -9.4560   33.1000 C.3    24  MET24       0.0599
     17  SD        -8.7700   -8.5090   34.0380 S.3    24  MET24      -0.1393
     18  CE        -7.4520   -9.7260   34.1410 C.3    24  MET24       0.0692
     19  N         -6.9990  -10.1860   29.7870 N.am   25  ARG25      -0.1963
     20  CA        -6.3250  -10.8400   28.6750 C.3    25  ARG25       0.1729
     21  C         -5.6730  -12.1440   29.1290 C.2    25  ARG25       0.2616
     22  O         -4.9890  -12.1800   30.1480 O.2    25  ARG25      -0.2715
     23  CB        -5.2610   -9.9120   28.0970 C.3    25  ARG25       0.0348
     24  CG        -4.6540  -10.3800   26.7730 C.3    25  ARG25       0.0492
     25  CD        -3.6320   -9.3780   26.2580 C.3    25  ARG25       0.2205
     26  NE        -2.4650   -9.3700   27.1370 N.pl3  25  ARG25      -0.0865
     27  CZ        -2.2300   -8.4950   28.1120 C.cat  25  ARG25       0.5346
     28  NH1       -1.1310   -8.6100   28.8390 N.pl3  25  ARG25       0.1354
     29  NH2       -3.0740   -7.5060   28.3740 N.pl3  25  ARG25       0.1354
     30  N         -5.9080  -13.2110   28.3660 N.am   26  ASN26      -0.1958
     31  CA        -5.2520  -14.4950   28.5840 C.3    26  ASN26       0.1819
     32  C         -3.9620  -14.5470   27.7910 C.2    26  ASN26       0.2622
     33  O         -3.9480  -14.2800   26.5910 O.2    26  ASN26      -0.2715
     34  CB        -6.1490  -15.6670   28.1730 C.3    26  ASN26       0.1195
     35  CG        -5.3960  -17.0010   28.1630 C.2    26  ASN26       0.2630
     36  OD1       -4.3000  -17.1080   27.6080 O.2    26  ASN26      -0.2716
     37  ND2       -5.9830  -18.0140   28.7690 N.am   26  ASN26      -0.0877
     38  N         -2.8840  -14.9450   28.4610 N.am   27  THR27      -0.1937
     39  CA        -1.5420  -14.8420   27.8980 C.3    27  THR27       0.2028
     40  C         -1.2690  -15.8150   26.7510 C.2    27  THR27       0.2642
     41  O         -0.2560  -15.6920   26.0810 O.2    27  THR27      -0.2714
     42  CB        -0.5060  -15.0780   28.9890 C.3    27  THR27       0.1808
     43  OG1       -0.8630  -16.2620   29.7120 O.3    27  THR27      -0.2208
     44  CG2       -0.4410  -13.8740   29.9590 C.3    27  THR27       0.0379
     45  N         -2.1770  -16.7660   26.5340 N.am   28  LYS28      -0.1977
     46  CA        -2.0600  -17.7850   25.4970 C.3    28  LYS28       0.1596
     47  C         -3.1250  -17.5820   24.4280 C.2    28  LYS28       0.2287
     48  O         -2.8230  -17.6250   23.2400 O.2    28  LYS28      -0.2864
     49  CB        -2.1950  -19.1990   26.1090 C.3    28  LYS28       0.0298
     50  CG        -1.1430  -19.5420   27.1400 C.3    28  LYS28       0.0038
     51  CD         0.2450  -19.4760   26.5350 C.3    28  LYS28       0.0206
     52  CE         1.2600  -20.1790   27.4200 C.3    28  LYS28       0.1093
     53  NZ         1.1430  -19.6800   28.8180 N.3    28  LYS28      -0.1314
     54  N         -6.9030  -11.5080   24.3790 N.3    31  SER31      -0.1202
     55  CA        -7.9410  -10.7570   25.0980 C.3    31  SER31       0.2020
     56  C         -9.3090  -11.4340   25.0920 C.2    31  SER31       0.2618
     57  O         -9.6700  -12.1160   24.1360 O.2    31  SER31      -0.2717
     58  CB        -8.0760   -9.3670   24.5020 C.3    31  SER31       0.2103
     59  OG        -6.8530   -8.6520   24.6060 O.3    31  SER31      -0.2182
     60  N        -10.0670  -11.2440   26.1710 N.am   32  TRP32      -0.1975
     61  CA       -11.4110  -11.8030   26.2680 C.3    32  TRP32       0.1640
     62  C        -12.3020  -11.1590   25.2360 C.2    32  TRP32       0.2290
     63  O        -13.1150  -11.8110   24.6010 O.2    32  TRP32      -0.2864
     64  CB       -12.0160  -11.5290   27.6310 C.3    32  TRP32       0.0576
     65  CG       -11.3710  -12.2200   28.8000 C.ar   32  TRP32       0.0006
     66  CD1      -10.2540  -13.0040   28.7830 C.ar   32  TRP32       0.0946
     67  CD2      -11.7870  -12.1460   30.1730 C.ar   32  TRP32       0.0152
     68  NE1       -9.9630  -13.4320   30.0480 N.ar   32  TRP32      -0.2442
     69  CE2      -10.8850  -12.9260   30.9230 C.ar   32  TRP32       0.0810
     70  CE3      -12.8350  -11.5020   30.8390 C.ar   32  TRP32       0.0012
     71  CZ2      -10.9990  -13.0880   32.3090 C.ar   32  TRP32       0.0191
     72  CZ3      -12.9410  -11.6530   32.2260 C.ar   32  TRP32       0.0001
     73  CH2      -12.0340  -12.4430   32.9390 C.ar   32  TRP32       0.0015
     74  N        -17.7370  -14.6490   31.6020 N.3    64  ARG64      -0.1231
     75  CA       -16.3880  -15.0850   31.7950 C.3    64  ARG64       0.1694
     76  C        -15.8650  -14.6090   33.1510 C.2    64  ARG64       0.2592
     77  O        -16.3770  -13.6620   33.7360 O.2    64  ARG64      -0.2718
     78  CB       -15.5070  -14.6250   30.6480 C.3    64  ARG64       0.0321
     79  CG       -14.2150  -15.4100   30.5820 C.3    64  ARG64       0.0489
     80  CD       -13.5900  -15.3540   29.2290 C.3    64  ARG64       0.2205
     81  NE       -12.1960  -15.7790   29.2790 N.pl3  64  ARG64      -0.0865
     82  CZ       -11.4270  -15.9000   28.2150 C.cat  64  ARG64       0.5346
     83  NH1      -11.9180  -15.6260   27.0130 N.pl3  64  ARG64       0.1354
     84  NH2      -10.1700  -16.2910   28.3500 N.pl3  64  ARG64       0.1354
     85  N        -14.8710  -15.3200   33.6640 N.am   65  GLU65      -0.1966
     86  CA       -14.1670  -14.8960   34.8830 C.3    65  GLU65       0.1733
     87  C        -12.7060  -15.3590   34.8470 C.2    65  GLU65       0.2617
     88  O        -12.3750  -16.3160   34.1660 O.2    65  GLU65      -0.2715
     89  CB       -14.8940  -15.3830   36.1480 C.3    65  GLU65       0.0429
     90  CG       -14.9640  -16.8690   36.2910 C.3    65  GLU65       0.1163
     91  CD       -15.5210  -17.2910   37.6470 C.2    65  GLU65       0.3649
     92  OE1      -16.6360  -16.8460   38.0240 O.co2  65  GLU65      -0.2457
     93  OE2      -14.8350  -18.0700   38.3340 O.co2  65  GLU65      -0.2457
     94  N        -11.8490  -14.6730   35.5840 N.am   66  GLY66      -0.1940
     95  CA       -10.4190  -14.9000   35.4860 C.3    66  GLY66       0.2014
     96  C         -9.9670  -16.2530   36.0010 C.2    66  GLY66       0.2639
     97  O        -10.5680  -16.8030   36.9240 O.2    66  GLY66      -0.2714
     98  N         -8.9250  -16.7950   35.3650 N.am   67  TYR67      -0.1959
     99  CA        -8.1520  -17.9300   35.9010 C.3    67  TYR67       0.1771
    100  C         -6.7480  -17.4170   36.1980 C.2    67  TYR67       0.2619
    101  O         -5.9490  -17.2080   35.2920 O.2    67  TYR67      -0.2715
    102  CB        -8.0890  -19.0890   34.8980 C.3    67  TYR67       0.0574
    103  CG        -7.2860  -20.2770   35.3850 C.ar   67  TYR67      -0.0198
    104  CD1       -7.8730  -21.2650   36.1910 C.ar   67  TYR67      -0.0009
    105  CD2       -5.9350  -20.4260   35.0380 C.ar   67  TYR67      -0.0009
    106  CE1       -7.1290  -22.3690   36.6380 C.ar   67  TYR67       0.0417
    107  CE2       -5.1820  -21.5260   35.4830 C.ar   67  TYR67       0.0417
    108  CZ        -5.7830  -22.4950   36.2810 C.ar   67  TYR67       0.1957
    109  OH        -5.0350  -23.5930   36.7240 O.3    67  TYR67      -0.2866
    110  N         -6.4560  -17.1700   37.4650 N.am   68  ALA68      -0.1964
    111  CA        -5.1750  -16.6140   37.8370 C.3    68  ALA68       0.1713
    112  C         -4.8430  -17.0540   39.2550 C.2    68  ALA68       0.2458
    113  O         -4.6020  -16.2080   40.1290 O.2    68  ALA68      -0.2730
    114  CB        -5.2170  -15.0920   37.7300 C.3    68  ALA68       0.0333
    115  N         -4.7980  -18.3850   39.4810 N.am   69  PRO69      -0.2727
    116  CA        -4.5970  -18.9350   40.8330 C.3    69  PRO69       0.1402
    117  C         -3.4340  -18.2930   41.5740 C.2    69  PRO69       0.2269
    118  O         -2.4100  -17.9410   40.9720 O.2    69  PRO69      -0.2865
    119  CB        -4.3030  -20.4270   40.5940 C.3    69  PRO69       0.0296
    120  CG        -4.7400  -20.7070   39.1960 C.3    69  PRO69       0.0237
    121  CD        -4.6650  -19.4170   38.4360 C.3    69  PRO69       0.0939
    122  N         -6.3140  -11.7330   40.8620 N.3    73  PHE73      -0.1241
    123  CA        -7.1710  -11.6790   39.6800 C.3    73  PHE73       0.1605
    124  C         -7.9550  -12.9620   39.4700 C.2    73  PHE73       0.2264
    125  O         -8.7360  -13.0570   38.5200 O.2    73  PHE73      -0.2867
    126  CB        -6.3410  -11.3780   38.4250 C.3    73  PHE73       0.0534
    127  CG        -5.3870  -10.2280   38.5960 C.ar   73  PHE73      -0.0203
    128  CD1       -5.8390   -8.9990   39.0750 C.ar   73  PHE73      -0.0042
    129  CD2       -4.0290  -10.3800   38.3030 C.ar   73  PHE73      -0.0042
    130  CE1       -4.9550   -7.9300   39.2490 C.ar   73  PHE73      -0.0003
    131  CE2       -3.1340   -9.3110   38.4740 C.ar   73  PHE73      -0.0003
    132  CZ        -3.6010   -8.0850   38.9460 C.ar   73  PHE73      -0.0000
    133  N        -11.7340  -12.8590   38.7410 N.3    76  CYS76      -0.1235
    134  CA       -12.0930  -11.4600   38.5040 C.3    76  CYS76       0.1677
    135  C        -13.0090  -11.3170   37.2920 C.2    76  CYS76       0.2270
    136  O        -13.1140  -12.2270   36.4690 O.2    76  CYS76      -0.2867
    137  CB       -10.8570  -10.5890   38.3480 C.3    76  CYS76       0.0956
    138  SG        -9.8970  -10.9020   36.8490 S.3    76  CYS76      -0.0801
@<TRIPOS>BOND
     1    48    47    2
     2    57    56    2
     3    54    55    1
     4    47    46    1
     5    58    59    1
     6    58    55    1
     7    63    62    2
     8    56    55    1
     9    56    60   am
    10    62    61    1
    11    46    49    1
    12    46    45    1
    13    41    40    2
    14    49    50    1
    15    60    61    1
    16    25    24    1
    17    25    26    1
    18    61    64    1
    19    45    40   am
    20    51    50    1
    21    51    52    1
    22    33    32    2
    23    40    39    1
    24    24    23    1
    25    83    82    1
    26    26    27    2
    27    52    53    1
    28    36    35    2
    29    64    65    1
    30    32    38   am
    31    32    31    1
    32    39    38    1
    33    39    42    1
    34    23    20    1
    35    27    29    1
    36    27    28    1
    37    35    34    1
    38    35    37   am
    39    34    31    1
    40    82    84    1
    41    82    81    2
    42    30    31    1
    43    30    21   am
    44    14    13    2
    45    20    21    1
    46    20    19    1
    47    66    65   ar
    48    66    68   ar
    49    65    67   ar
    50    42    43    1
    51    42    44    1
    52    10     7    1
    53    21    22    2
    54    80    81    1
    55    80    79    1
    56    13    19   am
    57    13    12    1
    58    68    69   ar
    59    67    70   ar
    60    67    69   ar
    61     7     8    1
    62     7     6    1
    63    79    78    1
    64    78    75    1
    65    11     8   am
    66    11    12    1
    67     8     9    2
    68    70    72   ar
    69    69    71   ar
    70    12    15    1
    71     6     3   am
    72    74    75    1
    73    15    16    1
    74    75    76    1
    75    72    73   ar
    76    71    73   ar
    77     3     4    2
    78     3     2    1
    79    16    17    1
    80    76    85   am
    81    76    77    2
    82     2     1    1
    83     2     5    1
    84    85    86    1
    85    17    18    1
    86    88    87    2
    87    87    86    1
    88    87    94   am
    89    86    89    1
    90   102   103    1
    91   102    99    1
    92   105   103   ar
    93   105   107   ar
    94   101   100    2
    95    98    99    1
    96    98    96   am
    97   103   104   ar
    98   107   108   ar
    99    95    94    1
   100    95    96    1
   101    99   100    1
   102    96    97    2
   103    89    90    1
   104   104   106   ar
   105   100   110   am
   106   108   106   ar
   107   108   109    1
   108    90    91    1
   109   136   135    2
   110   138   137    1
   111   135   134    1
   112   110   111    1
   113    91    92   ar
   114    91    93   ar
   115   114   111    1
   116   111   112    1
   117   129   131   ar
   118   129   127   ar
   119   137   134    1
   120   126   127    1
   121   126   123    1
   122   121   120    1
   123   121   115    1
   124   131   132   ar
   125   134   133    1
   126   125   124    2
   127   127   128   ar
   128   132   130   ar
   129   128   130   ar
   130   120   119    1
   131   112   115   am
   132   112   113    2
   133   124   123    1
   134   115   116    1
   135   123   122    1
   136   119   116    1
   137   116   117    1
   138   118   117    2
