@<TRIPOS>MOLECULE
tmp/3rjqA01.pdb
 87 82 0 0 0
SMALL
GASTEIGER

@<TRIPOS>ATOM
      1  N         -2.0990   27.8820  -50.8200 N.3    39  GLU39      -0.1245
      2  CA        -2.3300   26.4420  -50.7660 C.3    39  GLU39       0.1567
      3  C         -2.4900   25.8310  -52.1500 C.2    39  GLU39       0.2260
      4  O         -3.1880   26.3730  -53.0060 O.2    39  GLU39      -0.2867
      5  CB        -3.5880   26.1120  -49.9580 C.3    39  GLU39       0.0388
      6  CG        -3.4980   26.3550  -48.4650 C.3    39  GLU39       0.1160
      7  CD        -4.5730   25.6000  -47.6960 C.2    39  GLU39       0.3649
      8  OE1       -4.6910   24.3700  -47.8910 O.co2  39  GLU39      -0.2457
      9  OE2       -5.3050   26.2360  -46.9060 O.co2  39  GLU39      -0.2457
     10  N         -3.8990   22.2070  -53.8990 N.3    41  VAL41      -0.1231
     11  CA        -4.9400   21.2730  -53.4810 C.3    41  VAL41       0.1692
     12  C         -4.9360   19.9970  -54.3150 C.2    41  VAL41       0.2592
     13  O         -4.7450   20.0420  -55.5290 O.2    41  VAL41      -0.2718
     14  CB        -6.3380   21.9170  -53.5460 C.3    41  VAL41       0.0266
     15  CG1       -7.3560   21.0430  -52.8260 C.3    41  VAL41       0.0020
     16  CG2       -6.3080   23.3090  -52.9370 C.3    41  VAL41       0.0020
     17  N         -5.1420   18.8620  -53.6540 N.am   42  LEU42      -0.1966
     18  CA        -5.2060   17.5780  -54.3390 C.3    42  LEU42       0.1728
     19  C         -6.4650   16.8060  -53.9490 C.2    42  LEU42       0.2616
     20  O         -7.0690   17.0630  -52.9070 O.2    42  LEU42      -0.2715
     21  CB        -3.9770   16.7240  -54.0170 C.3    42  LEU42       0.0311
     22  CG        -2.6000   17.3570  -53.8060 C.3    42  LEU42       0.0022
     23  CD1       -1.5420   16.2580  -53.7560 C.3    42  LEU42       0.0001
     24  CD2       -2.2560   18.3820  -54.8770 C.3    42  LEU42       0.0001
     25  N         -6.8510   15.8590  -54.7970 N.am   43  ALA43      -0.1963
     26  CA        -7.9380   14.9360  -54.4910 C.3    43  ALA43       0.1728
     27  C         -7.6750   13.6270  -55.2230 C.2    43  ALA43       0.2616
     28  O         -6.8780   13.5900  -56.1600 O.2    43  ALA43      -0.2715
     29  CB        -9.2770   15.5250  -54.8880 C.3    43  ALA43       0.0334
     30  N         -8.3380   12.5570  -54.7960 N.am   44  ASN44      -0.1972
     31  CA        -8.0380   11.2170  -55.2970 C.3    44  ASN44       0.1688
     32  C         -6.6350   10.7770  -54.8850 C.2    44  ASN44       0.2292
     33  O         -6.2230    9.6470  -55.1490 O.2    44  ASN44      -0.2864
     34  CB        -8.1940   11.1380  -56.8200 C.3    44  ASN44       0.1181
     35  CG        -9.6410   11.2310  -57.2680 C.2    44  ASN44       0.2629
     36  OD1      -10.4830   11.7970  -56.5720 O.2    44  ASN44      -0.2716
     37  ND2       -9.9370   10.6720  -58.4380 N.am   44  ASN44      -0.0877
     38  N         -7.0440   17.1380  -45.7000 N.3    95  ASN95      -0.1225
     39  CA        -8.2990   17.8840  -45.7080 C.3    95  ASN95       0.1785
     40  C         -9.5230   17.0680  -45.2960 C.2    95  ASN95       0.2597
     41  O        -10.5810   17.6310  -45.0130 O.2    95  ASN95      -0.2718
     42  CB        -8.5260   18.5300  -47.0740 C.3    95  ASN95       0.1169
     43  CG        -7.4260   19.5030  -47.4470 C.2    95  ASN95       0.2627
     44  OD1       -6.6600   19.2610  -48.3790 O.2    95  ASN95      -0.2716
     45  ND2       -7.3420   20.6120  -46.7200 N.am   95  ASN95      -0.0877
     46  N         -9.3790   15.7470  -45.2700 N.am   96  ASN96      -0.1960
     47  CA       -10.4400   14.8810  -44.7660 C.3    96  ASN96       0.1819
     48  C        -10.7900   15.2430  -43.3220 C.2    96  ASN96       0.2621
     49  O        -10.0610   14.8980  -42.3910 O.2    96  ASN96      -0.2715
     50  CB       -10.0160   13.4140  -44.8600 C.3    96  ASN96       0.1195
     51  CG       -11.1120   12.4560  -44.4290 C.2    96  ASN96       0.2630
     52  OD1      -12.1660   12.8680  -43.9420 O.2    96  ASN96      -0.2716
     53  ND2      -10.8600   11.1620  -44.6000 N.am   96  ASN96      -0.0877
     54  N        -11.9070   15.9420  -43.1440 N.am   97  LYS97      -0.1977
     55  CA       -12.3120   16.4260  -41.8270 C.3    97  LYS97       0.1596
     56  C        -12.8890   15.3030  -40.9670 C.2    97  LYS97       0.2287
     57  O        -13.3890   15.5370  -39.8660 O.2    97  LYS97      -0.2864
     58  CB       -13.3390   17.5450  -41.9750 C.3    97  LYS97       0.0298
     59  CG       -13.0440   18.4970  -43.1160 C.3    97  LYS97       0.0038
     60  CD       -14.2790   19.3090  -43.4710 C.3    97  LYS97       0.0206
     61  CE       -14.1410   19.9720  -44.8340 C.3    97  LYS97       0.1093
     62  NZ       -15.3790   20.6900  -45.2530 N.3    97  LYS97      -0.1314
     63  N         -7.4420   10.3030  -48.3210 N.3   106  ARG106     -0.1231
     64  CA        -7.6090   10.3710  -49.7690 C.3   106  ARG106      0.1694
     65  C         -7.8820   11.7900  -50.2710 C.2   106  ARG106      0.2592
     66  O         -8.2990   11.9810  -51.4120 O.2   106  ARG106     -0.2718
     67  CB        -8.7420    9.4330  -50.1930 C.3   106  ARG106      0.0321
     68  CG        -8.5760    8.7930  -51.5610 C.3   106  ARG106      0.0489
     69  CD        -9.4150    7.5240  -51.6520 C.3   106  ARG106      0.2205
     70  NE        -9.3660    6.8960  -52.9690 N.pl3 106  ARG106     -0.0865
     71  CZ        -9.9470    5.7350  -53.2580 C.cat 106  ARG106      0.5346
     72  NH1      -10.6160    5.0780  -52.3190 N.pl3 106  ARG106      0.1354
     73  NH2       -9.8600    5.2300  -54.4820 N.pl3 106  ARG106      0.1354
     74  N         -7.6260   12.7820  -49.4250 N.am  107  ASN107     -0.1974
     75  CA        -7.9590   14.1660  -49.7460 C.3   107  ASN107      0.1688
     76  C         -7.0020   15.1330  -49.0570 C.2   107  ASN107      0.2292
     77  O         -7.2420   15.5410  -47.9220 O.2   107  ASN107     -0.2864
     78  CB        -9.4020   14.4520  -49.3200 C.3   107  ASN107      0.1181
     79  CG        -9.8510   15.8590  -49.6620 C.2   107  ASN107      0.2629
     80  OD1      -10.7510   16.4100  -49.0270 O.2   107  ASN107     -0.2716
     81  ND2       -9.2210   16.4490  -50.6760 N.am  107  ASN107     -0.0877
     82  N         -3.7410   18.4410  -49.2010 N.3   109  SER109     -0.1217
     83  CA        -3.2920   19.6950  -49.8030 C.3   109  SER109      0.1889
     84  C         -1.7990   19.9360  -49.5840 C.2   109  SER109      0.2288
     85  O         -1.0770   19.0560  -49.1130 O.2   109  SER109     -0.2866
     86  CB        -4.0940   20.8780  -49.2530 C.3   109  SER109      0.2089
     87  OG        -5.4130   20.8900  -49.7680 O.3   109  SER109     -0.2183
@<TRIPOS>BOND
     1    37    35   am
     2    35    34    1
     3    35    36    2
     4    34    31    1
     5    28    27    2
     6    13    12    2
     7    31    32    1
     8    31    30    1
     9    27    30   am
    10    27    26    1
    11    33    32    2
    12    29    26    1
    13    24    22    1
    14    25    26    1
    15    25    19   am
    16    73    71    1
    17    18    21    1
    18    18    19    1
    19    18    17    1
    20    12    17   am
    21    12    11    1
    22    21    22    1
    23    19    20    2
    24    10    11    1
    25    22    23    1
    26    14    11    1
    27    14    16    1
    28    14    15    1
    29    71    70    2
    30    71    72    1
    31     4     3    2
    32    70    69    1
    33     3     2    1
    34    69    68    1
    35    68    67    1
    36    66    65    2
    37     1     2    1
    38     2     5    1
    39    81    79   am
    40    65    64    1
    41    65    74   am
    42    67    64    1
    43     5     6    1
    44    83    84    1
    45    83    86    1
    46    83    82    1
    47    64    63    1
    48    87    86    1
    49    75    74    1
    50    75    78    1
    51    75    76    1
    52    79    78    1
    53    79    80    2
    54    84    85    2
    55    76    77    2
    56     6     7    1
    57    44    43    2
    58     8     7   ar
    59     7     9   ar
    60    43    42    1
    61    43    45   am
    62    42    39    1
    63    39    38    1
    64    39    40    1
    65    40    46   am
    66    40    41    2
    67    46    47    1
    68    62    61    1
    69    50    47    1
    70    50    51    1
    71    61    60    1
    72    47    48    1
    73    53    51   am
    74    51    52    2
    75    60    59    1
    76    48    54   am
    77    48    49    2
    78    54    55    1
    79    59    58    1
    80    58    55    1
    81    55    56    1
    82    56    57    2
