@<TRIPOS>MOLECULE
tmp/3rjqA00.pdb
 80 78 0 0 0
SMALL
GASTEIGER

@<TRIPOS>ATOM
      1  N        -10.9320   12.5450  -40.5560 N.3    99  PHE99      -0.1227
      2  CA        -9.7330   11.7790  -40.2400 C.3    99  PHE99       0.1736
      3  C         -9.5790   11.4750  -38.7510 C.2    99  PHE99       0.2595
      4  O         -9.6850   12.3640  -37.9040 O.2    99  PHE99      -0.2718
      5  CB        -8.4790   12.4810  -40.7580 C.3    99  PHE99       0.0547
      6  CG        -7.3370   11.5430  -41.0130 C.ar   99  PHE99      -0.0202
      7  CD1       -7.5790   10.2000  -41.2510 C.ar   99  PHE99      -0.0042
      8  CD2       -6.0270   11.9920  -41.0010 C.ar   99  PHE99      -0.0042
      9  CE1       -6.5390    9.3240  -41.4840 C.ar   99  PHE99      -0.0003
     10  CE2       -4.9780   11.1180  -41.2320 C.ar   99  PHE99      -0.0003
     11  CZ        -5.2360    9.7820  -41.4740 C.ar   99  PHE99      -0.0000
     12  N         -9.3170   10.2070  -38.4470 N.am  100  ASN100     -0.1974
     13  CA        -9.0900    9.7620  -37.0790 C.3   100  ASN100      0.1688
     14  C         -7.6580   10.0350  -36.6320 C.2   100  ASN100      0.2292
     15  O         -7.2550    9.6370  -35.5410 O.2   100  ASN100     -0.2864
     16  CB        -9.3730    8.2660  -36.9550 C.3   100  ASN100      0.1181
     17  CG        -8.3050    7.4190  -37.6170 C.2   100  ASN100      0.2629
     18  OD1       -7.5830    7.8920  -38.4880 O.2   100  ASN100     -0.2716
     19  ND2       -8.1960    6.1630  -37.2020 N.am  100  ASN100     -0.0877
     20  N         -4.9360    8.8090  -37.9250 N.3   102  THR102     -0.1203
     21  CA        -4.0150    7.7310  -38.2770 C.3   102  THR102      0.1994
     22  C         -4.4650    6.9350  -39.5100 C.2   102  THR102      0.2618
     23  O         -5.6480    6.6430  -39.6780 O.2   102  THR102     -0.2717
     24  CB        -3.7940    6.7770  -37.0810 C.3   102  THR102      0.1784
     25  OG1       -2.5090    6.1530  -37.1900 O.3   102  THR102     -0.2211
     26  CG2       -4.8840    5.7140  -37.0170 C.3   102  THR102      0.0376
     27  N         -3.5150    6.5960  -40.3780 N.am  103  GLY103     -0.1942
     28  CA        -3.8150    5.8080  -41.5610 C.3   103  GLY103      0.1998
     29  C         -3.7140    6.5790  -42.8640 C.2   103  GLY103      0.2480
     30  O         -2.8790    7.4710  -42.9980 O.2   103  GLY103     -0.2729
     31  N         -4.5590    6.2210  -43.8440 N.am  104  PRO104     -0.2726
     32  CA        -4.6010    6.8370  -45.1750 C.3   104  PRO104      0.1402
     33  C         -5.6250    7.9690  -45.2810 C.2   104  PRO104      0.2269
     34  O         -6.7180    7.8620  -44.7250 O.2   104  PRO104     -0.2865
     35  CB        -5.0360    5.6720  -46.0820 C.3   104  PRO104      0.0296
     36  CG        -5.1550    4.4480  -45.1720 C.3   104  PRO104      0.0237
     37  CD        -5.3590    4.9900  -43.8020 C.3   104  PRO104      0.0939
     38  N        -12.3830   11.0820  -32.6600 N.3   138  ILE138     -0.1231
     39  CA       -11.8260   10.1920  -31.6500 C.3   138  ILE138      0.1692
     40  C        -10.4630    9.6630  -32.0780 C.2   138  ILE138      0.2592
     41  O        -10.3120    9.1420  -33.1820 O.2   138  ILE138     -0.2718
     42  CB       -12.7680    9.0070  -31.4060 C.3   138  ILE138      0.0266
     43  CG1      -13.6260    8.7530  -32.6530 C.3   138  ILE138      0.0019
     44  CG2      -13.6610    9.2820  -30.2070 C.3   138  ILE138      0.0020
     45  CD1      -12.8620    8.2210  -33.8590 C.3   138  ILE138      0.0001
     46  N         -9.4710    9.7880  -31.2030 N.am  139  ARG139     -0.1966
     47  CA        -8.1000    9.4590  -31.5740 C.3   139  ARG139      0.1729
     48  C         -7.2990    8.7900  -30.4600 C.2   139  ARG139      0.2616
     49  O         -7.4130    9.1500  -29.2910 O.2   139  ARG139     -0.2715
     50  CB        -7.3830   10.7120  -32.0770 C.3   139  ARG139      0.0348
     51  CG        -7.9760   11.2710  -33.3640 C.3   139  ARG139      0.0492
     52  CD        -7.1780   12.4480  -33.8900 C.3   139  ARG139      0.2205
     53  NE        -7.4750   13.6780  -33.1680 N.pl3 139  ARG139     -0.0865
     54  CZ        -8.2530   14.6440  -33.6400 C.cat 139  ARG139      0.5346
     55  NH1       -8.8050   14.5210  -34.8420 N.pl3 139  ARG139      0.1354
     56  NH2       -8.4710   15.7330  -32.9140 N.pl3 139  ARG139      0.1354
     57  N         -6.4840    7.8150  -30.8500 N.am  140  SER140     -0.1950
     58  CA        -5.6680    7.0430  -29.9260 C.3   140  SER140      0.1924
     59  C         -4.7080    6.1930  -30.7460 C.2   140  SER140      0.2314
     60  O         -5.0430    5.7660  -31.8510 O.2   140  SER140     -0.2863
     61  CB        -6.5480    6.1480  -29.0500 C.3   140  SER140      0.2116
     62  OG        -5.7710    5.2350  -28.2930 O.3   140  SER140     -0.2180
     63  N         -6.5840    1.8820  -29.1170 N.3   143  LEU143     -0.1245
     64  CA        -7.7340    1.8090  -28.2240 C.3   143  LEU143      0.1561
     65  C         -7.6850    0.5460  -27.3760 C.2   143  LEU143      0.2260
     66  O         -7.9850    0.5770  -26.1830 O.2   143  LEU143     -0.2867
     67  CB        -9.0460    1.8650  -29.0080 C.3   143  LEU143      0.0270
     68  CG        -9.5270    3.2650  -29.3860 C.3   143  LEU143      0.0019
     69  CD1      -10.9570    3.2240  -29.9000 C.3   143  LEU143      0.0001
     70  CD2       -9.4220    4.1880  -28.1860 C.3   143  LEU143      0.0001
     71  N        -17.1020    2.6890  -30.6320 N.3   188  HIS188     -0.1241
     72  CA       -15.8640    1.9370  -30.4570 C.3   188  HIS188      0.1621
     73  C        -15.9930    0.8860  -29.3530 C.2   188  HIS188      0.2264
     74  O        -15.1980   -0.0510  -29.2750 O.2   188  HIS188     -0.2867
     75  CB       -14.7000    2.8870  -30.1600 C.3   188  HIS188      0.0745
     76  CG       -14.5370    3.9790  -31.1730 C.ar  188  HIS188      0.0817
     77  ND1      -15.2820    5.1390  -31.1440 N.ar  188  HIS188     -0.2268
     78  CD2      -13.7200    4.0850  -32.2480 C.ar  188  HIS188      0.1154
     79  CE1      -14.9300    5.9120  -32.1550 C.ar  188  HIS188      0.1986
     80  NE2      -13.9830    5.2970  -32.8400 N.ar  188  HIS188     -0.2212
@<TRIPOS>BOND
     1    35    32    1
     2    35    36    1
     3    33    32    1
     4    33    34    2
     5    32    31    1
     6    36    37    1
     7    31    37    1
     8    31    29   am
     9    30    29    2
    10    29    28    1
    11    28    27    1
    12     9    11   ar
    13     9     7   ar
    14    11    10   ar
    15     7     6   ar
    16    10     8   ar
    17     6     8   ar
    18     6     5    1
    19     5     2    1
    20     1     2    1
    21    27    22   am
    22     2     3    1
    23    23    22    2
    24    22    21    1
    25     3    12   am
    26     3     4    2
    27    18    17    2
    28    12    13    1
    29    21    20    1
    30    21    24    1
    31    17    19   am
    32    17    16    1
    33    25    24    1
    34    24    26    1
    35    13    16    1
    36    13    14    1
    37    14    15    2
    38    55    54    1
    39    52    51    1
    40    52    53    1
    41    45    43    1
    42    54    53    2
    43    54    56    1
    44    51    50    1
    45    41    40    2
    46    80    78   ar
    47    80    79   ar
    48    38    39    1
    49    43    42    1
    50    78    76   ar
    51    79    77   ar
    52    40    39    1
    53    40    46   am
    54    50    47    1
    55    60    59    2
    56    39    42    1
    57    47    46    1
    58    47    48    1
    59    42    44    1
    60    76    77   ar
    61    76    75    1
    62    57    48   am
    63    57    58    1
    64    59    58    1
    65    71    72    1
    66    48    49    2
    67    72    75    1
    68    72    73    1
    69    58    61    1
    70    69    68    1
    71    68    67    1
    72    68    70    1
    73    73    74    2
    74    63    64    1
    75    61    62    1
    76    67    64    1
    77    64    65    1
    78    65    66    2
