@<TRIPOS>MOLECULE
tmp/3rjqA02.pdb
 92 89 0 0 0
SMALL
GASTEIGER

@<TRIPOS>ATOM
      1  N          0.3340   36.1470  -22.2940 N.3    77  ASP77      -0.1225
      2  CA        -0.7830   35.5270  -23.0120 C.3    77  ASP77       0.1790
      3  C         -0.3660   35.0230  -24.3930 C.2    77  ASP77       0.2439
      4  O         -0.0080   35.8130  -25.2680 O.2    77  ASP77      -0.2733
      5  CB        -1.9780   36.4700  -23.1450 C.3    77  ASP77       0.1423
      6  CG        -3.2100   35.7630  -23.6800 C.2    77  ASP77       0.3668
      7  OD1       -3.5120   34.6500  -23.1990 O.co2  77  ASP77      -0.2456
      8  OD2       -3.8680   36.3060  -24.5900 O.co2  77  ASP77      -0.2456
      9  N         -0.4330   33.6970  -24.5900 N.am   78  PRO78      -0.2729
     10  CA         0.0190   32.9900  -25.7940 C.3    78  PRO78       0.1401
     11  C         -0.4430   33.6190  -27.1090 C.2    78  PRO78       0.2269
     12  O         -1.4490   34.3310  -27.1600 O.2    78  PRO78      -0.2865
     13  CB        -0.5970   31.6000  -25.6260 C.3    78  PRO78       0.0296
     14  CG        -0.6680   31.4110  -24.1570 C.3    78  PRO78       0.0237
     15  CD        -0.9890   32.7670  -23.5890 C.3    78  PRO78       0.0939
     16  N         -1.9610   28.5440  -30.8320 N.3   118  LYS118     -0.1245
     17  CA        -1.5780   29.0050  -29.5030 C.3   118  LYS118      0.1561
     18  C         -1.0550   27.8670  -28.6390 C.2   118  LYS118      0.2260
     19  O         -1.7050   26.8270  -28.5100 O.2   118  LYS118     -0.2867
     20  CB        -2.7520   29.6830  -28.7980 C.3   118  LYS118      0.0271
     21  CG        -3.0820   31.0630  -29.3260 C.3   118  LYS118      0.0035
     22  CD        -3.9660   31.8070  -28.3490 C.3   118  LYS118      0.0206
     23  CE        -4.5080   33.0790  -28.9630 C.3   118  LYS118      0.1093
     24  NZ        -5.8570   33.3980  -28.4170 N.3   118  LYS118     -0.1314
     25  N         -1.0770   26.6510  -25.5680 N.3   120  VAL120     -0.1245
     26  CA        -1.7740   26.6490  -24.2870 C.3   120  VAL120      0.1561
     27  C         -1.5430   25.3440  -23.5390 C.2   120  VAL120      0.2260
     28  O         -2.0530   24.2930  -23.9280 O.2   120  VAL120     -0.2867
     29  CB        -3.2900   26.8670  -24.4630 C.3   120  VAL120      0.0252
     30  CG1       -4.0240   26.5660  -23.1650 C.3   120  VAL120      0.0019
     31  CG2       -3.5760   28.2900  -24.9350 C.3   120  VAL120      0.0019
     32  N         -7.8220   23.8310  -24.6270 N.3   127  LEU127     -0.1231
     33  CA        -8.4850   25.1310  -24.6240 C.3   127  LEU127      0.1693
     34  C         -7.9800   26.0760  -25.7190 C.2   127  LEU127      0.2592
     35  O         -6.7900   26.0900  -26.0400 O.2   127  LEU127     -0.2718
     36  CB        -8.3340   25.7790  -23.2470 C.3   127  LEU127      0.0284
     37  CG        -8.4850   24.8090  -22.0710 C.3   127  LEU127      0.0019
     38  CD1       -8.0580   25.4540  -20.7580 C.3   127  LEU127      0.0001
     39  CD2       -9.9100   24.2710  -21.9830 C.3   127  LEU127      0.0001
     40  N         -8.8940   26.8680  -26.2790 N.am  128  ASN128     -0.1974
     41  CA        -8.5700   27.8100  -27.3530 C.3   128  ASN128      0.1688
     42  C         -8.0580   27.1370  -28.6230 C.2   128  ASN128      0.2292
     43  O         -7.4950   27.8040  -29.4910 O.2   128  ASN128     -0.2864
     44  CB        -7.5610   28.8680  -26.8810 C.3   128  ASN128      0.1181
     45  CG        -8.1790   29.9020  -25.9440 C.2   128  ASN128      0.2629
     46  OD1       -9.3690   29.8420  -25.6200 O.2   128  ASN128     -0.2716
     47  ND2       -7.3560   30.8510  -25.4940 N.am  128  ASN128     -0.0877
     48  N         -4.0430   24.7210  -15.7830 N.3   211  PHE211     -0.1227
     49  CA        -3.8290   25.6880  -16.8520 C.3   211  PHE211      0.1736
     50  C         -3.3330   26.9900  -16.2370 C.2   211  PHE211      0.2595
     51  O         -3.3990   27.1750  -15.0210 O.2   211  PHE211     -0.2718
     52  CB        -5.1310   25.9520  -17.5970 C.3   211  PHE211      0.0547
     53  CG        -6.1910   26.5760  -16.7420 C.ar  211  PHE211     -0.0202
     54  CD1       -7.0200   25.7860  -15.9630 C.ar  211  PHE211     -0.0042
     55  CD2       -6.3460   27.9510  -16.6990 C.ar  211  PHE211     -0.0042
     56  CE1       -7.9890   26.3520  -15.1670 C.ar  211  PHE211     -0.0003
     57  CE2       -7.3150   28.5240  -15.9050 C.ar  211  PHE211     -0.0003
     58  CZ        -8.1390   27.7220  -15.1380 C.ar  211  PHE211     -0.0000
     59  N         -2.8540   27.8950  -17.0840 N.am  212  ASN212     -0.1960
     60  CA        -2.2710   29.1490  -16.6230 C.3   212  ASN212      0.1819
     61  C         -2.9350   30.3680  -17.2450 C.2   212  ASN212      0.2621
     62  O         -3.0260   30.4760  -18.4670 O.2   212  ASN212     -0.2715
     63  CB        -0.7690   29.1720  -16.9220 C.3   212  ASN212      0.1195
     64  CG        -0.1390   30.5350  -16.6770 C.2   212  ASN212      0.2630
     65  OD1       -0.7720   31.5730  -16.8700 O.2   212  ASN212     -0.2716
     66  ND2        1.1210   30.5340  -16.2570 N.am  212  ASN212     -0.0877
     67  N         -3.3780   31.2930  -16.4000 N.am  213  CYS213     -0.1968
     68  CA        -3.9400   32.5500  -16.8780 C.3   213  CYS213      0.1712
     69  C         -3.1660   33.7500  -16.3310 C.2   213  CYS213      0.2296
     70  O         -2.9670   33.8720  -15.1220 O.2   213  CYS213     -0.2864
     71  CB        -5.4190   32.6570  -16.5050 C.3   213  CYS213      0.0983
     72  SG        -6.2810   34.0080  -17.3470 S.3   213  CYS213     -0.0798
     73  N        -10.1430   35.0740  -16.8740 N.3   251  CYS251     -0.1221
     74  CA        -9.8250   34.7420  -18.2600 C.3   251  CYS251      0.1808
     75  C        -10.8930   33.8430  -18.8710 C.2   251  CYS251      0.2601
     76  O        -11.2740   32.8310  -18.2850 O.2   251  CYS251     -0.2717
     77  CB        -8.4570   34.0640  -18.3520 C.3   251  CYS251      0.0970
     78  SG        -7.0980   35.1700  -18.8000 S.3   251  CYS251     -0.0800
     79  N        -11.3720   34.2160  -20.0530 N.am  252  ASN252     -0.1960
     80  CA       -12.4180   33.4520  -20.7220 C.3   252  ASN252      0.1819
     81  C        -11.9100   32.7600  -21.9750 C.2   252  ASN252      0.2622
     82  O        -11.5040   33.4170  -22.9310 O.2   252  ASN252     -0.2715
     83  CB       -13.6000   34.3530  -21.0710 C.3   252  ASN252      0.1195
     84  CG       -14.2230   34.9950  -19.8500 C.2   252  ASN252      0.2630
     85  OD1      -13.6540   34.9670  -18.7580 O.2   252  ASN252     -0.2716
     86  ND2      -15.3990   35.5820  -20.0290 N.am  252  ASN252     -0.0877
     87  N        -11.9390   31.4320  -21.9660 N.am  253  SER253     -0.1950
     88  CA       -11.4580   30.6480  -23.0980 C.3   253  SER253      0.1924
     89  C        -12.4860   29.6120  -23.5420 C.2   253  SER253      0.2314
     90  O        -13.5070   29.4140  -22.8850 O.2   253  SER253     -0.2863
     91  CB       -10.1320   29.9660  -22.7540 C.3   253  SER253      0.2116
     92  OG       -10.2910   29.0350  -21.6990 O.3   253  SER253     -0.2180
@<TRIPOS>BOND
     1    16    17    1
     2    17    20    1
     3    17    18    1
     4    43    42    2
     5    21    20    1
     6    21    22    1
     7    23    24    1
     8    23    22    1
     9    18    19    2
    10    42    41    1
    11    41    44    1
    12    41    40    1
    13    12    11    2
    14    11    10    1
    15    44    45    1
    16    40    34   am
    17    35    34    2
    18    45    46    2
    19    45    47   am
    20    10    13    1
    21    10     9    1
    22    34    33    1
    23    13    14    1
    24    25    26    1
    25     4     3    2
    26    31    29    1
    27    32    33    1
    28    33    36    1
    29     9     3   am
    30     9    15    1
    31     8     6   ar
    32    29    26    1
    33    29    30    1
    34     3     2    1
    35    26    27    1
    36    14    15    1
    37    28    27    2
    38     6     7   ar
    39     6     5    1
    40    89    88    1
    41    89    90    2
    42    36    37    1
    43     5     2    1
    44    88    91    1
    45    88    87    1
    46     2     1    1
    47    82    81    2
    48    91    92    1
    49    37    39    1
    50    37    38    1
    51    81    87   am
    52    81    80    1
    53    83    80    1
    54    83    84    1
    55    80    79    1
    56    79    75   am
    57    86    84   am
    58    84    85    2
    59    75    76    2
    60    75    74    1
    61    78    77    1
    62    78    72    1
    63    62    61    2
    64    77    74    1
    65    74    73    1
    66    52    49    1
    67    52    53    1
    68    72    71    1
    69    61    60    1
    70    61    67   am
    71    59    60    1
    72    59    50   am
    73    63    64    1
    74    63    60    1
    75    68    71    1
    76    68    67    1
    77    68    69    1
    78    65    64    2
    79    49    50    1
    80    49    48    1
    81    53    55   ar
    82    53    54   ar
    83    55    57   ar
    84    64    66   am
    85    69    70    2
    86    50    51    2
    87    54    56   ar
    88    57    58   ar
    89    56    58   ar
