@<TRIPOS>MOLECULE
tmp/3rjuA00.pdb
 88 81 0 0 0
SMALL
GASTEIGER

@<TRIPOS>ATOM
      1  N         27.7040   42.0880   12.6550 N.3    60  ALA60      -0.1231
      2  CA        28.9120   41.4650   13.1780 C.3    60  ALA60       0.1694
      3  C         28.5330   40.1780   13.9100 C.2    60  ALA60       0.2592
      4  O         27.7330   39.4070   13.3950 O.2    60  ALA60      -0.2718
      5  CB        29.7060   42.4410   14.0830 C.3    60  ALA60       0.0304
      6  N         29.0610   39.9510   15.1110 N.am   61  SER61      -0.1952
      7  CA        28.9090   38.6360   15.7590 C.3    61  SER61       0.1924
      8  C         27.5080   38.2920   16.2840 C.2    61  SER61       0.2314
      9  O         27.2900   37.1970   16.8160 O.2    61  SER61      -0.2863
     10  CB        29.9670   38.4370   16.8500 C.3    61  SER61       0.2116
     11  OG        31.2640   38.4320   16.2730 O.3    61  SER61      -0.2180
     12  N         26.4870   35.0140   15.0250 N.3    64  LYS64      -0.1245
     13  CA        26.6750   33.7200   15.6990 C.3    64  LYS64       0.1561
     14  C         25.3820   33.1820   16.3030 C.2    64  LYS64       0.2260
     15  O         25.1770   31.9660   16.3390 O.2    64  LYS64      -0.2867
     16  CB        27.7280   33.8480   16.7930 C.3    64  LYS64       0.0271
     17  CG        29.1260   34.1310   16.2590 C.3    64  LYS64       0.0035
     18  CD        30.1570   34.1350   17.3720 C.3    64  LYS64       0.0206
     19  CE        31.5890   34.2500   16.8450 C.3    64  LYS64       0.1093
     20  NZ        31.8420   35.5640   16.1600 N.3    64  LYS64      -0.1314
     21  N         41.1050   31.7150   17.6610 N.3   117  ARG117     -0.1245
     22  CA        40.0680   32.7010   17.4030 C.3   117  ARG117      0.1563
     23  C         39.9230   32.9600   15.9000 C.2   117  ARG117      0.2260
     24  O         38.8060   33.0440   15.3840 O.2   117  ARG117     -0.2867
     25  CB        40.3880   33.9860   18.1590 C.3   117  ARG117      0.0307
     26  CG        39.4810   35.1620   17.8600 C.3   117  ARG117      0.0489
     27  CD        39.8750   36.3460   18.7220 C.3   117  ARG117      0.2205
     28  NE        39.1210   37.5130   18.3030 N.pl3 117  ARG117     -0.0865
     29  CZ        38.2460   38.1730   19.0520 C.cat 117  ARG117      0.5346
     30  NH1       38.0220   37.8230   20.3180 N.pl3 117  ARG117      0.1354
     31  NH2       37.6070   39.2080   18.5230 N.pl3 117  ARG117      0.1354
     32  N         36.9070   32.5990   22.7470 N.3   156  TYR156     -0.1241
     33  CA        36.0080   33.0980   21.7160 C.3   156  TYR156      0.1605
     34  C         36.6440   32.8900   20.3540 C.2   156  TYR156      0.2264
     35  O         37.8130   33.2450   20.1430 O.2   156  TYR156     -0.2867
     36  CB        35.7960   34.5770   21.9430 C.3   156  TYR156      0.0534
     37  CG        34.7730   35.2110   21.0550 C.ar  156  TYR156     -0.0201
     38  CD1       33.4160   35.1330   21.3730 C.ar  156  TYR156     -0.0009
     39  CD2       35.1460   35.9050   19.9040 C.ar  156  TYR156     -0.0009
     40  CE1       32.4500   35.7360   20.5830 C.ar  156  TYR156      0.0417
     41  CE2       34.1860   36.5090   19.0950 C.ar  156  TYR156      0.0417
     42  CZ        32.8380   36.4330   19.4430 C.ar  156  TYR156      0.1957
     43  OH        31.8860   37.0490   18.6670 O.3   156  TYR156     -0.2866
     44  N         35.9820   33.0720   15.9850 N.3   158  ASN158     -0.1240
     45  CA        35.3280   33.2710   14.7040 C.3   158  ASN158      0.1653
     46  C         35.5100   32.0580   13.7990 C.2   158  ASN158      0.2266
     47  O         34.5300   31.5530   13.2330 O.2   158  ASN158     -0.2867
     48  CB        35.8610   34.5400   14.0550 C.3   158  ASN158      0.1155
     49  CG        35.4670   35.7800   14.8450 C.2   158  ASN158      0.2627
     50  OD1       34.3710   35.8380   15.3990 O.2   158  ASN158     -0.2716
     51  ND2       36.3530   36.7730   14.9010 N.am  158  ASN158     -0.0877
     52  N         37.9050   36.0710   26.1250 N.3   266  GLY266     -0.1225
     53  CA        37.1280   36.7310   25.1030 C.3   266  GLY266      0.1811
     54  C         35.6270   36.7380   25.3200 C.2   266  GLY266      0.2280
     55  O         34.8990   37.1340   24.4150 O.2   266  GLY266     -0.2866
     56  N         33.0780   40.7270   27.2750 N.3   268  VAL268     -0.1245
     57  CA        33.0830   42.0530   26.6500 C.3   268  VAL268      0.1561
     58  C         32.0270   43.0000   27.2410 C.2   268  VAL268      0.2260
     59  O         32.2880   44.1920   27.4160 O.2   268  VAL268     -0.2867
     60  CB        32.9490   41.9290   25.1130 C.3   268  VAL268      0.0252
     61  CG1       32.8080   43.3180   24.4310 C.3   268  VAL268      0.0019
     62  CG2       34.1420   41.1360   24.5530 C.3   268  VAL268      0.0019
     63  N         27.4260   40.3290   22.0520 N.3   293  THR293     -0.1203
     64  CA        28.1420   41.5120   21.6020 C.3   293  THR293      0.1994
     65  C         28.6250   41.3290   20.1560 C.2   293  THR293      0.2618
     66  O         28.7930   40.2060   19.6660 O.2   293  THR293     -0.2717
     67  CB        29.3970   41.7410   22.4720 C.3   293  THR293      0.1784
     68  OG1       30.2120   40.5540   22.4480 O.3   293  THR293     -0.2211
     69  CG2       29.0260   42.0380   23.9080 C.3   293  THR293      0.0376
     70  N         28.8810   42.4350   19.4630 N.am  294  GLY294     -0.1942
     71  CA        29.4350   42.3530   18.1310 C.3   294  GLY294      0.2014
     72  C         30.1950   43.6080   17.7720 C.2   294  GLY294      0.2639
     73  O         29.8620   44.7080   18.2140 O.2   294  GLY294     -0.2714
     74  N         31.2300   43.4450   16.9620 N.am  295  GLY295     -0.1954
     75  CA        31.9830   44.5880   16.4890 C.3   295  GLY295      0.1869
     76  C         32.7170   44.2180   15.2220 C.2   295  GLY295      0.2309
     77  O         33.4130   43.2100   15.1920 O.2   295  GLY295     -0.2863
     78  N         33.2870   50.2820   23.3030 N.3   323  PHE323     -0.1241
     79  CA        32.1350   49.3920   23.1890 C.3   323  PHE323      0.1605
     80  C         31.2780   49.3890   24.4380 C.2   323  PHE323      0.2264
     81  O         30.0330   49.4870   24.3670 O.2   323  PHE323     -0.2867
     82  CB        32.5690   47.9470   22.8950 C.3   323  PHE323      0.0534
     83  CG        31.4020   47.0120   22.7710 C.ar  323  PHE323     -0.0203
     84  CD1       30.7830   46.8080   21.5300 C.ar  323  PHE323     -0.0042
     85  CD2       30.8850   46.3760   23.8980 C.ar  323  PHE323     -0.0042
     86  CE1       29.6630   45.9940   21.4150 C.ar  323  PHE323     -0.0003
     87  CE2       29.7840   45.5460   23.8020 C.ar  323  PHE323     -0.0003
     88  CZ        29.1700   45.3330   22.5540 C.ar  323  PHE323     -0.0000
@<TRIPOS>BOND
     1     1     2    1
     2     2     3    1
     3     2     5    1
     4    47    46    2
     5     4     3    2
     6    46    45    1
     7     3     6   am
     8    48    45    1
     9    48    49    1
    10    45    44    1
    11    49    51   am
    12    49    50    2
    13    12    13    1
    14     6     7    1
    15    77    76    2
    16    76    75    1
    17    24    23    2
    18    13    14    1
    19    13    16    1
    20     7     8    1
    21     7    10    1
    22    23    22    1
    23    20    19    1
    24    17    16    1
    25    17    18    1
    26    11    10    1
    27     8     9    2
    28    14    15    2
    29    75    74    1
    30    19    18    1
    31    74    72   am
    32    22    21    1
    33    22    25    1
    34    72    71    1
    35    72    73    2
    36    26    25    1
    37    26    27    1
    38    71    70    1
    39    28    27    1
    40    28    29    2
    41    31    29    1
    42    43    42    1
    43    29    30    1
    44    41    42   ar
    45    41    39   ar
    46    42    40   ar
    47    70    65   am
    48    66    65    2
    49    39    37   ar
    50    35    34    2
    51    65    64    1
    52    34    33    1
    53    40    38   ar
    54    37    38   ar
    55    37    36    1
    56    86    84   ar
    57    86    88   ar
    58    84    83   ar
    59    64    63    1
    60    64    67    1
    61    33    36    1
    62    33    32    1
    63    68    67    1
    64    67    69    1
    65    88    87   ar
    66    83    82    1
    67    83    85   ar
    68    82    79    1
    69    79    78    1
    70    79    80    1
    71    87    85   ar
    72    81    80    2
    73    55    54    2
    74    61    60    1
    75    62    60    1
    76    53    54    1
    77    53    52    1
    78    60    57    1
    79    57    58    1
    80    57    56    1
    81    58    59    2
