@<TRIPOS>MOLECULE
tmp/3rjwA01.pdb
 204 198 0 0 0
SMALL
GASTEIGER

@<TRIPOS>ATOM
      1  N         -1.5130    1.0890   41.7490 N.3   150  TYR150     -0.1241
      2  CA        -2.7430    1.8720   41.7370 C.3   150  TYR150      0.1605
      3  C         -2.7180    2.6570   40.4400 C.2   150  TYR150      0.2264
      4  O         -2.0510    3.6880   40.3410 O.2   150  TYR150     -0.2867
      5  CB        -2.8990    2.7970   42.9570 C.3   150  TYR150      0.0534
      6  CG        -4.3120    3.3270   43.0890 C.ar  150  TYR150     -0.0201
      7  CD1       -5.3090    2.5660   43.6850 C.ar  150  TYR150     -0.0009
      8  CD2       -4.6770    4.5500   42.5290 C.ar  150  TYR150     -0.0009
      9  CE1       -6.6310    3.0210   43.7480 C.ar  150  TYR150      0.0417
     10  CE2       -5.9980    5.0020   42.5640 C.ar  150  TYR150      0.0417
     11  CZ        -6.9690    4.2410   43.1880 C.ar  150  TYR150      0.1957
     12  OH        -8.2600    4.7010   43.2610 O.3   150  TYR150     -0.2866
     13  N         -4.8090   18.9480   41.0150 N.3   157  ASP157     -0.1239
     14  CA        -5.5780   19.1990   42.2440 C.3   157  ASP157      0.1674
     15  C         -6.8380   20.0040   41.9240 C.2   157  ASP157      0.2266
     16  O         -7.9090   19.6820   42.4430 O.2   157  ASP157     -0.2867
     17  CB        -4.7120   19.8800   43.3300 C.3   157  ASP157      0.1410
     18  CG        -4.1260   21.2330   42.9640 C.2   157  ASP157      0.3668
     19  OD1       -3.8620   22.0360   43.8880 O.co2 157  ASP157     -0.2456
     20  OD2       -3.9240   21.4900   41.7560 O.co2 157  ASP157     -0.2456
     21  N         -9.2520   17.5230   40.4790 N.3   160  ALA160     -0.1231
     22  CA        -9.7760   16.6480   41.5450 C.3   160  ALA160      0.1694
     23  C        -10.8870   17.3540   42.3520 C.2   160  ALA160      0.2592
     24  O        -11.8470   16.7030   42.7950 O.2   160  ALA160     -0.2718
     25  CB        -8.6480   16.2070   42.4680 C.3   160  ALA160      0.0304
     26  N        -10.7540   18.6960   42.5020 N.am  161  ASP161     -0.1960
     27  CA       -11.6810   19.5810   43.2000 C.3   161  ASP161      0.1840
     28  C        -12.9300   19.8890   42.3770 C.2   161  ASP161      0.2622
     29  O        -13.8930   20.4460   42.9160 O.2   161  ASP161     -0.2715
     30  CB       -10.9720   20.8820   43.5920 C.3   161  ASP161      0.1450
     31  CG       -10.2470   20.8130   44.9170 C.2   161  ASP161      0.3671
     32  OD1      -10.6910   20.0360   45.8020 O.co2 161  ASP161     -0.2456
     33  OD2       -9.2650   21.5710   45.0940 O.co2 161  ASP161     -0.2456
     34  N        -12.9170   19.5500   41.0760 N.am  162  VAL162     -0.1963
     35  CA       -14.0720   19.7520   40.2030 C.3   162  VAL162      0.1727
     36  C        -14.8140   18.4210   39.9160 C.2   162  VAL162      0.2616
     37  O        -15.8380   18.4340   39.2290 O.2   162  VAL162     -0.2715
     38  CB       -13.6660   20.4720   38.9030 C.3   162  VAL162      0.0290
     39  CG1      -14.8580   20.6820   37.9750 C.3   162  VAL162      0.0023
     40  CG2      -13.0910   21.8440   39.2640 C.3   162  VAL162      0.0023
     41  N        -14.3220   17.2840   40.4510 N.am  163  ARG163     -0.1963
     42  CA       -14.9380   15.9750   40.2000 C.3   163  ARG163      0.1729
     43  C        -15.9690   15.6000   41.2550 C.2   163  ARG163      0.2616
     44  O        -15.7130   15.7500   42.4540 O.2   163  ARG163     -0.2715
     45  CB       -13.8840   14.8650   40.0540 C.3   163  ARG163      0.0348
     46  CG       -12.9580   15.1170   38.8740 C.3   163  ARG163      0.0492
     47  CD       -12.5490   13.8880   38.0960 C.3   163  ARG163      0.2205
     48  NE       -11.9910   14.2860   36.8020 N.pl3 163  ARG163     -0.0865
     49  CZ       -11.3280   13.4930   35.9680 C.cat 163  ARG163      0.5346
     50  NH1      -11.1120   12.2190   36.2790 N.pl3 163  ARG163      0.1354
     51  NH2      -10.8710   13.9670   34.8170 N.pl3 163  ARG163      0.1354
     52  N        -17.1390   15.1060   40.8010 N.am  164  GLU164     -0.1977
     53  CA       -18.2390   14.7000   41.6780 C.3   164  GLU164      0.1602
     54  C        -17.8690   13.4610   42.4960 C.2   164  GLU164      0.2287
     55  O        -17.9600   13.5040   43.7260 O.2   164  GLU164     -0.2864
     56  CB       -19.5340   14.4720   40.8760 C.3   164  GLU164      0.0415
     57  CG       -20.2960   15.7450   40.4730 C.3   164  GLU164      0.1163
     58  CD       -19.6400   16.5510   39.3490 C.2   164  GLU164      0.3649
     59  OE1      -18.9660   15.9620   38.4770 O.co2 164  GLU164     -0.2457
     60  OE2      -19.8200   17.7890   39.3290 O.co2 164  GLU164     -0.2457
     61  N        -15.3100   11.1690   44.2250 N.3   166  ASP166     -0.1225
     62  CA       -13.9840   11.2000   44.8530 C.3   166  ASP166      0.1805
     63  C        -13.6170    9.8910   45.5870 C.2   166  ASP166      0.2598
     64  O        -12.6120    9.8530   46.2990 O.2   166  ASP166     -0.2718
     65  CB       -13.8830   12.4060   45.8090 C.3   166  ASP166      0.1424
     66  CG       -14.7500   12.3590   47.0580 C.2   166  ASP166      0.3668
     67  OD1      -15.8950   11.8440   46.9760 O.co2 166  ASP166     -0.2456
     68  OD2      -14.3250   12.9150   48.0930 O.co2 166  ASP166     -0.2456
     69  N        -14.3990    8.8190   45.3770 N.am  167  SER167     -0.1938
     70  CA       -14.2020    7.5120   46.0160 C.3   167  SER167      0.2055
     71  C        -13.0560    6.6840   45.3700 C.2   167  SER167      0.2643
     72  O        -12.7920    5.5650   45.8240 O.2   167  SER167     -0.2714
     73  CB       -15.5070    6.7130   45.9940 C.3   167  SER167      0.2130
     74  OG       -16.5970    7.4160   46.5710 O.3   167  SER167     -0.2179
     75  N        -12.3790    7.2320   44.3250 N.am  168  TYR168     -0.1959
     76  CA       -11.3070    6.5470   43.6090 C.3   168  TYR168      0.1771
     77  C        -10.0440    7.4160   43.4850 C.2   168  TYR168      0.2619
     78  O         -9.1800    7.1300   42.6420 O.2   168  TYR168     -0.2715
     79  CB       -11.8040    6.0870   42.2180 C.3   168  TYR168      0.0574
     80  CG       -12.9360    5.0790   42.2590 C.ar  168  TYR168     -0.0198
     81  CD1      -12.6800    3.7130   42.3790 C.ar  168  TYR168     -0.0009
     82  CD2      -14.2610    5.4870   42.1640 C.ar  168  TYR168     -0.0009
     83  CE1      -13.7220    2.7820   42.4330 C.ar  168  TYR168      0.0417
     84  CE2      -15.3100    4.5670   42.2070 C.ar  168  TYR168      0.0417
     85  CZ       -15.0360    3.2140   42.3440 C.ar  168  TYR168      0.1957
     86  OH       -16.0740    2.3100   42.4150 O.3   168  TYR168     -0.2866
     87  N         -9.9350    8.4740   44.3230 N.am  169  LEU169     -0.1963
     88  CA        -8.7670    9.3570   44.2700 C.3   169  LEU169      0.1728
     89  C         -7.6340    8.8930   45.1590 C.2   169  LEU169      0.2616
     90  O         -7.8490    8.6380   46.3450 O.2   169  LEU169     -0.2715
     91  CB        -9.1110   10.8100   44.6460 C.3   169  LEU169      0.0311
     92  CG        -9.9190   11.6290   43.6450 C.3   169  LEU169      0.0022
     93  CD1      -10.6030   12.8250   44.3290 C.3   169  LEU169      0.0001
     94  CD2       -9.0590   12.0790   42.4750 C.3   169  LEU169      0.0001
     95  N         -6.4170    8.8450   44.5970 N.am  170  PHE170     -0.1960
     96  CA        -5.1940    8.5680   45.3370 C.3   170  PHE170      0.1771
     97  C         -4.3570    9.8560   45.2710 C.2   170  PHE170      0.2619
     98  O         -4.0790   10.3650   44.1770 O.2   170  PHE170     -0.2715
     99  CB        -4.4120    7.3670   44.7570 C.3   170  PHE170      0.0574
    100  CG        -3.5580    6.6710   45.7890 C.ar  170  PHE170     -0.0200
    101  CD1       -3.9080    5.4170   46.2690 C.ar  170  PHE170     -0.0042
    102  CD2       -2.4240    7.2870   46.3110 C.ar  170  PHE170     -0.0042
    103  CE1       -3.1330    4.7820   47.2410 C.ar  170  PHE170     -0.0003
    104  CE2       -1.6570    6.6580   47.2910 C.ar  170  PHE170     -0.0003
    105  CZ        -2.0230    5.4130   47.7570 C.ar  170  PHE170     -0.0000
    106  N         -4.0010   10.4100   46.4390 N.am  171  ASP171     -0.1971
    107  CA        -3.2300   11.6520   46.4910 C.3   171  ASP171      0.1709
    108  C         -1.7360   11.4060   46.3380 C.2   171  ASP171      0.2293
    109  O         -1.1970   10.4520   46.9130 O.2   171  ASP171     -0.2864
    110  CB        -3.5370   12.4400   47.7770 C.3   171  ASP171      0.1436
    111  CG        -5.0210   12.7270   47.9990 C.2   171  ASP171      0.3671
    112  OD1       -5.4250   12.9120   49.1730 O.co2 171  ASP171     -0.2456
    113  OD2       -5.7860   12.7190   47.0050 O.co2 171  ASP171     -0.2456
    114  N          1.0940   13.7120   47.0870 N.3   173  ASP173     -0.1239
    115  CA         1.6130   14.9270   47.7280 C.3   173  ASP173      0.1674
    116  C          3.1380   14.7960   47.9200 C.2   173  ASP173      0.2266
    117  O          3.5920   13.7640   48.4260 O.2   173  ASP173     -0.2867
    118  CB         0.9140   15.1580   49.0750 C.3   173  ASP173      0.1410
    119  CG        -0.5210   15.5150   48.9750 C.2   173  ASP173      0.3668
    120  OD1       -0.9820   15.9820   47.8890 O.co2 173  ASP173     -0.2456
    121  OD2       -1.2390   15.4130   50.0240 O.co2 173  ASP173     -0.2456
    122  N          0.4000   19.3390   43.8470 N.3   179  VAL179     -0.1245
    123  CA        -0.5220   18.2950   44.2520 C.3   179  VAL179      0.1561
    124  C         -1.1730   17.7330   43.0030 C.2   179  VAL179      0.2260
    125  O         -1.7730   18.4770   42.2160 O.2   179  VAL179     -0.2867
    126  CB        -1.5560   18.8140   45.2710 C.3   179  VAL179      0.0252
    127  CG1       -2.5340   17.7230   45.6920 C.3   179  VAL179      0.0019
    128  CG2       -0.8120   19.2980   46.5180 C.3   179  VAL179      0.0019
    129  N         -3.2000   13.9410   41.3920 N.3   181  CYS181     -0.1235
    130  CA        -4.0030   12.7790   41.7510 C.3   181  CYS181      0.1677
    131  C         -4.0200   11.7230   40.6720 C.2   181  CYS181      0.2270
    132  O         -3.8190   12.0050   39.4850 O.2   181  CYS181     -0.2867
    133  CB        -5.4320   13.2080   42.0920 C.3   181  CYS181      0.0956
    134  SG        -5.6640   13.7880   43.7910 S.3   181  CYS181     -0.0801
    135  N         -9.9570   -2.5250   45.3630 N.3   194  ILE194     -0.1245
    136  CA        -9.3850   -2.8660   46.6640 C.3   194  ILE194      0.1561
    137  C        -10.0810   -2.0200   47.7450 C.2   194  ILE194      0.2260
    138  O        -10.0310   -0.7910   47.7030 O.2   194  ILE194     -0.2867
    139  CB        -7.8430   -2.7740   46.7050 C.3   194  ILE194      0.0252
    140  CG1       -7.1910   -3.7390   45.6740 C.3   194  ILE194      0.0019
    141  CG2       -7.3310   -3.0670   48.1140 C.3   194  ILE194      0.0019
    142  CD1       -5.5670   -3.6180   45.5370 C.3   194  ILE194      0.0001
    143  N         -6.0380   -1.8980   52.0800 N.3   235  PHE235     -0.1241
    144  CA        -5.1220   -0.9190   52.6470 C.3   235  PHE235      0.1605
    145  C         -5.9320    0.1330   53.4190 C.2   235  PHE235      0.2264
    146  O         -7.1470    0.2400   53.2440 O.2   235  PHE235     -0.2867
    147  CB        -4.1980   -0.2930   51.5640 C.3   235  PHE235      0.0534
    148  CG        -4.8870    0.5440   50.5070 C.ar  235  PHE235     -0.0203
    149  CD1       -4.8870    1.9340   50.5860 C.ar  235  PHE235     -0.0042
    150  CD2       -5.5300   -0.0570   49.4250 C.ar  235  PHE235     -0.0042
    151  CE1       -5.5270    2.7070   49.6080 C.ar  235  PHE235     -0.0003
    152  CE2       -6.1680    0.7190   48.4500 C.ar  235  PHE235     -0.0003
    153  CZ        -6.1560    2.0950   48.5440 C.ar  235  PHE235     -0.0000
    154  N         -7.2850    3.5670   53.8920 N.3   237  TYR237     -0.1241
    155  CA        -7.5980    4.7350   53.0610 C.3   237  TYR237      0.1605
    156  C         -7.1710    6.0480   53.7470 C.2   237  TYR237      0.2264
    157  O         -7.0470    7.0780   53.0840 O.2   237  TYR237     -0.2867
    158  CB        -9.1060    4.8080   52.7660 C.3   237  TYR237      0.0534
    159  CG        -9.6760    3.8120   51.7750 C.ar  237  TYR237     -0.0201
    160  CD1       -8.8740    2.8320   51.1900 C.ar  237  TYR237     -0.0009
    161  CD2      -11.0250    3.8400   51.4310 C.ar  237  TYR237     -0.0009
    162  CE1       -9.4070    1.8990   50.2990 C.ar  237  TYR237      0.0417
    163  CE2      -11.5700    2.9100   50.5490 C.ar  237  TYR237      0.0417
    164  CZ       -10.7580    1.9410   49.9860 C.ar  237  TYR237      0.1957
    165  OH       -11.3120    1.0610   49.0970 O.3   237  TYR237     -0.2866
    166  N         -8.7560   10.8890   56.4500 N.3   240  ARG240     -0.1231
    167  CA        -9.3410   11.8670   55.5160 C.3   240  ARG240      0.1694
    168  C        -10.5560   11.3010   54.7640 C.2   240  ARG240      0.2592
    169  O        -11.5270   12.0290   54.5680 O.2   240  ARG240     -0.2718
    170  CB        -8.3010   12.3890   54.5210 C.3   240  ARG240      0.0321
    171  CG        -7.0530   11.6050   54.2560 C.3   240  ARG240      0.0489
    172  CD        -6.2170   12.2940   53.1630 C.3   240  ARG240      0.2205
    173  NE        -6.9300   12.2050   51.8920 N.pl3 240  ARG240     -0.0865
    174  CZ        -7.4080   11.0810   51.3220 C.cat 240  ARG240      0.5346
    175  NH1       -7.2910    9.8540   51.8390 N.pl3 240  ARG240      0.1354
    176  NH2       -8.0350   11.2910   50.1410 N.pl3 240  ARG240      0.1354
    177  N        -10.5240   10.0030   54.3890 N.am  241  PHE241     -0.1976
    178  CA       -11.6280    9.3200   53.7070 C.3   241  PHE241      0.1639
    179  C        -12.8380    9.1750   54.6350 C.2   241  PHE241      0.2290
    180  O        -13.9620    9.4710   54.2210 O.2   241  PHE241     -0.2864
    181  CB       -11.1870    7.9380   53.1960 C.3   241  PHE241      0.0560
    182  CG       -12.2290    7.1950   52.3850 C.ar  241  PHE241     -0.0200
    183  CD1      -12.3120    7.3640   51.0050 C.ar  241  PHE241     -0.0042
    184  CD2      -13.1020    6.2970   52.9950 C.ar  241  PHE241     -0.0042
    185  CE1      -13.2730    6.6770   50.2530 C.ar  241  PHE241     -0.0003
    186  CE2      -14.0640    5.6080   52.2420 C.ar  241  PHE241     -0.0003
    187  CZ       -14.1400    5.7990   50.8750 C.ar  241  PHE241     -0.0000
    188  N        -14.4400   12.3950   55.3730 N.3   244  ILE244     -0.1231
    189  CA       -15.2130   12.8020   54.1990 C.3   244  ILE244      0.1692
    190  C        -16.5130   12.0200   54.1200 C.2   244  ILE244      0.2591
    191  O        -17.5900   12.6180   54.0680 O.2   244  ILE244     -0.2718
    192  CB       -14.3920   12.6740   52.9020 C.3   244  ILE244      0.0266
    193  CG1      -13.3540   13.8050   52.9240 C.3   244  ILE244      0.0019
    194  CG2      -15.2590   12.7100   51.6360 C.3   244  ILE244      0.0020
    195  CD1      -12.3510   14.0110   51.8220 C.3   244  ILE244      0.0001
    196  N        -16.4160   10.6880   54.1630 N.am  245  LYS245     -0.1980
    197  CA       -17.5570    9.7860   54.0810 C.3   245  LYS245      0.1596
    198  C        -17.9280    9.3120   55.4870 C.2   245  LYS245      0.2287
    199  O        -18.8690    8.5430   55.6600 O.2   245  LYS245     -0.2864
    200  CB       -17.2290    8.5880   53.1480 C.3   245  LYS245      0.0298
    201  CG       -16.4930    8.9160   51.8230 C.3   245  LYS245      0.0038
    202  CD       -17.3780    9.5970   50.7610 C.3   245  LYS245      0.0206
    203  CE       -16.8330    9.3820   49.3690 C.3   245  LYS245      0.1093
    204  NZ       -17.6710   10.0430   48.3330 N.3   245  LYS245     -0.1314
@<TRIPOS>BOND
     1    51    49    1
     2    49    50    1
     3    49    48    2
     4    48    47    1
     5    39    38    1
     6    47    46    1
     7    59    58   ar
     8    46    45    1
     9    38    40    1
    10    38    35    1
    11    37    36    2
    12    60    58   ar
    13    58    57    1
    14   132   131    2
    15    36    35    1
    16    36    41   am
    17    45    42    1
    18    42    41    1
    19    42    43    1
    20    35    34    1
    21     4     3    2
    22     3     2    1
    23    57    56    1
    24    21    22    1
    25   131   130    1
    26    52    43   am
    27    52    53    1
    28    56    53    1
    29    13    14    1
    30    34    28   am
    31    43    44    2
    32   129   130    1
    33    22    23    1
    34    22    25    1
    35    53    54    1
    36     2     1    1
    37     2     5    1
    38   130   133    1
    39    20    18   ar
    40    15    14    1
    41    15    16    2
    42   133   134    1
    43    82    84   ar
    44    82    80   ar
    45    84    85   ar
    46   125   124    2
    47    79    80    1
    48    79    76    1
    49    14    17    1
    50    80    81   ar
    51    85    86    1
    52    85    83   ar
    53    23    26   am
    54    23    24    2
    55    28    29    2
    56    28    27    1
    57    81    83   ar
    58    94    92    1
    59    54    55    2
    60    26    27    1
    61     8    10   ar
    62     8     6   ar
    63    10    11   ar
    64    78    77    2
    65     5     6    1
    66    18    17    1
    67    18    19   ar
    68   124   123    1
    69     6     7   ar
    70    11    12    1
    71    11     9   ar
    72    27    30    1
    73    77    76    1
    74    77    87   am
    75    30    31    1
    76    76    75    1
    77    92    93    1
    78    92    91    1
    79     7     9   ar
    80   122   123    1
    81    98    97    2
    82    61    62    1
    83   123   126    1
    84    88    87    1
    85    88    91    1
    86    88    89    1
    87    75    71   am
    88    95    89   am
    89    95    96    1
    90    99    96    1
    91    99   100    1
    92    62    63    1
    93    62    65    1
    94    31    33   ar
    95    31    32   ar
    96    89    90    2
    97    97    96    1
    98    97   106   am
    99   126   127    1
   100   126   128    1
   101   135   136    1
   102    71    72    2
   103    71    70    1
   104    69    63   am
   105    69    70    1
   106   142   140    1
   107    63    64    2
   108   140   139    1
   109   100   101   ar
   110   100   102   ar
   111    65    66    1
   112    73    70    1
   113    73    74    1
   114   101   103   ar
   115   102   104   ar
   116   108   107    1
   117   108   109    2
   118   106   107    1
   119   107   110    1
   120   136   139    1
   121   136   137    1
   122   139   141    1
   123    67    66   ar
   124   113   111   ar
   125    66    68   ar
   126   114   115    1
   127   103   105   ar
   128   104   105   ar
   129   138   137    2
   130   115   116    1
   131   115   118    1
   132   110   111    1
   133   120   119   ar
   134   116   117    2
   135   111   112   ar
   136   204   203    1
   137   152   153   ar
   138   152   150   ar
   139   153   151   ar
   140   119   118    1
   141   119   121   ar
   142   165   164    1
   143   203   202    1
   144   150   148   ar
   145   151   149   ar
   146   164   162   ar
   147   164   163   ar
   148   176   174    1
   149   185   187   ar
   150   185   183   ar
   151   162   160   ar
   152   148   149   ar
   153   148   147    1
   154   163   161   ar
   155   202   201    1
   156   187   186   ar
   157   183   182   ar
   158   160   159   ar
   159   174   175    1
   160   174   173    2
   161   161   159   ar
   162   147   144    1
   163   194   192    1
   164   159   158    1
   165   195   193    1
   166   201   200    1
   167   173   172    1
   168   143   144    1
   169   186   184   ar
   170   182   184   ar
   171   182   181    1
   172   144   145    1
   173   158   155    1
   174   192   193    1
   175   192   189    1
   176   155   156    1
   177   155   154    1
   178   157   156    2
   179   200   197    1
   180   172   171    1
   181   181   178    1
   182   146   145    2
   183   178   177    1
   184   178   179    1
   185   191   190    2
   186   197   196    1
   187   197   198    1
   188   190   196   am
   189   190   189    1
   190   189   188    1
   191   180   179    2
   192   171   170    1
   193   177   168   am
   194   170   167    1
   195   169   168    2
   196   168   167    1
   197   198   199    2
   198   167   166    1
