@<TRIPOS>MOLECULE
tmp/3rjyA02.pdb
 138 138 0 0 0
SMALL
GASTEIGER

@<TRIPOS>ATOM
      1  N        -23.9290   11.6780   -9.9750 N.3    18  ASN18      -0.1240
      2  CA       -24.7310   11.4820   -8.7530 C.3    18  ASN18       0.1653
      3  C        -24.7590   10.0490   -8.2000 C.2    18  ASN18       0.2266
      4  O        -25.7120    9.6570   -7.5310 O.2    18  ASN18      -0.2867
      5  CB       -26.1380   12.0670   -8.9500 C.3    18  ASN18       0.1155
      6  CG       -26.0900   13.5300   -9.3340 C.2    18  ASN18       0.2627
      7  OD1      -25.5250   14.3370   -8.6170 O.2    18  ASN18      -0.2716
      8  ND2      -26.6520   13.8720  -10.4840 N.am   18  ASN18      -0.0877
      9  N        -19.5900    9.4730   -6.6030 N.3    21  GLU21      -0.1245
     10  CA       -18.9770   10.6910   -6.0940 C.3    21  GLU21       0.1567
     11  C        -19.8070   11.3720   -4.9790 C.2    21  GLU21       0.2260
     12  O        -19.3890   12.4000   -4.4340 O.2    21  GLU21      -0.2867
     13  CB       -18.6760   11.6700   -7.2460 C.3    21  GLU21       0.0388
     14  CG       -19.8390   12.5770   -7.6310 C.3    21  GLU21       0.1160
     15  CD       -20.9350   11.9410   -8.5090 C.2    21  GLU21       0.3649
     16  OE1      -21.1080   10.6840   -8.5440 O.co2  21  GLU21      -0.2457
     17  OE2      -21.6420   12.7510   -9.1670 O.co2  21  GLU21      -0.2457
     18  N        -27.1590   10.2580   -3.5730 N.3    28  TRP28      -0.1241
     19  CA       -27.4760   11.4130   -4.4170 C.3    28  TRP28       0.1605
     20  C        -28.4910   11.0630   -5.5320 C.2    28  TRP28       0.2264
     21  O        -28.8160   11.9130   -6.3720 O.2    28  TRP28      -0.2867
     22  CB       -26.2050   12.0480   -4.9980 C.3    28  TRP28       0.0550
     23  CG       -25.4200   12.9080   -4.0430 C.ar   28  TRP28       0.0003
     24  CD1      -25.6260   13.0590   -2.6880 C.ar   28  TRP28       0.0946
     25  CD2      -24.2700   13.7080   -4.3600 C.ar   28  TRP28       0.0152
     26  NE1      -24.6850   13.9080   -2.1630 N.ar   28  TRP28      -0.2442
     27  CE2      -23.8460   14.3230   -3.1650 C.ar   28  TRP28       0.0810
     28  CE3      -23.5470   13.9500   -5.5410 C.ar   28  TRP28       0.0012
     29  CZ2      -22.7400   15.1750   -3.1150 C.ar   28  TRP28       0.0191
     30  CZ3      -22.4650   14.7990   -5.4910 C.ar   28  TRP28       0.0001
     31  CH2      -22.0700   15.4030   -4.2840 C.ar   28  TRP28       0.0015
     32  N        -12.9250   12.5180   -7.3220 N.3    93  HIS93      -0.1226
     33  CA       -13.9230   13.5820   -7.4800 C.3    93  HIS93       0.1752
     34  C        -14.3990   14.0310   -6.0890 C.2    93  HIS93       0.2596
     35  O        -14.6220   13.1910   -5.2090 O.2    93  HIS93      -0.2718
     36  CB       -15.1110   12.9780   -8.2450 C.3    93  HIS93       0.0759
     37  CG       -15.8680   13.9310   -9.1230 C.ar   93  HIS93       0.0818
     38  ND1      -16.8160   14.8080   -8.6370 N.ar   93  HIS93      -0.2268
     39  CD2      -15.8920   14.0680  -10.4710 C.ar   93  HIS93       0.1154
     40  CE1      -17.3550   15.4770   -9.6410 C.ar   93  HIS93       0.1986
     41  NE2      -16.8170   15.0410  -10.7670 N.ar   93  HIS93      -0.2212
     42  N        -14.5680   15.3330   -5.8840 N.am   94  HIS94      -0.1975
     43  CA       -15.1300   15.8620   -4.6110 C.3    94  HIS94       0.1656
     44  C        -14.2710   15.5290   -3.3620 C.2    94  HIS94       0.2291
     45  O        -14.7880   15.1120   -2.3100 O.2    94  HIS94      -0.2864
     46  CB       -16.5780   15.3850   -4.3920 C.3    94  HIS94       0.0771
     47  CG       -17.5780   15.9240   -5.3780 C.ar   94  HIS94       0.0820
     48  ND1      -17.5000   17.1900   -5.9170 N.ar   94  HIS94      -0.2267
     49  CD2      -18.6990   15.3660   -5.8990 C.ar   94  HIS94       0.1154
     50  CE1      -18.5190   17.3820   -6.7400 C.ar   94  HIS94       0.1986
     51  NE2      -19.2670   16.2940   -6.7370 N.ar   94  HIS94      -0.2212
     52  N        -10.6940   15.7790  -10.3420 N.3   133  ASN133     -0.1225
     53  CA       -11.7460   16.6060  -10.9180 C.3   133  ASN133      0.1785
     54  C        -11.7080   18.0510  -10.4380 C.2   133  ASN133      0.2597
     55  O        -11.8250   18.3230   -9.2380 O.2   133  ASN133     -0.2718
     56  CB       -13.1190   15.9980  -10.6140 C.3   133  ASN133      0.1169
     57  CG       -14.2750   16.8510  -11.1280 C.2   133  ASN133      0.2627
     58  OD1      -14.9710   17.5290  -10.3520 O.2   133  ASN133     -0.2716
     59  ND2      -14.5050   16.8020  -12.4220 N.am  133  ASN133     -0.0877
     60  N        -11.5460   18.9660  -11.3930 N.am  134  GLU134     -0.1979
     61  CA       -11.6910   20.3950  -11.1630 C.3   134  GLU134      0.1602
     62  C        -10.8640   20.9140   -9.9930 C.2   134  GLU134      0.2287
     63  O        -11.4240   21.2340   -8.9280 O.2   134  GLU134     -0.2864
     64  CB       -13.1610   20.7770  -10.9910 C.3   134  GLU134      0.0415
     65  CG       -13.9730   20.6800  -12.2770 C.3   134  GLU134      0.1163
     66  CD       -15.4040   21.1770  -12.1170 C.2   134  GLU134      0.3649
     67  OE1      -15.7230   21.8270  -11.1020 O.co2 134  GLU134     -0.2457
     68  OE2      -16.2190   20.8980  -13.0130 O.co2 134  GLU134     -0.2457
     69  N        -19.6330   25.0360  -18.9270 N.3   195  TYR195     -0.1241
     70  CA       -20.9530   25.3770  -18.4080 C.3   195  TYR195      0.1605
     71  C        -21.3700   26.8180  -18.7200 C.2   195  TYR195      0.2264
     72  O        -22.2920   27.3590  -18.0990 O.2   195  TYR195     -0.2867
     73  CB       -21.0180   25.1010  -16.9000 C.3   195  TYR195      0.0534
     74  CG       -21.0180   23.6210  -16.5730 C.ar  195  TYR195     -0.0201
     75  CD1      -22.1080   22.7980  -16.9310 C.ar  195  TYR195     -0.0009
     76  CD2      -19.9250   23.0270  -15.9370 C.ar  195  TYR195     -0.0009
     77  CE1      -22.1020   21.4250  -16.6460 C.ar  195  TYR195      0.0417
     78  CE2      -19.9200   21.6530  -15.6570 C.ar  195  TYR195      0.0417
     79  CZ       -21.0000   20.8650  -16.0190 C.ar  195  TYR195      0.1957
     80  OH       -20.9910   19.5190  -15.7110 O.3   195  TYR195     -0.2866
     81  N        -27.0070   26.6490  -15.1670 N.3   202  HIS202     -0.1241
     82  CA       -27.2570   26.3490  -13.7600 C.3   202  HIS202      0.1621
     83  C        -28.3920   27.1460  -13.1520 C.2   202  HIS202      0.2264
     84  O        -28.4700   27.2800  -11.9270 O.2   202  HIS202     -0.2867
     85  CB       -25.9730   26.4940  -12.9340 C.3   202  HIS202      0.0745
     86  CG       -24.9860   25.3990  -13.1940 C.ar  202  HIS202      0.0817
     87  ND1      -24.7470   24.3790  -12.2930 N.ar  202  HIS202     -0.2268
     88  CD2      -24.2090   25.1430  -14.2730 C.ar  202  HIS202      0.1154
     89  CE1      -23.8550   23.5480  -12.8040 C.ar  202  HIS202      0.1986
     90  NE2      -23.5120   23.9900  -14.0030 N.ar  202  HIS202     -0.2212
     91  N        -28.3380   24.1000   -5.4260 N.3   207  TRP207     -0.1241
     92  CA       -27.0240   23.9330   -4.7830 C.3   207  TRP207      0.1605
     93  C        -26.0710   25.1060   -4.9880 C.2   207  TRP207      0.2264
     94  O        -25.0570   25.2200   -4.3030 O.2   207  TRP207     -0.2867
     95  CB       -26.3670   22.6050   -5.1700 C.3   207  TRP207      0.0550
     96  CG       -26.0430   22.4390   -6.6290 C.ar  207  TRP207      0.0003
     97  CD1      -24.8470   22.7100   -7.2370 C.ar  207  TRP207      0.0946
     98  CD2      -26.9080   21.9290   -7.6540 C.ar  207  TRP207      0.0152
     99  NE1      -24.9230   22.4180   -8.5760 N.ar  207  TRP207     -0.2442
    100  CE2      -26.1740   21.9300   -8.8580 C.ar  207  TRP207      0.0810
    101  CE3      -28.2440   21.4750   -7.6720 C.ar  207  TRP207      0.0012
    102  CZ2      -26.7260   21.4930  -10.0780 C.ar  207  TRP207      0.0191
    103  CZ3      -28.7890   21.0380   -8.8800 C.ar  207  TRP207      0.0001
    104  CH2      -28.0330   21.0510  -10.0640 C.ar  207  TRP207      0.0015
    105  N        -17.0350   17.4900  -19.1450 N.3   250  GLU250     -0.1245
    106  CA       -18.4200   17.7250  -18.7130 C.3   250  GLU250      0.1567
    107  C        -18.9800   18.9180  -19.4510 C.2   250  GLU250      0.2260
    108  O        -18.2820   19.9180  -19.6470 O.2   250  GLU250     -0.2867
    109  CB       -18.5250   18.0580  -17.2170 C.3   250  GLU250      0.0388
    110  CG       -17.9350   17.0520  -16.2360 C.3   250  GLU250      0.1160
    111  CD       -18.0990   17.5010  -14.7860 C.2   250  GLU250      0.3649
    112  OE1      -18.6500   18.6010  -14.5680 O.co2 250  GLU250     -0.2457
    113  OE2      -17.6730   16.7610  -13.8680 O.co2 250  GLU250     -0.2457
    114  N        -22.7340   15.7530  -19.2060 N.3   283  TRP283     -0.1241
    115  CA       -23.1740   15.7120  -17.8150 C.3   283  TRP283      0.1605
    116  C        -24.7060   15.9180  -17.7470 C.2   283  TRP283      0.2264
    117  O        -25.1940   17.0070  -18.0330 O.2   283  TRP283     -0.2867
    118  CB       -22.4480   16.7870  -16.9850 C.3   283  TRP283      0.0550
    119  CG       -22.7650   16.7120  -15.5070 C.ar  283  TRP283      0.0003
    120  CD1      -23.7800   17.3600  -14.8470 C.ar  283  TRP283      0.0946
    121  CD2      -22.0720   15.9370  -14.5110 C.ar  283  TRP283      0.0152
    122  NE1      -23.7620   17.0340  -13.5090 N.ar  283  TRP283     -0.2442
    123  CE2      -22.7190   16.1740  -13.2700 C.ar  283  TRP283      0.0810
    124  CE3      -20.9710   15.0770  -14.5450 C.ar  283  TRP283      0.0012
    125  CZ2      -22.3070   15.5570  -12.0720 C.ar  283  TRP283      0.0191
    126  CZ3      -20.5430   14.4730  -13.3460 C.ar  283  TRP283      0.0001
    127  CH2      -21.2050   14.7270  -12.1290 C.ar  283  TRP283      0.0015
    128  N        -29.7380   16.6030  -14.8660 N.3   289  PHE289     -0.1241
    129  CA       -29.2620   17.0810  -16.1650 C.3   289  PHE289      0.1605
    130  C        -29.4610   15.9510  -17.1640 C.2   289  PHE289      0.2264
    131  O        -29.0290   16.0750  -18.3140 O.2   289  PHE289     -0.2867
    132  CB       -27.7470   17.3410  -16.1600 C.3   289  PHE289      0.0534
    133  CG       -27.2840   18.5990  -15.4420 C.ar  289  PHE289     -0.0203
    134  CD1      -26.7530   19.6620  -16.1730 C.ar  289  PHE289     -0.0042
    135  CD2      -27.2550   18.6680  -14.0500 C.ar  289  PHE289     -0.0042
    136  CE1      -26.2460   20.8130  -15.5300 C.ar  289  PHE289     -0.0003
    137  CE2      -26.7750   19.8080  -13.3930 C.ar  289  PHE289     -0.0003
    138  CZ       -26.2640   20.8850  -14.1380 C.ar  289  PHE289     -0.0000
@<TRIPOS>BOND
     1   108   107    2
     2   107   106    1
     3   114   115    1
     4   105   106    1
     5    69    70    1
     6    71    70    1
     7    71    72    2
     8   106   109    1
     9    70    73    1
    10   131   130    2
    11   117   116    2
    12   115   116    1
    13   115   118    1
    14   109   110    1
    15   130   129    1
    16   118   119    1
    17    75    77   ar
    18    75    74   ar
    19    73    74    1
    20    77    79   ar
    21    74    76   ar
    22   110   111    1
    23   134   136   ar
    24   134   133   ar
    25   129   132    1
    26   129   128    1
    27   132   133    1
    28    79    80    1
    29    79    78   ar
    30    76    78   ar
    31   136   138   ar
    32   119   120   ar
    33   119   121   ar
    34   133   135   ar
    35    81    82    1
    36   120   122   ar
    37   111   112   ar
    38   111   113   ar
    39   124   121   ar
    40   124   126   ar
    41   121   123   ar
    42    88    90   ar
    43    88    86   ar
    44   138   137   ar
    45   135   137   ar
    46    90    89   ar
    47    82    83    1
    48    82    85    1
    49   122   123   ar
    50   126   127   ar
    51   123   125   ar
    52    86    85    1
    53    86    87   ar
    54    83    84    2
    55    68    66   ar
    56    89    87   ar
    57    59    57   am
    58    65    66    1
    59    65    64    1
    60   127   125   ar
    61    66    67   ar
    62    60    61    1
    63    60    54   am
    64    61    64    1
    65    61    62    1
    66    57    56    1
    67    57    58    2
    68    53    56    1
    69    53    54    1
    70    53    52    1
    71    41    39   ar
    72    41    40   ar
    73     8     6   am
    74    39    37   ar
    75    54    55    2
    76   102   104   ar
    77   102   100   ar
    78   104   103   ar
    79    62    63    2
    80     1     2    1
    81    40    38   ar
    82     6     5    1
    83     6     7    2
    84    17    15   ar
    85    37    38   ar
    86    37    36    1
    87     5     2    1
    88   103   101   ar
    89   100    99   ar
    90   100    98   ar
    91     2     3    1
    92    99    97   ar
    93    16    15   ar
    94    15    14    1
    95    36    33    1
    96     3     4    2
    97   101    98   ar
    98    98    96   ar
    99    14    13    1
   100    33    32    1
   101    33    34    1
   102    13    10    1
   103    97    96   ar
   104    50    51   ar
   105    50    48   ar
   106    51    49   ar
   107    96    95    1
   108     9    10    1
   109    21    20    2
   110    10    11    1
   111    34    42   am
   112    34    35    2
   113    48    47   ar
   114    49    47   ar
   115    42    43    1
   116    28    30   ar
   117    28    25   ar
   118    20    19    1
   119    30    31   ar
   120    91    92    1
   121    47    46    1
   122    95    92    1
   123    22    19    1
   124    22    23    1
   125    93    92    1
   126    93    94    2
   127    11    12    2
   128    43    46    1
   129    43    44    1
   130    19    18    1
   131    25    23   ar
   132    25    27   ar
   133    31    29   ar
   134    23    24   ar
   135    44    45    2
   136    27    29   ar
   137    27    26   ar
   138    24    26   ar
