@<TRIPOS>MOLECULE
tmp/3rjyA01.pdb
 111 110 0 0 0
SMALL
GASTEIGER

@<TRIPOS>ATOM
      1  N        -12.9250   12.5180   -7.3220 N.3    93  HIS93      -0.1226
      2  CA       -13.9230   13.5820   -7.4800 C.3    93  HIS93       0.1752
      3  C        -14.3990   14.0310   -6.0890 C.2    93  HIS93       0.2596
      4  O        -14.6220   13.1910   -5.2090 O.2    93  HIS93      -0.2718
      5  CB       -15.1110   12.9780   -8.2450 C.3    93  HIS93       0.0759
      6  CG       -15.8680   13.9310   -9.1230 C.ar   93  HIS93       0.0818
      7  ND1      -16.8160   14.8080   -8.6370 N.ar   93  HIS93      -0.2268
      8  CD2      -15.8920   14.0680  -10.4710 C.ar   93  HIS93       0.1154
      9  CE1      -17.3550   15.4770   -9.6410 C.ar   93  HIS93       0.1986
     10  NE2      -16.8170   15.0410  -10.7670 N.ar   93  HIS93      -0.2212
     11  N        -14.5680   15.3330   -5.8840 N.am   94  HIS94      -0.1975
     12  CA       -15.1300   15.8620   -4.6110 C.3    94  HIS94       0.1656
     13  C        -14.2710   15.5290   -3.3620 C.2    94  HIS94       0.2291
     14  O        -14.7880   15.1120   -2.3100 O.2    94  HIS94      -0.2864
     15  CB       -16.5780   15.3850   -4.3920 C.3    94  HIS94       0.0771
     16  CG       -17.5780   15.9240   -5.3780 C.ar   94  HIS94       0.0820
     17  ND1      -17.5000   17.1900   -5.9170 N.ar   94  HIS94      -0.2267
     18  CD2      -18.6990   15.3660   -5.8990 C.ar   94  HIS94       0.1154
     19  CE1      -18.5190   17.3820   -6.7400 C.ar   94  HIS94       0.1986
     20  NE2      -19.2670   16.2940   -6.7370 N.ar   94  HIS94      -0.2212
     21  N        -10.6940   15.7790  -10.3420 N.3   133  ASN133     -0.1225
     22  CA       -11.7460   16.6060  -10.9180 C.3   133  ASN133      0.1785
     23  C        -11.7080   18.0510  -10.4380 C.2   133  ASN133      0.2597
     24  O        -11.8250   18.3230   -9.2380 O.2   133  ASN133     -0.2718
     25  CB       -13.1190   15.9980  -10.6140 C.3   133  ASN133      0.1169
     26  CG       -14.2750   16.8510  -11.1280 C.2   133  ASN133      0.2627
     27  OD1      -14.9710   17.5290  -10.3520 O.2   133  ASN133     -0.2716
     28  ND2      -14.5050   16.8020  -12.4220 N.am  133  ASN133     -0.0877
     29  N        -11.5460   18.9660  -11.3930 N.am  134  GLU134     -0.1979
     30  CA       -11.6910   20.3950  -11.1630 C.3   134  GLU134      0.1602
     31  C        -10.8640   20.9140   -9.9930 C.2   134  GLU134      0.2287
     32  O        -11.4240   21.2340   -8.9280 O.2   134  GLU134     -0.2864
     33  CB       -13.1610   20.7770  -10.9910 C.3   134  GLU134      0.0415
     34  CG       -13.9730   20.6800  -12.2770 C.3   134  GLU134      0.1163
     35  CD       -15.4040   21.1770  -12.1170 C.2   134  GLU134      0.3649
     36  OE1      -15.7230   21.8270  -11.1020 O.co2 134  GLU134     -0.2457
     37  OE2      -16.2190   20.8980  -13.0130 O.co2 134  GLU134     -0.2457
     38  N        -11.5490   25.1960  -11.3920 N.3   171  TRP171     -0.1241
     39  CA       -12.7760   24.4720  -11.7520 C.3   171  TRP171      0.1605
     40  C        -12.7900   23.9190  -13.2120 C.2   171  TRP171      0.2264
     41  O        -13.8410   23.5420  -13.7260 O.2   171  TRP171     -0.2867
     42  CB       -14.0390   25.3270  -11.4580 C.3   171  TRP171      0.0550
     43  CG       -14.1000   25.9510  -10.0670 C.ar  171  TRP171      0.0003
     44  CD1      -13.9030   27.2760   -9.7450 C.ar  171  TRP171      0.0946
     45  CD2      -14.3780   25.2800   -8.8250 C.ar  171  TRP171      0.0152
     46  NE1      -14.0450   27.4600   -8.3870 N.ar  171  TRP171     -0.2442
     47  CE2      -14.3360   26.2550   -7.8000 C.ar  171  TRP171      0.0810
     48  CE3      -14.6460   23.9490   -8.4780 C.ar  171  TRP171      0.0012
     49  CZ2      -14.5580   25.9400   -6.4500 C.ar  171  TRP171      0.0191
     50  CZ3      -14.8650   23.6360   -7.1280 C.ar  171  TRP171      0.0001
     51  CH2      -14.8190   24.6300   -6.1360 C.ar  171  TRP171      0.0015
     52  N        -12.3800   25.5660  -15.9050 N.3   173  ASN173     -0.1240
     53  CA       -12.9880   26.5730  -16.7620 C.3   173  ASN173      0.1653
     54  C        -12.0390   26.7900  -17.9340 C.2   173  ASN173      0.2266
     55  O        -10.8040   26.8250  -17.7450 O.2   173  ASN173     -0.2867
     56  CB       -13.1940   27.8770  -15.9680 C.3   173  ASN173      0.1155
     57  CG       -13.8940   28.9730  -16.7770 C.2   173  ASN173      0.2627
     58  OD1      -13.3070   29.5770  -17.6640 O.2   173  ASN173     -0.2716
     59  ND2      -15.1490   29.2460  -16.4400 N.am  173  ASN173     -0.0877
     60  N        -13.9620   21.6640  -18.5970 N.3   193  HIS193     -0.1241
     61  CA       -15.4100   21.5280  -18.4570 C.3   193  HIS193      0.1621
     62  C        -16.0870   22.7640  -19.0110 C.2   193  HIS193      0.2264
     63  O        -15.5160   23.8540  -18.9810 O.2   193  HIS193     -0.2867
     64  CB       -15.8020   21.2960  -16.9980 C.3   193  HIS193      0.0745
     65  CG       -15.2930   19.9980  -16.4420 C.ar  193  HIS193      0.0817
     66  ND1      -15.3650   19.6790  -15.1020 N.ar  193  HIS193     -0.2268
     67  CD2      -14.7060   18.9320  -17.0470 C.ar  193  HIS193      0.1154
     68  CE1      -14.8520   18.4780  -14.9060 C.ar  193  HIS193      0.1986
     69  NE2      -14.4410   18.0050  -16.0680 N.ar  193  HIS193     -0.2212
     70  N        -19.6330   25.0360  -18.9270 N.3   195  TYR195     -0.1241
     71  CA       -20.9530   25.3770  -18.4080 C.3   195  TYR195      0.1605
     72  C        -21.3700   26.8180  -18.7200 C.2   195  TYR195      0.2264
     73  O        -22.2920   27.3590  -18.0990 O.2   195  TYR195     -0.2867
     74  CB       -21.0180   25.1010  -16.9000 C.3   195  TYR195      0.0534
     75  CG       -21.0180   23.6210  -16.5730 C.ar  195  TYR195     -0.0201
     76  CD1      -22.1080   22.7980  -16.9310 C.ar  195  TYR195     -0.0009
     77  CD2      -19.9250   23.0270  -15.9370 C.ar  195  TYR195     -0.0009
     78  CE1      -22.1020   21.4250  -16.6460 C.ar  195  TYR195      0.0417
     79  CE2      -19.9200   21.6530  -15.6570 C.ar  195  TYR195      0.0417
     80  CZ       -21.0000   20.8650  -16.0190 C.ar  195  TYR195      0.1957
     81  OH       -20.9910   19.5190  -15.7110 O.3   195  TYR195     -0.2866
     82  N        -22.9620   30.2920  -17.3360 N.3   198  PHE198     -0.1241
     83  CA       -23.3400   29.6580  -16.0640 C.3   198  PHE198      0.1605
     84  C        -24.7610   29.9930  -15.5900 C.2   198  PHE198      0.2264
     85  O        -25.4550   29.1360  -15.0580 O.2   198  PHE198     -0.2867
     86  CB       -22.3210   29.9890  -14.9650 C.3   198  PHE198      0.0534
     87  CG       -22.4150   29.0820  -13.7690 C.ar  198  PHE198     -0.0203
     88  CD1      -21.8220   27.8190  -13.7910 C.ar  198  PHE198     -0.0042
     89  CD2      -23.0950   29.4860  -12.6250 C.ar  198  PHE198     -0.0042
     90  CE1      -21.8960   26.9790  -12.6810 C.ar  198  PHE198     -0.0003
     91  CE2      -23.1840   28.6480  -11.5120 C.ar  198  PHE198     -0.0003
     92  CZ       -22.5860   27.3920  -11.5380 C.ar  198  PHE198     -0.0000
     93  N        -27.0070   26.6490  -15.1670 N.3   202  HIS202     -0.1241
     94  CA       -27.2570   26.3490  -13.7600 C.3   202  HIS202      0.1621
     95  C        -28.3920   27.1460  -13.1520 C.2   202  HIS202      0.2264
     96  O        -28.4700   27.2800  -11.9270 O.2   202  HIS202     -0.2867
     97  CB       -25.9730   26.4940  -12.9340 C.3   202  HIS202      0.0745
     98  CG       -24.9860   25.3990  -13.1940 C.ar  202  HIS202      0.0817
     99  ND1      -24.7470   24.3790  -12.2930 N.ar  202  HIS202     -0.2268
    100  CD2      -24.2090   25.1430  -14.2730 C.ar  202  HIS202      0.1154
    101  CE1      -23.8550   23.5480  -12.8040 C.ar  202  HIS202      0.1986
    102  NE2      -23.5120   23.9900  -14.0030 N.ar  202  HIS202     -0.2212
    103  N        -17.0350   17.4900  -19.1450 N.3   250  GLU250     -0.1245
    104  CA       -18.4200   17.7250  -18.7130 C.3   250  GLU250      0.1567
    105  C        -18.9800   18.9180  -19.4510 C.2   250  GLU250      0.2260
    106  O        -18.2820   19.9180  -19.6470 O.2   250  GLU250     -0.2867
    107  CB       -18.5250   18.0580  -17.2170 C.3   250  GLU250      0.0388
    108  CG       -17.9350   17.0520  -16.2360 C.3   250  GLU250      0.1160
    109  CD       -18.0990   17.5010  -14.7860 C.2   250  GLU250      0.3649
    110  OE1      -18.6500   18.6010  -14.5680 O.co2 250  GLU250     -0.2457
    111  OE2      -17.6730   16.7610  -13.8680 O.co2 250  GLU250     -0.2457
@<TRIPOS>BOND
     1   106   105    2
     2   105   104    1
     3   103   104    1
     4    62    63    2
     5    62    61    1
     6    70    71    1
     7    72    71    1
     8    72    73    2
     9   104   107    1
    10    60    61    1
    11    61    64    1
    12    71    74    1
    13    54    55    2
    14    54    53    1
    15    58    57    2
    16    82    83    1
    17   107   108    1
    18    67    65   ar
    19    67    69   ar
    20    64    65    1
    21    76    78   ar
    22    76    75   ar
    23    74    75    1
    24    57    59   am
    25    57    56    1
    26    53    56    1
    27    53    52    1
    28    78    80   ar
    29    75    77   ar
    30    65    66   ar
    31   108   109    1
    32    69    68   ar
    33    83    84    1
    34    83    86    1
    35    80    81    1
    36    80    79   ar
    37    77    79   ar
    38    84    85    2
    39    93    94    1
    40    66    68   ar
    41    86    87    1
    42   109   110   ar
    43   109   111   ar
    44   100   102   ar
    45   100    98   ar
    46   102   101   ar
    47    88    87   ar
    48    88    90   ar
    49    87    89   ar
    50    94    95    1
    51    94    97    1
    52    41    40    2
    53    40    39    1
    54    98    97    1
    55    98    99   ar
    56    95    96    2
    57    37    35   ar
    58   101    99   ar
    59    90    92   ar
    60    89    91   ar
    61    28    26   am
    62    34    35    1
    63    34    33    1
    64    35    36   ar
    65    39    42    1
    66    39    38    1
    67    92    91   ar
    68    42    43    1
    69    29    30    1
    70    29    23   am
    71    30    33    1
    72    30    31    1
    73    26    25    1
    74    26    27    2
    75    22    25    1
    76    22    23    1
    77    22    21    1
    78    10     8   ar
    79    10     9   ar
    80     8     6   ar
    81    23    24    2
    82    43    44   ar
    83    43    45   ar
    84    31    32    2
    85    44    46   ar
    86     9     7   ar
    87     6     7   ar
    88     6     5    1
    89    45    48   ar
    90    45    47   ar
    91    48    50   ar
    92    46    47   ar
    93     5     2    1
    94    47    49   ar
    95     2     1    1
    96     2     3    1
    97    50    51   ar
    98    19    20   ar
    99    19    17   ar
   100    20    18   ar
   101    49    51   ar
   102     3    11   am
   103     3     4    2
   104    17    16   ar
   105    18    16   ar
   106    11    12    1
   107    16    15    1
   108    12    15    1
   109    12    13    1
   110    13    14    2
