@<TRIPOS>MOLECULE
tmp/3rk0A00.pdb
 141 133 0 0 0
SMALL
GASTEIGER

@<TRIPOS>ATOM
      1  N         62.3890   27.2340    7.0680 N.3     7  LEU7       -0.1231
      2  CA        62.2590   25.7900    6.9420 C.3     7  LEU7        0.1693
      3  C         63.7020   25.3170    6.7300 C.2     7  LEU7        0.2592
      4  O         64.2720   25.4780    5.6500 O.2     7  LEU7       -0.2718
      5  CB        61.3620   25.4190    5.7530 C.3     7  LEU7        0.0284
      6  CG        59.9320   26.0160    5.7510 C.3     7  LEU7        0.0019
      7  CD1       59.1010   25.4070    4.6240 C.3     7  LEU7        0.0001
      8  CD2       59.2570   25.7470    7.0770 C.3     7  LEU7        0.0001
      9  N         64.2820   24.7480    7.7840 N.am    8  TYR8       -0.1962
     10  CA        65.6720   24.3270    7.7800 C.3     8  TYR8        0.1771
     11  C         65.8530   22.8140    7.8140 C.2     8  TYR8        0.2620
     12  O         65.5060   22.1650    8.8080 O.2     8  TYR8       -0.2715
     13  CB        66.3480   24.9530    9.0050 C.3     8  TYR8        0.0574
     14  CG        67.8550   24.9900    8.9930 C.ar    8  TYR8       -0.0198
     15  CD1       68.5390   26.0060    8.3240 C.ar    8  TYR8       -0.0009
     16  CD2       68.5950   24.0400    9.6970 C.ar    8  TYR8       -0.0009
     17  CE1       69.9250   26.0860    8.3630 C.ar    8  TYR8        0.0417
     18  CE2       69.9830   24.1050    9.7420 C.ar    8  TYR8        0.0417
     19  CZ        70.6450   25.1360    9.0750 C.ar    8  TYR8        0.1957
     20  OH        72.0040   25.2340    9.1480 O.3     8  TYR8       -0.2866
     21  N         66.4180   22.2530    6.7490 N.am    9  SER9       -0.1950
     22  CA        66.6370   20.8130    6.6950 C.3     9  SER9        0.1924
     23  C         68.1360   20.4980    6.7410 C.2     9  SER9        0.2314
     24  O         68.5410   19.3260    6.7020 O.2     9  SER9       -0.2863
     25  CB        66.0000   20.2120    5.4290 C.3     9  SER9        0.2116
     26  OG        66.8500   20.3780    4.3120 O.3     9  SER9       -0.2180
     27  N         70.7630   21.4630    4.4920 N.3    11  GLY11      -0.1210
     28  CA        71.5740   21.5570    3.2930 C.3    11  GLY11       0.1956
     29  C         71.9400   22.9670    2.8700 C.2    11  GLY11       0.2612
     30  O         71.5990   23.9440    3.5420 O.2    11  GLY11      -0.2717
     31  N         72.6280   23.0690    1.7380 N.am   12  LYS12      -0.1965
     32  CA        73.0730   24.3560    1.2230 C.3    12  LYS12       0.1728
     33  C         71.9870   25.4210    1.0560 C.2    12  LYS12       0.2616
     34  O         72.2140   26.5830    1.4190 O.2    12  LYS12      -0.2715
     35  CB        73.7990   24.1700   -0.1140 C.3    12  LYS12       0.0311
     36  CG        72.8940   23.7570   -1.2970 C.3    12  LYS12       0.0038
     37  CD        73.7410   23.3510   -2.4900 C.3    12  LYS12       0.0206
     38  CE        72.9280   23.1800   -3.7740 C.3    12  LYS12       0.1093
     39  NZ        71.7880   22.2340   -3.6600 N.3    12  LYS12      -0.1314
     40  N         70.8230   25.0400    0.5240 N.am   13  ASP13      -0.1957
     41  CA        69.7420   26.0060    0.3020 C.3    13  ASP13       0.1840
     42  C         69.0120   26.4630    1.5610 C.2    13  ASP13       0.2622
     43  O         68.6410   27.6360    1.6630 O.2    13  ASP13      -0.2715
     44  CB        68.7300   25.4760   -0.7250 C.3    13  ASP13       0.1450
     45  CG        67.9160   26.6050   -1.3820 C.2    13  ASP13       0.3671
     46  OD1       68.5080   27.6710   -1.6650 O.co2  13  ASP13      -0.2456
     47  OD2       66.6980   26.4300   -1.6290 O.co2  13  ASP13      -0.2456
     48  N         68.8070   25.5570    2.5170 N.am   14  SER14      -0.1950
     49  CA        68.1580   25.9230    3.7700 C.3    14  SER14       0.1924
     50  C         69.0520   26.9770    4.3910 C.2    14  SER14       0.2314
     51  O         68.5810   28.0110    4.8850 O.2    14  SER14      -0.2863
     52  CB        68.0770   24.7380    4.7400 C.3    14  SER14       0.2116
     53  OG        67.3760   23.6360    4.2020 O.3    14  SER14      -0.2180
     54  N         62.8440   25.5930   11.4880 N.3    32  VAL32      -0.1231
     55  CA        61.8800   24.5070   11.5950 C.3    32  VAL32       0.1692
     56  C         62.3150   23.3040   10.7870 C.2    32  VAL32       0.2592
     57  O         62.5430   23.4010    9.5880 O.2    32  VAL32      -0.2718
     58  CB        60.4690   24.9290   11.0910 C.3    32  VAL32       0.0266
     59  CG1       59.5120   23.7270   11.1430 C.3    32  VAL32       0.0020
     60  CG2       59.9290   26.0730   11.9460 C.3    32  VAL32       0.0020
     61  N         62.4270   22.1670   11.4520 N.am   33  THR33      -0.1953
     62  CA        62.8420   20.9460   10.7870 C.3    33  THR33       0.1897
     63  C         61.7610   19.8850   10.9870 C.2    33  THR33       0.2313
     64  O         61.2630   19.6990   12.0980 O.2    33  THR33      -0.2863
     65  CB        64.1600   20.4180   11.4010 C.3    33  THR33       0.1794
     66  OG1       65.0840   21.5010   11.5480 O.3    33  THR33      -0.2208
     67  CG2       64.7780   19.3620   10.5060 C.3    33  THR33       0.0378
     68  N         53.0420   19.9760    9.1910 N.3    69  LEU69      -0.1245
     69  CA        53.8050   21.2150    9.0640 C.3    69  LEU69       0.1561
     70  C         52.9600   22.3980    9.5150 C.2    69  LEU69       0.2260
     71  O         53.3990   23.2130   10.3270 O.2    69  LEU69      -0.2867
     72  CB        54.2630   21.4400    7.6160 C.3    69  LEU69       0.0270
     73  CG        54.9810   22.7730    7.3320 C.3    69  LEU69       0.0019
     74  CD1       56.2340   22.8970    8.2030 C.3    69  LEU69       0.0001
     75  CD2       55.3540   22.8550    5.8660 C.3    69  LEU69       0.0001
     76  N         61.7400   30.0290    2.7950 N.3    83  ALA83      -0.1231
     77  CA        62.2080   28.7930    2.1830 C.3    83  ALA83       0.1694
     78  C         63.1550   29.1990    1.0620 C.2    83  ALA83       0.2592
     79  O         63.0260   30.2900    0.5030 O.2    83  ALA83      -0.2718
     80  CB        61.0320   28.0130    1.6220 C.3    83  ALA83       0.0304
     81  N         64.1090   28.3400    0.7350 N.am   84  GLY84      -0.1957
     82  CA        65.0500   28.6740   -0.3210 C.3    84  GLY84       0.1869
     83  C         64.4180   28.6320   -1.6990 C.2    84  GLY84       0.2309
     84  O         63.4250   27.9390   -1.9100 O.2    84  GLY84      -0.2863
     85  N         65.3590   27.1510   -4.1190 N.3    86  LEU86      -0.1231
     86  CA        65.6680   25.8770   -4.7630 C.3    86  LEU86       0.1693
     87  C         64.7740   24.7490   -4.2590 C.2    86  LEU86       0.2591
     88  O         64.9890   23.5800   -4.5910 O.2    86  LEU86      -0.2718
     89  CB        67.1410   25.5050   -4.5430 C.3    86  LEU86       0.0284
     90  CG        68.1640   25.8880   -5.6160 C.3    86  LEU86       0.0019
     91  CD1       67.7560   25.2290   -6.9270 C.3    86  LEU86       0.0001
     92  CD2       68.2450   27.3970   -5.7840 C.3    86  LEU86       0.0001
     93  N         63.7760   25.0920   -3.4500 N.am   87  ALA87      -0.1980
     94  CA        62.8600   24.0840   -2.9240 C.3    87  ALA87       0.1597
     95  C         62.2580   23.2760   -4.0760 C.2    87  ALA87       0.2287
     96  O         62.0330   23.8100   -5.1630 O.2    87  ALA87      -0.2864
     97  CB        61.7570   24.7560   -2.1320 C.3    87  ALA87       0.0319
     98  N         57.5900   20.8240   -3.2510 N.3    91  GLN91      -0.1245
     99  CA        57.7650   21.4640   -1.9530 C.3    91  GLN91       0.1566
    100  C         57.1340   22.8530   -1.9350 C.2    91  GLN91       0.2260
    101  O         56.4710   23.2280   -0.9720 O.2    91  GLN91      -0.2867
    102  CB        59.2590   21.5850   -1.6160 C.3    91  GLN91       0.0367
    103  CG        59.7360   20.7160   -0.4490 C.3    91  GLN91       0.0905
    104  CD        61.2390   20.8310   -0.1910 C.2    91  GLN91       0.2608
    105  OE1       61.7590   20.2670    0.7760 O.2    91  GLN91      -0.2717
    106  NE2       61.9400   21.5560   -1.0590 N.am   91  GLN91      -0.0878
    107  N         53.3570   22.8100   -1.2930 N.3    94  ARG94      -0.1231
    108  CA        52.9560   22.5680    0.0850 C.3    94  ARG94       0.1694
    109  C         53.1330   23.8570    0.8830 C.2    94  ARG94       0.2591
    110  O         52.2520   24.2540    1.6520 O.2    94  ARG94      -0.2718
    111  CB        53.8030   21.4530    0.7190 C.3    94  ARG94       0.0321
    112  CG        53.7800   20.1080   -0.0200 C.3    94  ARG94       0.0489
    113  CD        54.0320   18.9480    0.9530 C.3    94  ARG94       0.2205
    114  NE        55.2200   19.1490    1.7860 N.pl3  94  ARG94      -0.0865
    115  CZ        56.4530   18.7800    1.4480 C.cat  94  ARG94       0.5346
    116  NH1       57.4640   19.0150    2.2760 N.pl3  94  ARG94       0.1354
    117  NH2       56.6710   18.1630    0.2920 N.pl3  94  ARG94       0.1354
    118  N         54.2740   24.5110    0.6890 N.am   95  ILE95      -0.1980
    119  CA        54.5850   25.7540    1.3850 C.3    95  ILE95       0.1595
    120  C         53.5070   26.7860    1.0940 C.2    95  ILE95       0.2287
    121  O         52.9740   27.4230    2.0050 O.2    95  ILE95      -0.2864
    122  CB        55.9660   26.3120    0.9380 C.3    95  ILE95       0.0276
    123  CG1       57.0490   25.2590    1.1510 C.3    95  ILE95       0.0022
    124  CG2       56.3290   27.5330    1.7480 C.3    95  ILE95       0.0022
    125  CD1       58.4010   25.6590    0.6130 C.3    95  ILE95       0.0001
    126  N         72.4890   15.2850   -2.1150 N.3   171  GLU171     -0.1231
    127  CA        72.1010   15.9820   -0.8830 C.3   171  GLU171      0.1699
    128  C         73.3340   16.6250   -0.2560 C.2   171  GLU171      0.2592
    129  O         74.4440   16.1280   -0.4310 O.2   171  GLU171     -0.2718
    130  CB        71.5210   15.0040    0.1470 C.3   171  GLU171      0.0402
    131  CG        70.5910   13.9360   -0.3900 C.3   171  GLU171      0.1161
    132  CD        69.4890   14.5030   -1.2430 C.2   171  GLU171      0.3649
    133  OE1       68.8190   15.4580   -0.7910 O.co2 171  GLU171     -0.2457
    134  OE2       69.2910   13.9930   -2.3650 O.co2 171  GLU171     -0.2457
    135  N         73.1560   17.7110    0.4880 N.am  172  THR172     -0.1953
    136  CA        74.3150   18.3320    1.1140 C.3   172  THR172      0.1897
    137  C         74.0840   18.6350    2.5770 C.2   172  THR172      0.2313
    138  O         72.9710   18.5170    3.0730 O.2   172  THR172     -0.2863
    139  CB        74.7180   19.6320    0.4200 C.3   172  THR172      0.1794
    140  OG1       73.7360   20.6370    0.6630 O.3   172  THR172     -0.2208
    141  CG2       74.8480   19.4200   -1.0620 C.3   172  THR172      0.0378
@<TRIPOS>BOND
     1    91    90    1
     2    92    90    1
     3    90    89    1
     4    96    95    2
     5    86    89    1
     6    86    87    1
     7    86    85    1
     8    88    87    2
     9    87    93   am
    10    95    94    1
    11    38    39    1
    12    38    37    1
    13    93    94    1
    14    98    99    1
    15    94    97    1
    16    37    36    1
    17   134   132   ar
    18   126   127    1
    19    99   100    1
    20    99   102    1
    21   100   101    2
    22    84    83    2
    23    83    82    1
    24    46    45   ar
    25    47    45   ar
    26   102   103    1
    27    45    44    1
    28    36    35    1
    29   107   108    1
    30   132   133   ar
    31   132   131    1
    32   141   139    1
    33   106   104   am
    34   127   128    1
    35   127   130    1
    36    44    41    1
    37   103   104    1
    38   129   128    2
    39   131   130    1
    40    82    81    1
    41   128   135   am
    42   104   105    2
    43    35    32    1
    44   112   111    1
    45   112   113    1
    46   108   111    1
    47   108   109    1
    48   117   115    1
    49    41    40    1
    50    41    42    1
    51   139   140    1
    52   139   136    1
    53   135   136    1
    54    79    78    2
    55    40    33   am
    56   125   123    1
    57   118   109   am
    58   118   119    1
    59    81    78   am
    60   109   110    2
    61   122   123    1
    62   122   119    1
    63   122   124    1
    64   113   114    1
    65    33    32    1
    66    33    34    2
    67    78    77    1
    68   120   119    1
    69   120   121    2
    70   136   137    1
    71    32    31    1
    72   115   114    2
    73   115   116    1
    74    42    43    2
    75    42    48   am
    76    80    77    1
    77    31    29   am
    78    77    76    1
    79    48    49    1
    80   137   138    2
    81    29    28    1
    82    29    30    2
    83    28    27    1
    84    49    50    1
    85    49    52    1
    86    53    52    1
    87    26    25    1
    88    50    51    2
    89     7     6    1
    90    25    22    1
    91     4     3    2
    92     6     5    1
    93     6     8    1
    94     5     2    1
    95    75    73    1
    96    22    23    1
    97    22    21    1
    98    24    23    2
    99     3     2    1
   100     3     9   am
   101    21    11   am
   102     2     1    1
   103    73    72    1
   104    73    74    1
   105    72    69    1
   106    10     9    1
   107    10    11    1
   108    10    13    1
   109    11    12    2
   110    15    17   ar
   111    15    14   ar
   112    17    19   ar
   113    14    13    1
   114    14    16   ar
   115    69    68    1
   116    69    70    1
   117    19    20    1
   118    19    18   ar
   119    70    71    2
   120    57    56    2
   121    16    18   ar
   122    67    65    1
   123    62    63    1
   124    62    65    1
   125    62    61    1
   126    56    61   am
   127    56    55    1
   128    63    64    2
   129    58    59    1
   130    58    55    1
   131    58    60    1
   132    65    66    1
   133    54    55    1
