@<TRIPOS>MOLECULE
tmp/3rk1B00.pdb
 181 173 0 0 0
SMALL
GASTEIGER

@<TRIPOS>ATOM
      1  N         -1.8220   -3.7330   11.7100 N.3     7  LEU7       -0.1231
      2  CA        -1.1950   -2.6060   11.0200 C.3     7  LEU7        0.1693
      3  C         -2.1650   -1.4630   11.2510 C.2     7  LEU7        0.2592
      4  O         -3.2600   -1.4430   10.7000 O.2     7  LEU7       -0.2718
      5  CB        -1.0510   -2.8990    9.5350 C.3     7  LEU7        0.0284
      6  CG        -0.3400   -4.2200    9.2190 C.3     7  LEU7        0.0019
      7  CD1       -0.1420   -4.3350    7.7060 C.3     7  LEU7        0.0001
      8  CD2        0.9990   -4.2840    9.9170 C.3     7  LEU7        0.0001
      9  N         -1.7520   -0.4990   12.0630 N.am    8  TYR8       -0.1962
     10  CA        -2.6330    0.6000   12.4530 C.3     8  TYR8        0.1771
     11  C         -2.2690    1.9750   11.8900 C.2     8  TYR8        0.2620
     12  O         -1.2050    2.5130   12.1910 O.2     8  TYR8       -0.2715
     13  CB        -2.6530    0.6370   13.9860 C.3     8  TYR8        0.0574
     14  CG        -3.7650    1.4410   14.6290 C.ar    8  TYR8       -0.0198
     15  CD1       -5.0580    0.9150   14.7560 C.ar    8  TYR8       -0.0009
     16  CD2       -3.5080    2.7000   15.1840 C.ar    8  TYR8       -0.0009
     17  CE1       -6.0600    1.6160   15.4290 C.ar    8  TYR8        0.0417
     18  CE2       -4.5020    3.4090   15.8560 C.ar    8  TYR8        0.0417
     19  CZ        -5.7700    2.8650   15.9800 C.ar    8  TYR8        0.1957
     20  OH        -6.7300    3.5520   16.6780 O.3     8  TYR8       -0.2866
     21  N         -3.1690    2.5450   11.0920 N.am    9  SER9       -0.1950
     22  CA        -2.9450    3.8620   10.5140 C.3     9  SER9        0.1924
     23  C         -3.8730    4.9410   11.0940 C.2     9  SER9        0.2314
     24  O         -3.8740    6.0840   10.6320 O.2     9  SER9       -0.2863
     25  CB        -3.0710    3.8170    8.9760 C.3     9  SER9        0.2116
     26  OG        -4.1380    2.9780    8.5540 O.3     9  SER9       -0.2180
     27  N         -7.1640    5.3280   10.9440 N.3    11  GLY11      -0.1210
     28  CA        -8.4610    5.5350   10.3350 C.3    11  GLY11       0.1956
     29  C         -9.4930    4.5000   10.7340 C.2    11  GLY11       0.2612
     30  O         -9.2160    3.5910   11.5190 O.2    11  GLY11      -0.2717
     31  N        -10.6830    4.6470   10.1610 N.am   12  LYS12      -0.1965
     32  CA       -11.8140    3.7680   10.4130 C.3    12  LYS12       0.1728
     33  C        -11.5570    2.3190   10.0270 C.2    12  LYS12       0.2616
     34  O        -12.0960    1.4080   10.6380 O.2    12  LYS12      -0.2715
     35  CB       -13.0410    4.2630    9.6350 C.3    12  LYS12       0.0311
     36  CG       -12.7970    4.3150    8.1030 C.3    12  LYS12       0.0038
     37  CD       -14.0640    4.0650    7.3110 C.3    12  LYS12       0.0206
     38  CE       -14.0190    4.6740    5.9080 C.3    12  LYS12       0.1093
     39  NZ       -12.8420    4.2460    5.0560 N.3    12  LYS12      -0.1314
     40  N        -10.7570    2.0840    8.9990 N.am   13  ASP13      -0.1957
     41  CA       -10.5240    0.7020    8.6000 C.3    13  ASP13       0.1840
     42  C         -9.5640    0.0100    9.5610 C.2    13  ASP13       0.2622
     43  O         -9.7900   -1.1390    9.9640 O.2    13  ASP13      -0.2715
     44  CB       -10.0440    0.6720    7.1530 C.3    13  ASP13       0.1450
     45  CG       -11.0330    1.3500    6.2220 C.2    13  ASP13       0.3671
     46  OD1      -10.6110    2.1210    5.3370 O.co2  13  ASP13      -0.2456
     47  OD2      -12.2460    1.1190    6.3780 O.co2  13  ASP13      -0.2456
     48  N         -8.5140    0.7130    9.9650 N.am   14  SER14      -0.1950
     49  CA        -7.5520    0.1450   10.9210 C.3    14  SER14       0.1924
     50  C         -8.2560   -0.1360   12.2580 C.2    14  SER14       0.2314
     51  O         -8.0430   -1.1840   12.8610 O.2    14  SER14      -0.2863
     52  CB        -6.3760    1.1090   11.1650 C.3    14  SER14       0.2116
     53  OG        -5.5450    1.2500   10.0250 O.3    14  SER14      -0.2180
     54  N          1.0090   -1.6770   15.1470 N.3    32  VAL32      -0.1231
     55  CA         2.1930   -1.2830   14.3720 C.3    32  VAL32       0.1692
     56  C          1.8970   -0.1670   13.3640 C.2    32  VAL32       0.2592
     57  O          1.0330   -0.3110   12.4890 O.2    32  VAL32      -0.2718
     58  CB         2.7740   -2.4900   13.5830 C.3    32  VAL32       0.0266
     59  CG1        4.0250   -2.0650   12.8240 C.3    32  VAL32       0.0020
     60  CG2        3.0800   -3.6430   14.5230 C.3    32  VAL32       0.0020
     61  N          2.6250    0.9390   13.4870 N.am   33  THR33      -0.1953
     62  CA         2.4710    2.0860   12.5880 C.3    33  THR33       0.1897
     63  C          3.8030    2.3690   11.9030 C.2    33  THR33       0.2313
     64  O          4.8340    2.5140   12.5640 O.2    33  THR33      -0.2863
     65  CB         2.0260    3.3770   13.3540 C.3    33  THR33       0.1794
     66  OG1        0.7520    3.1660   13.9810 O.3    33  THR33      -0.2208
     67  CG2        1.9040    4.5630   12.3870 C.3    33  THR33       0.0378
     68  N          6.1580    4.8520    9.8650 N.3    34  VAL34      -0.1231
     69  CA         6.2800    6.2810    9.6660 C.3    34  VAL34       0.1692
     70  C          7.1720    6.5140    8.4670 C.2    34  VAL34       0.2592
     71  O          8.3920    6.3650    8.5470 O.2    34  VAL34      -0.2718
     72  CB         6.8900    6.9500   10.8970 C.3    34  VAL34       0.0266
     73  CG1        6.9500    8.4670   10.6940 C.3    34  VAL34       0.0020
     74  CG2        6.0650    6.6020   12.1200 C.3    34  VAL34       0.0020
     75  N          6.5470    6.8710    7.3530 N.am   35  SER35      -0.1952
     76  CA         7.2580    7.1020    6.1060 C.3    35  SER35       0.1924
     77  C          7.7010    8.5420    5.9260 C.2    35  SER35       0.2314
     78  O          6.9180    9.4820    6.0980 O.2    35  SER35      -0.2863
     79  CB         6.3730    6.7040    4.9230 C.3    35  SER35       0.2116
     80  OG         7.0220    6.9640    3.6890 O.3    35  SER35      -0.2180
     81  N          2.2510    2.8500    2.7770 N.3    42  TYR42      -0.1227
     82  CA         1.6730    3.3920    3.9950 C.3    42  TYR42       0.1736
     83  C          1.1070    4.7850    3.8940 C.2    42  TYR42       0.2595
     84  O          1.4850    5.5640    3.0250 O.2    42  TYR42      -0.2718
     85  CB         2.7360    3.3890    5.0850 C.3    42  TYR42       0.0548
     86  CG         3.6310    2.1850    5.0340 C.ar   42  TYR42      -0.0200
     87  CD1        4.9450    2.2830    4.5950 C.ar   42  TYR42      -0.0009
     88  CD2        3.1630    0.9450    5.4310 C.ar   42  TYR42      -0.0009
     89  CE1        5.7720    1.1620    4.5610 C.ar   42  TYR42       0.0417
     90  CE2        3.9730   -0.1690    5.4000 C.ar   42  TYR42       0.0417
     91  CZ         5.2710   -0.0640    4.9730 C.ar   42  TYR42       0.1957
     92  OH         6.0550   -1.1930    4.9930 O.3    42  TYR42      -0.2866
     93  N          0.2090    5.0940    4.8200 N.am   43  HIS43      -0.1975
     94  CA        -0.4070    6.4100    4.8880 C.3    43  HIS43       0.1656
     95  C          0.3790    7.2950    5.8450 C.2    43  HIS43       0.2291
     96  O          0.9250    6.8150    6.8330 O.2    43  HIS43      -0.2864
     97  CB        -1.8470    6.2970    5.3860 C.3    43  HIS43       0.0771
     98  CG        -2.8630    6.7000    4.3680 C.ar   43  HIS43       0.0820
     99  ND1       -4.2130    6.7520    4.6420 N.ar   43  HIS43      -0.2267
    100  CD2       -2.7260    7.0670    3.0720 C.ar   43  HIS43       0.1154
    101  CE1       -4.8620    7.1340    3.5580 C.ar   43  HIS43       0.1986
    102  NE2       -3.9850    7.3320    2.5900 N.ar   43  HIS43      -0.2212
    103  N         -0.1450    9.9180   11.1230 N.3    47  ALA47      -0.1245
    104  CA         0.7600    8.8330   11.5180 C.3    47  ALA47       0.1562
    105  C          1.4770    9.1840   12.8250 C.2    47  ALA47       0.2260
    106  O          2.2320    8.3760   13.3650 O.2    47  ALA47      -0.2867
    107  CB         1.7880    8.5580   10.4270 C.3    47  ALA47       0.0290
    108  N          9.1380   -3.1020    6.9480 N.3    77  LEU77      -0.1245
    109  CA         8.0530   -3.6430    7.7540 C.3    77  LEU77       0.1561
    110  C          8.4610   -5.0430    8.2180 C.2    77  LEU77       0.2260
    111  O          8.3370   -5.3850    9.4010 O.2    77  LEU77      -0.2867
    112  CB         6.7660   -3.7200    6.9240 C.3    77  LEU77       0.0270
    113  CG         5.5080   -4.3190    7.5720 C.3    77  LEU77       0.0019
    114  CD1        5.0630   -3.4650    8.7490 C.3    77  LEU77       0.0001
    115  CD2        4.3920   -4.4030    6.5390 C.3    77  LEU77       0.0001
    116  N         -4.9960   -6.2540    9.1620 N.3    91  ALA91      -0.1231
    117  CA        -5.0270   -4.9690    8.4660 C.3    91  ALA91       0.1694
    118  C         -6.4300   -4.7320    7.9050 C.2    91  ALA91       0.2592
    119  O         -7.2200   -5.6720    7.7920 O.2    91  ALA91      -0.2718
    120  CB        -4.0100   -4.9550    7.3360 C.3    91  ALA91       0.0304
    121  N         -6.7340   -3.4790    7.5640 N.am   92  GLY92      -0.1957
    122  CA        -8.0390   -3.1400    7.0140 C.3    92  GLY92       0.1869
    123  C         -8.3020   -3.7710    5.6580 C.2    92  GLY92       0.2309
    124  O         -7.4160   -3.8030    4.7970 O.2    92  GLY92      -0.2863
    125  N        -10.0490   -2.6800    3.2830 N.3    94  LEU94      -0.1231
    126  CA       -10.1110   -1.7000    2.2070 C.3    94  LEU94       0.1693
    127  C         -8.7650   -1.4860    1.5110 C.2    94  LEU94       0.2591
    128  O         -8.6340   -0.6120    0.6540 O.2    94  LEU94      -0.2718
    129  CB       -10.6540   -0.3670    2.7400 C.3    94  LEU94       0.0284
    130  CG       -12.1220   -0.0520    2.4180 C.3    94  LEU94       0.0019
    131  CD1      -13.0400   -1.1330    2.9620 C.3    94  LEU94       0.0001
    132  CD2      -12.4870    1.2970    3.0090 C.3    94  LEU94       0.0001
    133  N         -7.7670   -2.2900    1.8680 N.am   95  ALA95      -0.1980
    134  CA        -6.4450   -2.1740    1.2540 C.3    95  ALA95       0.1597
    135  C         -6.5400   -2.3550   -0.2680 C.2    95  ALA95       0.2287
    136  O         -7.6330   -2.4940   -0.8170 O.2    95  ALA95      -0.2864
    137  CB        -5.5050   -3.2190    1.8510 C.3    95  ALA95       0.0319
    138  N         -1.0440   -3.3880   -1.9800 N.3    99  GLN99      -0.1245
    139  CA        -0.7210   -3.5370   -0.5640 C.3    99  GLN99       0.1566
    140  C         -0.9150   -4.9760   -0.1100 C.2    99  GLN99       0.2260
    141  O          0.0010   -5.6010    0.4300 O.2    99  GLN99      -0.2867
    142  CB        -1.6190   -2.6350    0.2750 C.3    99  GLN99       0.0367
    143  CG        -1.3280   -1.1670    0.1360 C.3    99  GLN99       0.0905
    144  CD        -2.3730   -0.3140    0.8250 C.2    99  GLN99       0.2608
    145  OE1       -3.5230   -0.2490    0.3860 O.2    99  GLN99      -0.2717
    146  NE2       -1.9810    0.3380    1.9190 N.am   99  GLN99      -0.0878
    147  N          1.7600   -7.3260    1.5770 N.3   103  ILE103     -0.1245
    148  CA         1.5340   -7.6920    2.9740 C.3   103  ILE103      0.1561
    149  C          1.6400   -9.2100    3.0960 C.2   103  ILE103      0.2260
    150  O          2.3280   -9.7290    3.9750 O.2   103  ILE103     -0.2867
    151  CB         0.1170   -7.2800    3.4590 C.3   103  ILE103      0.0252
    152  CG1       -0.0410   -5.7590    3.4240 C.3   103  ILE103      0.0019
    153  CG2       -0.1200   -7.8020    4.8670 C.3   103  ILE103      0.0019
    154  CD1        0.9400   -5.0230    4.3000 C.3   103  ILE103      0.0001
    155  N        -11.8510   10.5030    0.5490 N.3   176  PHE176     -0.1227
    156  CA       -11.5890   11.1640    1.8260 C.3   176  PHE176      0.1736
    157  C        -10.8390   10.2790    2.8150 C.2   176  PHE176      0.2595
    158  O        -10.8510    9.0570    2.7000 O.2   176  PHE176     -0.2718
    159  CB       -12.8960   11.6240    2.4710 C.3   176  PHE176      0.0547
    160  CG       -13.8710   10.5130    2.7230 C.ar  176  PHE176     -0.0202
    161  CD1      -14.7530   10.1100    1.7310 C.ar  176  PHE176     -0.0042
    162  CD2      -13.9300    9.8860    3.9600 C.ar  176  PHE176     -0.0042
    163  CE1      -15.6890    9.0970    1.9650 C.ar  176  PHE176     -0.0003
    164  CE2      -14.8610    8.8720    4.2060 C.ar  176  PHE176     -0.0003
    165  CZ       -15.7430    8.4820    3.2030 C.ar  176  PHE176     -0.0000
    166  N        -10.1970   10.9080    3.7930 N.am  177  GLU177     -0.1965
    167  CA        -9.4360   10.1840    4.8030 C.3   177  GLU177      0.1733
    168  C        -10.0410   10.4370    6.1860 C.2   177  GLU177      0.2617
    169  O        -10.6560   11.4790    6.4260 O.2   177  GLU177     -0.2715
    170  CB        -7.9750   10.6310    4.7610 C.3   177  GLU177      0.0429
    171  CG        -7.4130   10.6820    3.3640 C.3   177  GLU177      0.1163
    172  CD        -5.9610   11.1150    3.3310 C.2   177  GLU177      0.3649
    173  OE1       -5.0880   10.2900    3.6780 O.co2 177  GLU177     -0.2457
    174  OE2       -5.6930   12.2860    2.9670 O.co2 177  GLU177     -0.2457
    175  N         -9.8620    9.4870    7.0960 N.am  178  THR178     -0.1951
    176  CA       -10.4440    9.6150    8.4210 C.3   178  THR178      0.1897
    177  C         -9.5240    9.3100    9.6040 C.2   178  THR178      0.2313
    178  O         -8.4650    8.6940    9.4660 O.2   178  THR178     -0.2863
    179  CB       -11.6510    8.6820    8.5490 C.3   178  THR178      0.1794
    180  OG1      -11.2030    7.3180    8.4880 O.3   178  THR178     -0.2208
    181  CG2      -12.6390    8.9380    7.4240 C.3   178  THR178      0.0378
@<TRIPOS>BOND
     1   138   139    1
     2   136   135    2
     3   139   140    1
     4   139   142    1
     5   135   134    1
     6   140   141    2
     7   143   142    1
     8   143   144    1
     9   145   144    2
    10   155   156    1
    11   128   127    2
    12   144   146   am
    13   134   137    1
    14   134   133    1
    15   127   133   am
    16   127   126    1
    17   147   148    1
    18   161   163   ar
    19   161   160   ar
    20   156   159    1
    21   156   157    1
    22   163   165   ar
    23   126   129    1
    24   126   125    1
    25   130   129    1
    26   130   131    1
    27   130   132    1
    28   159   160    1
    29   102   100   ar
    30   102   101   ar
    31   158   157    2
    32   160   162   ar
    33    81    82    1
    34   157   166   am
    35   174   172   ar
    36   148   149    1
    37   148   151    1
    38    84    83    2
    39   100    98   ar
    40   149   150    2
    41   165   164   ar
    42   172   171    1
    43   172   173   ar
    44   171   170    1
    45   152   151    1
    46   152   154    1
    47   151   153    1
    48   101    99   ar
    49    80    79    1
    50   166   167    1
    51    83    82    1
    52    83    93   am
    53   162   164   ar
    54    82    85    1
    55    98    99   ar
    56    98    97    1
    57    89    87   ar
    58    89    91   ar
    59    87    86   ar
    60   170   167    1
    61   124   123    2
    62   167   168    1
    63    93    94    1
    64    94    97    1
    65    94    95    1
    66    79    76    1
    67    91    92    1
    68    91    90   ar
    69    86    85    1
    70    86    88   ar
    71    39    38    1
    72    46    45   ar
    73    90    88   ar
    74   123   122    1
    75    95    96    2
    76    38    37    1
    77    77    78    2
    78    77    76    1
    79    76    75    1
    80   168   169    2
    81   168   175   am
    82    45    47   ar
    83    45    44    1
    84   115   113    1
    85   112   113    1
    86   112   109    1
    87   108   109    1
    88   122   121    1
    89   175   176    1
    90    44    41    1
    91    37    36    1
    92   120   117    1
    93    75    70   am
    94   181   179    1
    95   121   118   am
    96   113   114    1
    97     7     6    1
    98   109   110    1
    99   119   118    2
   100   118   117    1
   101    36    35    1
   102   110   111    2
   103   176   179    1
   104   176   177    1
   105   117   116    1
   106    70    71    2
   107    70    69    1
   108   180   179    1
   109    26    25    1
   110    41    40    1
   111    41    42    1
   112    25    22    1
   113    40    33   am
   114     6     5    1
   115     6     8    1
   116   178   177    2
   117     5     2    1
   118    42    43    2
   119    42    48   am
   120    35    32    1
   121    69    68    1
   122    69    72    1
   123    48    49    1
   124    53    52    1
   125    33    32    1
   126    33    34    2
   127    31    32    1
   128    31    29   am
   129    28    29    1
   130    28    27    1
   131   107   104    1
   132    22    21    1
   133    22    23    1
   134    24    23    2
   135    73    72    1
   136     4     3    2
   137    29    30    2
   138    72    74    1
   139    49    52    1
   140    49    50    1
   141     2     3    1
   142     2     1    1
   143    21    11   am
   144   103   104    1
   145     3     9   am
   146   104   105    1
   147    11    12    2
   148    11    10    1
   149    63    64    2
   150    63    62    1
   151     9    10    1
   152    50    51    2
   153    67    65    1
   154    10    13    1
   155    57    56    2
   156    62    65    1
   157    62    61    1
   158    59    58    1
   159   105   106    2
   160    65    66    1
   161    56    61   am
   162    56    55    1
   163    58    55    1
   164    58    60    1
   165    13    14    1
   166    55    54    1
   167    14    15   ar
   168    14    16   ar
   169    15    17   ar
   170    16    18   ar
   171    17    19   ar
   172    18    19   ar
   173    19    20    1
