@<TRIPOS>MOLECULE
tmp/3rk5A00.pdb
 157 149 0 0 0
SMALL
GASTEIGER

@<TRIPOS>ATOM
      1  N         94.0100  121.1730  -42.8360 N.3    10  ILE10      -0.1231
      2  CA        92.8570  120.3100  -43.0430 C.3    10  ILE10       0.1692
      3  C         93.1560  118.8450  -42.7970 C.2    10  ILE10       0.2592
      4  O         92.3410  117.9720  -43.1070 O.2    10  ILE10      -0.2718
      5  CB        92.2910  120.4760  -44.4700 C.3    10  ILE10       0.0266
      6  CG1       93.4020  120.2840  -45.5010 C.3    10  ILE10       0.0019
      7  CG2       91.6590  121.8440  -44.6150 C.3    10  ILE10       0.0020
      8  CD1       92.9510  120.4770  -46.9410 C.3    10  ILE10       0.0001
      9  N         94.3240  118.5710  -42.2320 N.am   11  GLY11      -0.1957
     10  CA        94.6790  117.1930  -41.9680 C.3    11  GLY11       0.1869
     11  C         96.1220  116.9980  -41.5640 C.2    11  GLY11       0.2309
     12  O         96.9330  117.9270  -41.5930 O.2    11  GLY11      -0.2863
     13  N         98.0910  113.6210  -42.3680 N.3    13  GLY13      -0.1225
     14  CA        98.2550  112.2550  -42.8320 C.3    13  GLY13       0.1811
     15  C         99.3980  111.4930  -42.1870 C.2    13  GLY13       0.2280
     16  O        100.1620  112.0420  -41.3930 O.2    13  GLY13      -0.2866
     17  N         98.4980  118.4130  -44.0790 N.3    18  VAL18      -0.1245
     18  CA        97.8630  118.9210  -45.2800 C.3    18  VAL18       0.1561
     19  C         97.2260  120.2720  -44.9730 C.2    18  VAL18       0.2260
     20  O         96.5170  120.4310  -43.9800 O.2    18  VAL18      -0.2867
     21  CB        96.7790  117.9510  -45.7930 C.3    18  VAL18       0.0252
     22  CG1       96.3530  118.3490  -47.2090 C.3    18  VAL18       0.0019
     23  CG2       97.3010  116.5170  -45.7590 C.3    18  VAL18       0.0019
     24  N         95.4520  122.0010  -52.1160 N.3    31  ALA31      -0.1245
     25  CA        95.7170  121.2440  -50.9100 C.3    31  ALA31       0.1562
     26  C         97.2290  121.1000  -50.9450 C.2    31  ALA31       0.2260
     27  O         97.7840  120.5380  -51.8890 O.2    31  ALA31      -0.2867
     28  CB        95.0660  119.8790  -50.9680 C.3    31  ALA31       0.0290
     29  N        100.4930  119.5550  -49.1540 N.3    33  LYS33      -0.1245
     30  CA       100.9450  118.5600  -48.1940 C.3    33  LYS33       0.1561
     31  C        102.4360  118.6950  -47.9030 C.2    33  LYS33       0.2260
     32  O        103.2630  118.6480  -48.8150 O.2    33  LYS33      -0.2867
     33  CB       100.6560  117.1500  -48.7070 C.3    33  LYS33       0.0271
     34  CG       101.0030  116.0670  -47.7000 C.3    33  LYS33       0.0035
     35  CD       100.4730  114.7130  -48.1320 C.3    33  LYS33       0.0206
     36  CE       100.4180  113.7460  -46.9510 C.3    33  LYS33       0.1093
     37  NZ        99.8550  112.4280  -47.3630 N.3    33  LYS33      -0.1314
     38  N         92.8840  112.2180  -57.2960 N.3    60  VAL60      -0.1245
     39  CA        93.1490  113.6400  -57.0340 C.3    60  VAL60       0.1561
     40  C         94.3840  114.0660  -57.8700 C.2    60  VAL60       0.2260
     41  O         95.4180  113.4140  -57.8310 O.2    60  VAL60      -0.2867
     42  CB        93.4150  113.8990  -55.5180 C.3    60  VAL60       0.0252
     43  CG1       93.7660  115.3710  -55.2790 C.3    60  VAL60       0.0019
     44  CG2       92.1870  113.5430  -54.7000 C.3    60  VAL60       0.0019
     45  N         98.2760  119.5290  -54.4690 N.3    76  PHE76      -0.1227
     46  CA        97.1420  118.8160  -55.0500 C.3    76  PHE76       0.1736
     47  C         95.9600  119.7450  -55.2940 C.2    76  PHE76       0.2595
     48  O         95.8050  120.7770  -54.6370 O.2    76  PHE76      -0.2718
     49  CB        96.6510  117.7230  -54.0950 C.3    76  PHE76       0.0547
     50  CG        97.6350  116.6230  -53.8430 C.ar   76  PHE76      -0.0202
     51  CD1       97.7940  115.5870  -54.7580 C.ar   76  PHE76      -0.0042
     52  CD2       98.3720  116.6020  -52.6720 C.ar   76  PHE76      -0.0042
     53  CE1       98.6730  114.5400  -54.5010 C.ar   76  PHE76      -0.0003
     54  CE2       99.2580  115.5640  -52.4030 C.ar   76  PHE76      -0.0003
     55  CZ        99.4070  114.5250  -53.3210 C.ar   76  PHE76      -0.0000
     56  N         95.1170  119.3550  -56.2430 N.am   77  GLU77      -0.1965
     57  CA        93.9050  120.0980  -56.5250 C.3    77  GLU77       0.1733
     58  C         93.1260  119.9470  -55.2080 C.2    77  GLU77       0.2616
     59  O         93.2320  118.9220  -54.5180 O.2    77  GLU77      -0.2715
     60  CB        93.1360  119.4340  -57.6830 C.3    77  GLU77       0.0429
     61  CG        92.7000  117.9910  -57.3980 C.3    77  GLU77       0.1163
     62  CD        91.7310  117.4140  -58.4450 C.2    77  GLU77       0.3649
     63  OE1       90.7430  118.0940  -58.8040 O.co2  77  GLU77      -0.2457
     64  OE2       91.9490  116.2760  -58.9090 O.co2  77  GLU77      -0.2457
     65  N         92.3570  120.9510  -54.8450 N.am   78  PHE78      -0.1960
     66  CA        91.6070  120.8950  -53.6000 C.3    78  PHE78       0.1771
     67  C         90.1760  120.3950  -53.7660 C.2    78  PHE78       0.2619
     68  O         89.4630  120.8250  -54.6620 O.2    78  PHE78      -0.2715
     69  CB        91.6240  122.2880  -52.9690 C.3    78  PHE78       0.0574
     70  CG        90.7680  122.4350  -51.7490 C.ar   78  PHE78      -0.0200
     71  CD1       89.4760  122.9350  -51.8520 C.ar   78  PHE78      -0.0042
     72  CD2       91.2720  122.1240  -50.4810 C.ar   78  PHE78      -0.0042
     73  CE1       88.6980  123.1310  -50.7150 C.ar   78  PHE78      -0.0003
     74  CE2       90.5050  122.3140  -49.3440 C.ar   78  PHE78      -0.0003
     75  CZ        89.2120  122.8200  -49.4600 C.ar   78  PHE78      -0.0000
     76  N         89.7650  119.4610  -52.9140 N.am   79  LEU79      -0.1963
     77  CA        88.3830  118.9840  -52.9730 C.3    79  LEU79       0.1728
     78  C         87.7900  119.4470  -51.6540 C.2    79  LEU79       0.2616
     79  O         88.5020  119.5500  -50.6570 O.2    79  LEU79      -0.2715
     80  CB        88.3230  117.4690  -53.2010 C.3    79  LEU79       0.0311
     81  CG        88.3480  117.1980  -54.7190 C.3    79  LEU79       0.0022
     82  CD1       89.7820  116.9200  -55.1720 C.3    79  LEU79       0.0001
     83  CD2       87.4210  116.0220  -55.0750 C.3    79  LEU79       0.0001
     84  N         86.4970  119.7500  -51.6250 N.am   80  HIS80      -0.1959
     85  CA        85.9360  120.3020  -50.4070 C.3    80  HIS80       0.1787
     86  C         85.6500  119.4660  -49.2050 C.2    80  HIS80       0.2620
     87  O         85.5050  120.0210  -48.1090 O.2    80  HIS80      -0.2715
     88  CB        84.6910  121.1320  -50.7170 C.3    80  HIS80       0.0785
     89  CG        84.9910  122.5670  -51.0320 C.ar   80  HIS80       0.0821
     90  ND1       85.5250  122.9690  -52.2360 N.ar   80  HIS80      -0.2267
     91  CD2       84.8690  123.6900  -50.2810 C.ar   80  HIS80       0.1154
     92  CE1       85.7190  124.2780  -52.2150 C.ar   80  HIS80       0.1986
     93  NE2       85.3290  124.7390  -51.0410 N.ar   80  HIS80      -0.2212
     94  N         85.5700  118.1470  -49.3650 N.am   81  GLN81      -0.1963
     95  CA        85.2860  117.3140  -48.2040 C.3    81  GLN81       0.1733
     96  C         85.7940  115.8860  -48.4110 C.2    81  GLN81       0.2616
     97  O         85.9750  115.4620  -49.5400 O.2    81  GLN81      -0.2715
     98  CB        83.7670  117.3280  -47.9610 C.3    81  GLN81       0.0408
     99  CG        83.3270  116.7580  -46.6270 C.3    81  GLN81       0.0908
    100  CD        81.9000  117.1600  -46.3060 C.2    81  GLN81       0.2608
    101  OE1       81.6200  118.3180  -45.9900 O.2    81  GLN81      -0.2717
    102  NE2       80.9930  116.2130  -46.4030 N.am   81  GLN81      -0.0878
    103  N         86.0620  115.1630  -47.3250 N.am   82  ASP82      -0.1971
    104  CA        86.5030  113.7780  -47.4570 C.3    82  ASP82       0.1709
    105  C         85.3510  112.8610  -47.0590 C.2    82  ASP82       0.2293
    106  O         84.3670  113.3040  -46.4750 O.2    82  ASP82      -0.2864
    107  CB        87.7820  113.4650  -46.6480 C.3    82  ASP82       0.1436
    108  CG        87.6070  113.5950  -45.1360 C.2    82  ASP82       0.3671
    109  OD1       86.4960  113.4070  -44.5910 O.co2  82  ASP82      -0.2456
    110  OD2       88.6290  113.8650  -44.4910 O.co2  82  ASP82      -0.2456
    111  N         84.2200  112.6500  -43.2270 N.3    85  LYS85      -0.1245
    112  CA        83.3410  113.7040  -42.7310 C.3    85  LYS85       0.1561
    113  C         81.9450  113.5230  -43.2900 C.2    85  LYS85       0.2260
    114  O         80.9540  113.6730  -42.5710 O.2    85  LYS85      -0.2867
    115  CB        83.8650  115.1010  -43.1110 C.3    85  LYS85       0.0271
    116  CG        82.8310  116.1970  -42.8350 C.3    85  LYS85       0.0035
    117  CD        83.3370  117.5840  -43.2350 C.3    85  LYS85       0.0206
    118  CE        84.1870  118.2310  -42.1590 C.3    85  LYS85       0.1093
    119  NZ        83.3530  119.0940  -41.2490 N.3    85  LYS85      -0.1314
    120  N         89.2490  108.8880  -44.8800 N.3   127  GLN127     -0.1231
    121  CA        89.9540  110.1640  -44.8920 C.3   127  GLN127      0.1698
    122  C         90.7330  110.4090  -46.1780 C.2   127  GLN127      0.2592
    123  O         91.0410  111.5570  -46.4850 O.2   127  GLN127     -0.2718
    124  CB        90.9090  110.2630  -43.6900 C.3   127  GLN127      0.0381
    125  CG        90.1920  110.3250  -42.3570 C.3   127  GLN127      0.0905
    126  CD        91.1210  110.0760  -41.1910 C.2   127  GLN127      0.2608
    127  OE1       91.6700  108.9840  -41.0450 O.2   127  GLN127     -0.2717
    128  NE2       91.3060  111.0910  -40.3560 N.am  127  GLN127     -0.0878
    129  N         91.0630  109.3450  -46.9140 N.am  128  ASN128     -0.1974
    130  CA        91.8350  109.4660  -48.1730 C.3   128  ASN128      0.1688
    131  C         90.9890  109.4730  -49.4560 C.2   128  ASN128      0.2292
    132  O         91.5360  109.3940  -50.5720 O.2   128  ASN128     -0.2864
    133  CB        92.8800  108.3280  -48.2840 C.3   128  ASN128      0.1181
    134  CG        94.0260  108.4910  -47.2950 C.2   128  ASN128      0.2629
    135  OD1       94.1960  109.5610  -46.6930 O.2   128  ASN128     -0.2716
    136  ND2       94.8290  107.4400  -47.1320 N.am  128  ASN128     -0.0877
    137  N         88.1820  111.7250  -51.4050 N.3   130  LEU130     -0.1245
    138  CA        87.6490  113.0810  -51.4170 C.3   130  LEU130      0.1561
    139  C         86.4760  113.2380  -52.3480 C.2   130  LEU130      0.2260
    140  O         86.4440  112.6430  -53.4260 O.2   130  LEU130     -0.2867
    141  CB        88.7490  114.0520  -51.8280 C.3   130  LEU130      0.0270
    142  CG        90.1020  113.7370  -51.1680 C.3   130  LEU130      0.0019
    143  CD1       91.1490  114.6510  -51.7760 C.3   130  LEU130      0.0001
    144  CD2       90.0290  113.9030  -49.6580 C.3   130  LEU130      0.0001
    145  N         92.9840  109.7430  -52.9570 N.3   140  ALA140     -0.1231
    146  CA        93.9780  110.7240  -52.5580 C.3   140  ALA140      0.1694
    147  C         95.0370  110.0570  -51.6780 C.2   140  ALA140      0.2592
    148  O         94.8130  108.9760  -51.1490 O.2   140  ALA140     -0.2718
    149  CB        93.3040  111.8700  -51.7880 C.3   140  ALA140      0.0304
    150  N         96.1820  110.7150  -51.5320 N.am  141  ASP141     -0.1974
    151  CA        97.2770  110.2210  -50.6920 C.3   141  ASP141      0.1709
    152  C         98.1600  109.1410  -51.3270 C.2   141  ASP141      0.2293
    153  O         99.3330  109.3660  -51.5780 O.2   141  ASP141     -0.2864
    154  CB        96.7140  109.6930  -49.3700 C.3   141  ASP141      0.1436
    155  CG        97.7870  109.4200  -48.3450 C.2   141  ASP141      0.3671
    156  OD1       98.1310  110.3510  -47.5840 O.co2 141  ASP141     -0.2456
    157  OD2       98.2840  108.2720  -48.3170 O.co2 141  ASP141     -0.2456
@<TRIPOS>BOND
     1    64    62   ar
     2    63    62   ar
     3    62    61    1
     4    40    41    2
     5    40    39    1
     6    60    61    1
     7    60    57    1
     8    38    39    1
     9    39    42    1
    10    57    56    1
    11    57    58    1
    12    56    47   am
    13    42    43    1
    14    42    44    1
    15    47    46    1
    16    47    48    2
    17    58    65   am
    18    58    59    2
    19    82    81    1
    20    83    81    1
    21    46    45    1
    22    46    49    1
    23    65    66    1
    24    51    53   ar
    25    51    50   ar
    26    81    80    1
    27    68    67    2
    28    53    55   ar
    29    49    50    1
    30    50    52   ar
    31    67    66    1
    32    67    76   am
    33    66    69    1
    34   140   139    2
    35    55    54   ar
    36    80    77    1
    37    77    76    1
    38    77    78    1
    39    69    70    1
    40   145   146    1
    41    52    54   ar
    42   146   149    1
    43   146   147    1
    44   139   138    1
    45    90    92   ar
    46    90    89   ar
    47    92    93   ar
    48    24    25    1
    49    27    26    2
    50    71    70   ar
    51    71    73   ar
    52   141   138    1
    53   141   142    1
    54   143   142    1
    55    70    72   ar
    56   147   150   am
    57   147   148    2
    58    78    84   am
    59    78    79    2
    60    84    85    1
    61   153   152    2
    62   150   151    1
    63   138   137    1
    64   152   151    1
    65   142   144    1
    66    93    91   ar
    67    89    88    1
    68    89    91   ar
    69    28    25    1
    70    26    25    1
    71    88    85    1
    72    73    75   ar
    73   151   154    1
    74   132   131    2
    75    72    74   ar
    76    85    86    1
    77    97    96    2
    78    75    74   ar
    79   131   130    1
    80   154   155    1
    81    94    86   am
    82    94    95    1
    83    86    87    2
    84    29    30    1
    85    32    31    2
    86    33    30    1
    87    33    34    1
    88    96    95    1
    89    96   103   am
    90   155   157   ar
    91   155   156   ar
    92   133   130    1
    93   133   134    1
    94    95    98    1
    95    30    31    1
    96   130   129    1
    97    35    34    1
    98    35    36    1
    99    98    99    1
   100   104   103    1
   101   104   105    1
   102   104   107    1
   103    37    36    1
   104   134   136   am
   105   134   135    2
   106    22    21    1
   107   105   106    2
   108     8     6    1
   109   129   122   am
   110   107   108    1
   111    99   100    1
   112   123   122    2
   113   102   100   am
   114   100   101    2
   115   122   121    1
   116    21    23    1
   117    21    18    1
   118     6     5    1
   119    18    19    1
   120    18    17    1
   121   108   109   ar
   122   108   110   ar
   123    19    20    2
   124   121   120    1
   125   121   124    1
   126     7     5    1
   127     5     2    1
   128   124   125    1
   129   113   112    1
   130   113   114    2
   131   117   116    1
   132   117   118    1
   133   111   112    1
   134   115   116    1
   135   115   112    1
   136     4     3    2
   137     2     1    1
   138     2     3    1
   139    14    13    1
   140    14    15    1
   141     3     9   am
   142   125   126    1
   143     9    10    1
   144    15    16    2
   145   118   119    1
   146    10    11    1
   147    12    11    2
   148   126   127    2
   149   126   128   am
