@<TRIPOS>MOLECULE
tmp/3rk9A00.pdb
 144 137 0 0 0
SMALL
GASTEIGER

@<TRIPOS>ATOM
      1  N        -41.0960  -85.5010  -79.3550 N.3    10  ILE10      -0.1245
      2  CA       -40.0850  -84.5320  -79.7750 C.3    10  ILE10       0.1561
      3  C        -40.1570  -83.2540  -78.9570 C.2    10  ILE10       0.2260
      4  O        -39.1340  -82.6520  -78.6360 O.2    10  ILE10      -0.2867
      5  CB       -40.2640  -84.1370  -81.2540 C.3    10  ILE10       0.0252
      6  CG1      -39.8720  -85.2920  -82.1650 C.3    10  ILE10       0.0019
      7  CG2      -39.4310  -82.9070  -81.5690 C.3    10  ILE10       0.0019
      8  CD1      -40.0720  -84.9830  -83.6280 C.3    10  ILE10       0.0001
      9  N        -44.9500  -78.1450  -78.5580 N.3    13  GLY13      -0.1225
     10  CA       -45.1450  -76.8560  -79.1980 C.3    13  GLY13       0.1811
     11  C        -46.2230  -75.9740  -78.5990 C.2    13  GLY13       0.2280
     12  O        -47.0350  -76.4180  -77.7820 O.2    13  GLY13      -0.2866
     13  N        -45.4870  -82.6810  -80.2050 N.3    18  VAL18      -0.1245
     14  CA       -44.8310  -83.1700  -81.4050 C.3    18  VAL18       0.1561
     15  C        -44.1500  -84.4920  -81.0940 C.2    18  VAL18       0.2260
     16  O        -43.4510  -84.6200  -80.0830 O.2    18  VAL18      -0.2867
     17  CB       -43.7850  -82.1640  -81.9110 C.3    18  VAL18       0.0252
     18  CG1      -43.2560  -82.5980  -83.2730 C.3    18  VAL18       0.0019
     19  CG2      -44.4100  -80.7790  -81.9880 C.3    18  VAL18       0.0019
     20  N        -42.2570  -86.0850  -88.3180 N.3    31  ALA31      -0.1245
     21  CA       -42.5570  -85.3550  -87.0910 C.3    31  ALA31       0.1562
     22  C        -44.0710  -85.2030  -87.1360 C.2    31  ALA31       0.2260
     23  O        -44.6110  -84.5870  -88.0540 O.2    31  ALA31      -0.2867
     24  CB       -41.9050  -83.9880  -87.0960 C.3    31  ALA31       0.0290
     25  N        -47.3920  -83.7010  -85.3880 N.3    33  LYS33      -0.1245
     26  CA       -47.8800  -82.7710  -84.3810 C.3    33  LYS33       0.1561
     27  C        -49.3900  -82.9030  -84.1680 C.2    33  LYS33       0.2260
     28  O        -50.1670  -82.7940  -85.1140 O.2    33  LYS33      -0.2867
     29  CB       -47.5330  -81.3380  -84.7720 C.3    33  LYS33       0.0271
     30  CG       -47.8280  -80.3430  -83.6630 C.3    33  LYS33       0.0035
     31  CD       -47.1880  -79.0060  -83.9470 C.3    33  LYS33       0.0206
     32  CE       -47.2120  -78.1130  -82.7170 C.3    33  LYS33       0.1093
     33  NZ       -46.3500  -76.9230  -82.9370 N.3    33  LYS33      -0.1314
     34  N        -39.5840  -76.2790  -93.4510 N.3    60  VAL60      -0.1245
     35  CA       -39.8880  -77.6870  -93.1810 C.3    60  VAL60       0.1561
     36  C        -41.1280  -78.1080  -93.9930 C.2    60  VAL60       0.2260
     37  O        -42.1770  -77.4780  -93.9300 O.2    60  VAL60      -0.2867
     38  CB       -40.0960  -77.9330  -91.6550 C.3    60  VAL60       0.0252
     39  CG1      -40.4950  -79.3730  -91.3800 C.3    60  VAL60       0.0019
     40  CG2      -38.7870  -77.6700  -90.9230 C.3    60  VAL60       0.0019
     41  N        -45.0250  -83.5950  -90.6740 N.3    76  PHE76      -0.1227
     42  CA       -43.9050  -82.8790  -91.2560 C.3    76  PHE76       0.1736
     43  C        -42.7190  -83.7880  -91.5180 C.2    76  PHE76       0.2595
     44  O        -42.5470  -84.8420  -90.8910 O.2    76  PHE76      -0.2718
     45  CB       -43.4270  -81.7850  -90.2960 C.3    76  PHE76       0.0547
     46  CG       -44.4260  -80.6980  -90.0580 C.ar   76  PHE76      -0.0202
     47  CD1      -44.6080  -79.6820  -90.9930 C.ar   76  PHE76      -0.0042
     48  CD2      -45.1670  -80.6730  -88.8840 C.ar   76  PHE76      -0.0042
     49  CE1      -45.5130  -78.6500  -90.7530 C.ar   76  PHE76      -0.0003
     50  CE2      -46.0810  -79.6460  -88.6320 C.ar   76  PHE76      -0.0003
     51  CZ       -46.2510  -78.6300  -89.5720 C.ar   76  PHE76      -0.0000
     52  N        -41.8810  -83.3540  -92.4440 N.am   77  GLU77      -0.1965
     53  CA       -40.6710  -84.0900  -92.7290 C.3    77  GLU77       0.1733
     54  C        -39.8630  -83.9640  -91.4200 C.2    77  GLU77       0.2616
     55  O        -39.9320  -82.9350  -90.7300 O.2    77  GLU77      -0.2715
     56  CB       -39.9350  -83.4210  -93.8930 C.3    77  GLU77       0.0429
     57  CG       -39.4670  -82.0100  -93.5810 C.3    77  GLU77       0.1163
     58  CD       -38.4700  -81.4650  -94.5960 C.2    77  GLU77       0.3649
     59  OE1      -37.4910  -82.1690  -94.9310 O.co2  77  GLU77      -0.2457
     60  OE2      -38.6560  -80.3220  -95.0520 O.co2  77  GLU77      -0.2457
     61  N        -39.1110  -84.9990  -91.0660 N.am   78  PHE78      -0.1960
     62  CA       -38.3300  -84.9920  -89.8270 C.3    78  PHE78       0.1771
     63  C        -36.9000  -84.4560  -89.9860 C.2    78  PHE78       0.2619
     64  O        -36.2440  -84.7750  -90.9700 O.2    78  PHE78      -0.2715
     65  CB       -38.2760  -86.4280  -89.2810 C.3    78  PHE78       0.0574
     66  CG       -37.5380  -86.5720  -87.9770 C.ar   78  PHE78      -0.0200
     67  CD1      -36.2200  -87.0090  -87.9510 C.ar   78  PHE78      -0.0042
     68  CD2      -38.1600  -86.2370  -86.7720 C.ar   78  PHE78      -0.0042
     69  CE1      -35.5240  -87.1100  -86.7540 C.ar   78  PHE78      -0.0003
     70  CE2      -37.4740  -86.3340  -85.5610 C.ar   78  PHE78      -0.0003
     71  CZ       -36.1550  -86.7690  -85.5520 C.ar   78  PHE78      -0.0000
     72  N        -36.4470  -83.6160  -89.0500 N.am   79  LEU79      -0.1963
     73  CA       -35.0520  -83.1190  -89.0500 C.3    79  LEU79       0.1728
     74  C        -34.4760  -83.5370  -87.7010 C.2    79  LEU79       0.2616
     75  O        -35.1960  -83.5700  -86.7070 O.2    79  LEU79      -0.2715
     76  CB       -34.9710  -81.6040  -89.2770 C.3    79  LEU79       0.0311
     77  CG       -35.0240  -81.3080  -90.7870 C.3    79  LEU79       0.0022
     78  CD1      -36.4660  -81.0570  -91.1940 C.3    79  LEU79       0.0001
     79  CD2      -34.1380  -80.1170  -91.1590 C.3    79  LEU79       0.0001
     80  N        -33.1850  -83.8620  -87.6420 N.am   80  HIS80      -0.1959
     81  CA       -32.6580  -84.3850  -86.3840 C.3    80  HIS80       0.1787
     82  C        -32.3490  -83.4870  -85.2330 C.2    80  HIS80       0.2620
     83  O        -32.2290  -83.9650  -84.0910 O.2    80  HIS80      -0.2715
     84  CB       -31.4280  -85.2550  -86.6510 C.3    80  HIS80       0.0785
     85  CG       -31.7610  -86.5880  -87.2490 C.ar   80  HIS80       0.0821
     86  ND1      -32.1930  -86.7310  -88.5490 N.ar   80  HIS80      -0.2267
     87  CD2      -31.7860  -87.8300  -86.7040 C.ar   80  HIS80       0.1154
     88  CE1      -32.4750  -88.0040  -88.7790 C.ar   80  HIS80       0.1986
     89  NE2      -32.2360  -88.6910  -87.6760 N.ar   80  HIS80      -0.2212
     90  N        -32.2150  -82.1890  -85.4910 N.am   81  GLN81      -0.1963
     91  CA       -31.8800  -81.3060  -84.3860 C.3    81  GLN81       0.1733
     92  C        -32.4240  -79.9160  -84.6180 C.2    81  GLN81       0.2616
     93  O        -32.6860  -79.5260  -85.7660 O.2    81  GLN81      -0.2715
     94  CB       -30.3550  -81.2610  -84.2220 C.3    81  GLN81       0.0408
     95  CG       -29.8560  -80.6320  -82.9050 C.3    81  GLN81       0.0908
     96  CD       -28.4580  -81.1020  -82.5490 C.2    81  GLN81       0.2608
     97  OE1      -28.2540  -82.2590  -82.1650 O.2    81  GLN81      -0.2717
     98  NE2      -27.4840  -80.2190  -82.6930 N.am   81  GLN81      -0.0878
     99  N        -32.6170  -79.1800  -83.5240 N.am   82  ASP82      -0.1971
    100  CA       -33.0840  -77.8020  -83.6420 C.3    82  ASP82       0.1709
    101  C        -31.9350  -76.8790  -83.2610 C.2    82  ASP82       0.2293
    102  O        -30.9440  -77.3080  -82.6650 O.2    82  ASP82      -0.2864
    103  CB       -34.3370  -77.5350  -82.7720 C.3    82  ASP82       0.1436
    104  CG       -34.0820  -77.6730  -81.2620 C.2    82  ASP82       0.3671
    105  OD1      -33.2110  -76.9820  -80.6960 O.co2  82  ASP82      -0.2456
    106  OD2      -34.7870  -78.4790  -80.6340 O.co2  82  ASP82      -0.2456
    107  N        -35.6940  -72.8960  -81.1270 N.3   127  GLN127     -0.1231
    108  CA       -36.3790  -74.1910  -81.0350 C.3   127  GLN127      0.1698
    109  C        -37.1920  -74.5490  -82.2730 C.2   127  GLN127      0.2592
    110  O        -37.4290  -75.7400  -82.5280 O.2   127  GLN127     -0.2718
    111  CB       -37.2990  -74.2000  -79.8100 C.3   127  GLN127      0.0381
    112  CG       -36.5660  -74.1420  -78.5000 C.3   127  GLN127      0.0905
    113  CD       -37.4560  -73.6950  -77.3660 C.2   127  GLN127      0.2608
    114  OE1      -38.0060  -72.5970  -77.3960 O.2   127  GLN127     -0.2717
    115  NE2      -37.6070  -74.5460  -76.3580 N.am  127  GLN127     -0.0878
    116  N        -37.6040  -73.5270  -83.0300 N.am  128  ASN128     -0.1974
    117  CA       -38.3930  -73.6890  -84.2640 C.3   128  ASN128      0.1688
    118  C        -37.5610  -73.6740  -85.5480 C.2   128  ASN128      0.2292
    119  O        -38.1260  -73.6400  -86.6430 O.2   128  ASN128     -0.2864
    120  CB       -39.4330  -72.5690  -84.3940 C.3   128  ASN128      0.1181
    121  CG       -40.5080  -72.6740  -83.3630 C.2   128  ASN128      0.2629
    122  OD1      -40.6970  -73.7430  -82.7550 O.2   128  ASN128     -0.2716
    123  ND2      -41.2340  -71.5830  -83.1510 N.am  128  ASN128     -0.0877
    124  N        -34.8490  -75.8080  -87.5490 N.3   130  LEU130     -0.1245
    125  CA       -34.3160  -77.1650  -87.6100 C.3   130  LEU130      0.1561
    126  C        -33.1460  -77.3160  -88.5580 C.2   130  LEU130      0.2260
    127  O        -33.1210  -76.7160  -89.6230 O.2   130  LEU130     -0.2867
    128  CB       -35.4300  -78.1170  -88.0280 C.3   130  LEU130      0.0270
    129  CG       -36.7340  -77.7900  -87.2900 C.3   130  LEU130      0.0019
    130  CD1      -37.8350  -78.7390  -87.7590 C.3   130  LEU130      0.0001
    131  CD2      -36.5120  -77.8800  -85.7630 C.3   130  LEU130      0.0001
    132  N        -39.6490  -73.9000  -89.0730 N.3   140  ALA140     -0.1231
    133  CA       -40.6600  -74.8560  -88.6390 C.3   140  ALA140      0.1694
    134  C        -41.6630  -74.1730  -87.7200 C.2   140  ALA140      0.2592
    135  O        -41.4590  -73.0400  -87.2870 O.2   140  ALA140     -0.2718
    136  CB       -40.0150  -76.0170  -87.8750 C.3   140  ALA140      0.0304
    137  N        -42.7380  -74.8940  -87.4290 N.am  141  ASP141     -0.1974
    138  CA       -43.7700  -74.4460  -86.5160 C.3   141  ASP141      0.1709
    139  C        -44.2780  -73.0450  -86.7580 C.2   141  ASP141      0.2293
    140  O        -44.2650  -72.2080  -85.8530 O.2   141  ASP141     -0.2864
    141  CB       -43.2470  -74.5420  -85.0880 C.3   141  ASP141      0.1436
    142  CG       -44.3400  -74.3880  -84.0530 C.2   141  ASP141      0.3671
    143  OD1      -45.4030  -75.0150  -84.1960 O.co2 141  ASP141     -0.2456
    144  OD2      -44.1190  -73.6520  -83.0890 O.co2 141  ASP141     -0.2456
@<TRIPOS>BOND
     1    60    58   ar
     2    59    58   ar
     3    58    57    1
     4    36    37    2
     5    36    35    1
     6    56    57    1
     7    56    53    1
     8    34    35    1
     9    35    38    1
    10    53    52    1
    11    53    54    1
    12    52    43   am
    13    38    39    1
    14    38    40    1
    15    43    42    1
    16    43    44    2
    17    54    61   am
    18    54    55    2
    19    42    41    1
    20    42    45    1
    21    78    77    1
    22    79    77    1
    23    61    62    1
    24    47    49   ar
    25    47    46   ar
    26    64    63    2
    27    77    76    1
    28    49    51   ar
    29    45    46    1
    30    46    48   ar
    31    63    62    1
    32    63    72   am
    33    62    65    1
    34   127   126    2
    35    51    50   ar
    36    65    66    1
    37    76    73    1
    38   132   133    1
    39    73    72    1
    40    73    74    1
    41    48    50   ar
    42    88    86   ar
    43    88    89   ar
    44   133   136    1
    45   133   134    1
    46   126   125    1
    47    86    85   ar
    48    20    21    1
    49    23    22    2
    50   128   125    1
    51   128   129    1
    52    66    67   ar
    53    66    68   ar
    54    67    69   ar
    55   130   129    1
    56   134   137   am
    57   134   135    2
    58    74    80   am
    59    74    75    2
    60    89    87   ar
    61    80    81    1
    62   125   124    1
    63   137   138    1
    64   129   131    1
    65    85    87   ar
    66    85    84    1
    67    22    21    1
    68    24    21    1
    69    68    70   ar
    70   139   138    1
    71   139   140    2
    72    69    71   ar
    73    84    81    1
    74   119   118    2
    75   138   141    1
    76    81    82    1
    77    93    92    2
    78    70    71   ar
    79   118   117    1
    80    90    82   am
    81    90    91    1
    82    25    26    1
    83    82    83    2
    84    28    27    2
    85   141   142    1
    86    29    26    1
    87    29    30    1
    88    92    91    1
    89    92    99   am
    90   120   117    1
    91   120   121    1
    92    91    94    1
    93    26    27    1
    94   117   116    1
    95    94    95    1
    96   143   142   ar
    97   142   144   ar
    98    31    30    1
    99    31    32    1
   100   100    99    1
   101   100   101    1
   102   100   103    1
   103     8     6    1
   104   121   123   am
   105   121   122    2
   106    18    17    1
   107   101   102    2
   108   116   109   am
   109    33    32    1
   110    95    96    1
   111   103   104    1
   112    98    96   am
   113    96    97    2
   114   110   109    2
   115   109   108    1
   116     6     5    1
   117    19    17    1
   118    17    14    1
   119     7     5    1
   120    14    15    1
   121    14    13    1
   122   104   105   ar
   123   104   106   ar
   124     5     2    1
   125   107   108    1
   126    15    16    2
   127   108   111    1
   128   111   112    1
   129     2     1    1
   130     2     3    1
   131    10    11    1
   132    10     9    1
   133     3     4    2
   134    11    12    2
   135   112   113    1
   136   114   113    2
   137   113   115   am
