@<TRIPOS>MOLECULE
tmp/3rkbA00.pdb
 158 150 0 0 0
SMALL
GASTEIGER

@<TRIPOS>ATOM
      1  N        -94.7820  -55.5460  -43.7630 N.3     8  GLU8       -0.1245
      2  CA       -94.5310  -54.7540  -42.5610 C.3     8  GLU8        0.1567
      3  C        -95.0880  -53.3430  -42.6920 C.2     8  GLU8        0.2260
      4  O        -95.3830  -52.8860  -43.7920 O.2     8  GLU8       -0.2867
      5  CB       -93.0310  -54.6680  -42.3030 C.3     8  GLU8        0.0388
      6  CG       -92.2400  -54.1440  -43.4960 C.3     8  GLU8        0.1160
      7  CD       -90.7440  -54.2140  -43.2730 C.2     8  GLU8        0.3649
      8  OE1      -90.2740  -55.2500  -42.7510 O.co2   8  GLU8       -0.2457
      9  OE2      -90.0340  -53.2480  -43.6260 O.co2   8  GLU8       -0.2457
     10  N        -94.8690  -49.5670  -43.0160 N.3    10  ILE10      -0.1245
     11  CA       -93.9320  -48.5940  -43.5850 C.3    10  ILE10       0.1561
     12  C        -94.0550  -47.2230  -42.9220 C.2    10  ILE10       0.2260
     13  O        -93.1240  -46.4100  -42.9580 O.2    10  ILE10      -0.2867
     14  CB       -94.2240  -48.3980  -45.0960 C.3    10  ILE10       0.0252
     15  CG1      -93.5290  -49.4660  -45.9250 C.3    10  ILE10       0.0019
     16  CG2      -93.8150  -47.0030  -45.5380 C.3    10  ILE10       0.0019
     17  CD1      -93.8280  -49.3190  -47.4100 C.3    10  ILE10       0.0001
     18  N        -99.3480  -46.8910  -43.9250 N.3    18  VAL18      -0.1245
     19  CA       -98.6270  -47.3990  -45.0860 C.3    18  VAL18       0.1561
     20  C        -97.9250  -48.7120  -44.7990 C.2    18  VAL18       0.2260
     21  O        -97.2070  -48.8300  -43.8130 O.2    18  VAL18      -0.2867
     22  CB       -97.5810  -46.3820  -45.5570 C.3    18  VAL18       0.0252
     23  CG1      -96.9370  -46.8570  -46.8520 C.3    18  VAL18       0.0019
     24  CG2      -98.2330  -45.0280  -45.7460 C.3    18  VAL18       0.0019
     25  N        -95.8960  -50.2040  -52.0290 N.3    31  ALA31      -0.1245
     26  CA       -96.2020  -49.5100  -50.7820 C.3    31  ALA31       0.1562
     27  C        -97.7250  -49.3790  -50.8550 C.2    31  ALA31       0.2260
     28  O        -98.2610  -48.7580  -51.7650 O.2    31  ALA31      -0.2867
     29  CB       -95.5550  -48.1230  -50.7370 C.3    31  ALA31       0.0290
     30  N       -101.1530  -47.9960  -49.1720 N.3    33  LYS33      -0.1245
     31  CA      -101.6630  -47.0540  -48.1950 C.3    33  LYS33       0.1561
     32  C       -103.1850  -47.1620  -48.0960 C.2    33  LYS33       0.2260
     33  O       -103.8880  -46.9820  -49.0780 O.2    33  LYS33      -0.2867
     34  CB      -101.2600  -45.6330  -48.5870 C.3    33  LYS33       0.0271
     35  CG      -101.6830  -44.5570  -47.6060 C.3    33  LYS33       0.0035
     36  CD      -101.1400  -43.2070  -48.0530 C.3    33  LYS33       0.0206
     37  CE      -101.5740  -42.0910  -47.1240 C.3    33  LYS33       0.1093
     38  NZ      -101.1540  -42.3540  -45.7270 N.3    33  LYS33      -0.1314
     39  N        -93.2050  -40.4160  -57.1110 N.3    60  VAL60      -0.1245
     40  CA       -93.4730  -41.8200  -56.8030 C.3    60  VAL60       0.1561
     41  C        -94.7380  -42.2340  -57.6000 C.2    60  VAL60       0.2260
     42  O        -95.7790  -41.5910  -57.5240 O.2    60  VAL60      -0.2867
     43  CB       -93.6890  -42.0400  -55.2740 C.3    60  VAL60       0.0252
     44  CG1      -94.0300  -43.5270  -54.9770 C.3    60  VAL60       0.0019
     45  CG2      -92.3980  -41.6710  -54.5310 C.3    60  VAL60       0.0019
     46  N        -98.6750  -47.6950  -54.3050 N.3    76  PHE76      -0.1227
     47  CA       -97.5370  -46.9520  -54.8550 C.3    76  PHE76       0.1736
     48  C        -96.3240  -47.8420  -55.1250 C.2    76  PHE76       0.2595
     49  O        -96.1490  -48.8750  -54.4890 O.2    76  PHE76      -0.2718
     50  CB       -97.0820  -45.8710  -53.8670 C.3    76  PHE76       0.0547
     51  CG       -98.0700  -44.7460  -53.6640 C.ar   76  PHE76      -0.0202
     52  CD1      -98.1320  -43.6800  -54.5610 C.ar   76  PHE76      -0.0042
     53  CD2      -98.9110  -44.7390  -52.5530 C.ar   76  PHE76      -0.0042
     54  CE1      -99.0140  -42.6190  -54.3530 C.ar   76  PHE76      -0.0003
     55  CE2      -99.8020  -43.6860  -52.3280 C.ar   76  PHE76      -0.0003
     56  CZ       -99.8510  -42.6130  -53.2400 C.ar   76  PHE76      -0.0000
     57  N        -95.4840  -47.4250  -56.0640 N.am   77  GLU77      -0.1965
     58  CA       -94.2440  -48.1550  -56.3260 C.3    77  GLU77       0.1733
     59  C        -93.4690  -48.0220  -55.0100 C.2    77  GLU77       0.2616
     60  O        -93.5220  -46.9840  -54.3370 O.2    77  GLU77      -0.2715
     61  CB       -93.4290  -47.5120  -57.4660 C.3    77  GLU77       0.0429
     62  CG       -92.9620  -46.1040  -57.1790 C.3    77  GLU77       0.1163
     63  CD       -91.9640  -45.5270  -58.2160 C.2    77  GLU77       0.3649
     64  OE1      -90.8800  -46.1140  -58.4460 O.co2  77  GLU77      -0.2457
     65  OE2      -92.2520  -44.4550  -58.7800 O.co2  77  GLU77      -0.2457
     66  N        -92.7410  -49.0610  -54.6500 N.am   78  PHE78      -0.1960
     67  CA       -91.9960  -49.0710  -53.3900 C.3    78  PHE78       0.1771
     68  C        -90.5450  -48.5920  -53.5350 C.2    78  PHE78       0.2619
     69  O        -89.8670  -48.9680  -54.4880 O.2    78  PHE78      -0.2715
     70  CB       -92.0230  -50.5010  -52.8250 C.3    78  PHE78       0.0574
     71  CG       -91.2570  -50.6720  -51.5450 C.ar   78  PHE78      -0.0200
     72  CD1      -89.9100  -51.0580  -51.5550 C.ar   78  PHE78      -0.0042
     73  CD2      -91.8720  -50.4150  -50.3240 C.ar   78  PHE78      -0.0042
     74  CE1      -89.2080  -51.1750  -50.3590 C.ar   78  PHE78      -0.0003
     75  CE2      -91.1740  -50.5300  -49.1300 C.ar   78  PHE78      -0.0003
     76  CZ       -89.8430  -50.9090  -49.1430 C.ar   78  PHE78      -0.0000
     77  N        -90.0830  -47.7460  -52.6150 N.am   79  LEU79      -0.1963
     78  CA       -88.6800  -47.3120  -52.6210 C.3    79  LEU79       0.1728
     79  C        -88.1770  -47.6940  -51.2450 C.2    79  LEU79       0.2616
     80  O        -88.9490  -47.6840  -50.2990 O.2    79  LEU79      -0.2715
     81  CB       -88.5110  -45.8180  -52.8850 C.3    79  LEU79       0.0311
     82  CG       -88.4450  -45.5020  -54.3810 C.3    79  LEU79       0.0022
     83  CD1      -89.8860  -45.2770  -54.9070 C.3    79  LEU79       0.0001
     84  CD2      -87.5910  -44.2590  -54.6190 C.3    79  LEU79       0.0001
     85  N        -86.8910  -48.0160  -51.1330 N.am   80  HIS80      -0.1959
     86  CA       -86.3520  -48.5110  -49.8640 C.3    80  HIS80       0.1787
     87  C        -85.9820  -47.5660  -48.7480 C.2    80  HIS80       0.2620
     88  O        -85.7350  -48.0280  -47.6200 O.2    80  HIS80      -0.2715
     89  CB       -85.1290  -49.4000  -50.1280 C.3    80  HIS80       0.0785
     90  CG       -85.4720  -50.7210  -50.7380 C.ar   80  HIS80       0.0821
     91  ND1      -85.7760  -50.8600  -52.0740 N.ar   80  HIS80      -0.2267
     92  CD2      -85.6330  -51.9480  -50.1810 C.ar   80  HIS80       0.1154
     93  CE1      -86.1140  -52.1160  -52.3170 C.ar   80  HIS80       0.1986
     94  NE2      -86.0370  -52.7970  -51.1880 N.ar   80  HIS80      -0.2212
     95  N        -85.9080  -46.2670  -49.0340 N.am   81  GLN81      -0.1963
     96  CA       -85.5090  -45.3390  -47.9700 C.3    81  GLN81       0.1733
     97  C        -86.0940  -43.9600  -48.1930 C.2    81  GLN81       0.2616
     98  O        -86.4580  -43.6190  -49.3160 O.2    81  GLN81      -0.2715
     99  CB       -83.9770  -45.2670  -47.8740 C.3    81  GLN81       0.0408
    100  CG       -83.4720  -44.5430  -46.6160 C.3    81  GLN81       0.0908
    101  CD       -82.0840  -44.9940  -46.1900 C.2    81  GLN81       0.2608
    102  OE1      -81.2670  -44.1890  -45.7470 O.2    81  GLN81      -0.2717
    103  NE2      -81.8190  -46.2880  -46.3070 N.am   81  GLN81      -0.0878
    104  N        -86.1960  -43.1680  -47.1290 N.am   82  ASP82      -0.1971
    105  CA       -86.6870  -41.8160  -47.2890 C.3    82  ASP82       0.1709
    106  C        -85.5430  -40.8890  -46.9030 C.2    82  ASP82       0.2293
    107  O        -84.5440  -41.3340  -46.3330 O.2    82  ASP82      -0.2864
    108  CB       -87.9780  -41.5500  -46.4880 C.3    82  ASP82       0.1436
    109  CG       -87.7930  -41.6560  -44.9700 C.2    82  ASP82       0.3671
    110  OD1      -86.8500  -41.0530  -44.4190 O.co2  82  ASP82      -0.2456
    111  OD2      -88.6220  -42.3320  -44.3410 O.co2  82  ASP82      -0.2456
    112  N        -84.5180  -40.5620  -42.9710 N.3    85  LYS85      -0.1245
    113  CA       -83.6390  -41.6200  -42.4790 C.3    85  LYS85       0.1561
    114  C        -82.2520  -41.4700  -43.0910 C.2    85  LYS85       0.2260
    115  O        -81.2390  -41.6740  -42.4200 O.2    85  LYS85      -0.2867
    116  CB       -84.2180  -43.0150  -42.8020 C.3    85  LYS85       0.0271
    117  CG       -85.5420  -43.2790  -42.1170 C.3    85  LYS85       0.0035
    118  CD       -86.1990  -44.5710  -42.5800 C.3    85  LYS85       0.0206
    119  CE       -87.5550  -44.7870  -41.8950 C.3    85  LYS85       0.1093
    120  NZ       -88.5280  -43.6720  -42.1370 N.3    85  LYS85      -0.1314
    121  N        -89.3580  -37.0340  -44.7710 N.3   127  GLN127     -0.1231
    122  CA       -90.0170  -38.3380  -44.7150 C.3   127  GLN127      0.1698
    123  C        -90.8030  -38.6700  -45.9680 C.2   127  GLN127      0.2592
    124  O        -91.0310  -39.8380  -46.2530 O.2   127  GLN127     -0.2718
    125  CB       -91.0040  -38.3870  -43.5590 C.3   127  GLN127      0.0381
    126  CG       -90.4190  -38.1730  -42.2170 C.3   127  GLN127      0.0905
    127  CD       -91.4980  -37.8410  -41.2080 C.2   127  GLN127      0.2608
    128  OE1      -91.7490  -36.6650  -40.9080 O.2   127  GLN127     -0.2717
    129  NE2      -92.1740  -38.8830  -40.7010 N.am  127  GLN127     -0.0878
    130  N        -91.2660  -37.6420  -46.6730 N.am  128  ASN128     -0.1974
    131  CA       -92.0560  -37.8330  -47.9030 C.3   128  ASN128      0.1688
    132  C        -91.2240  -37.8230  -49.1880 C.2   128  ASN128      0.2292
    133  O        -91.7870  -37.8010  -50.2840 O.2   128  ASN128     -0.2864
    134  CB       -93.1290  -36.7440  -48.0280 C.3   128  ASN128      0.1181
    135  CG       -94.2040  -36.8760  -46.9800 C.2   128  ASN128      0.2629
    136  OD1      -94.3740  -37.9460  -46.3700 O.2   128  ASN128     -0.2716
    137  ND2      -94.9550  -35.8020  -46.7710 N.am  128  ASN128     -0.0877
    138  N        -88.5180  -39.9690  -51.1290 N.3   130  LEU130     -0.1245
    139  CA       -87.9630  -41.3150  -51.2040 C.3   130  LEU130      0.1561
    140  C        -86.7770  -41.4640  -52.1370 C.2   130  LEU130      0.2260
    141  O        -86.7580  -40.8900  -53.2220 O.2   130  LEU130     -0.2867
    142  CB       -89.0670  -42.2570  -51.6320 C.3   130  LEU130      0.0270
    143  CG       -90.3330  -42.0010  -50.8220 C.3   130  LEU130      0.0019
    144  CD1      -91.3690  -42.9650  -51.3150 C.3   130  LEU130      0.0001
    145  CD2      -90.0920  -42.1450  -49.2850 C.3   130  LEU130      0.0001
    146  N        -93.3570  -38.0780  -52.7240 N.3   140  ALA140     -0.1231
    147  CA       -94.3710  -39.0410  -52.3400 C.3   140  ALA140      0.1694
    148  C        -95.3490  -38.3890  -51.3730 C.2   140  ALA140      0.2592
    149  O        -95.1110  -37.2800  -50.8870 O.2   140  ALA140     -0.2718
    150  CB       -93.7280  -40.2390  -51.6600 C.3   140  ALA140      0.0304
    151  N        -96.4420  -39.0940  -51.1120 N.am  141  ASP141     -0.1974
    152  CA       -97.4650  -38.6500  -50.1730 C.3   141  ASP141      0.1709
    153  C        -97.9820  -37.2460  -50.4460 C.2   141  ASP141      0.2293
    154  O        -97.9170  -36.3950  -49.5720 O.2   141  ASP141     -0.2864
    155  CB       -96.9010  -38.6900  -48.7550 C.3   141  ASP141      0.1436
    156  CG       -97.9830  -38.6250  -47.6950 C.2   141  ASP141      0.3671
    157  OD1      -97.6610  -38.3160  -46.5400 O.co2 141  ASP141     -0.2456
    158  OD2      -99.1530  -38.9060  -48.0120 O.co2 141  ASP141     -0.2456
@<TRIPOS>BOND
     1    65    63   ar
     2    64    63   ar
     3    63    62    1
     4    41    42    2
     5    41    40    1
     6    61    62    1
     7    61    58    1
     8    39    40    1
     9    40    43    1
    10    58    57    1
    11    58    59    1
    12    57    48   am
    13    43    44    1
    14    43    45    1
    15    48    47    1
    16    48    49    2
    17    59    66   am
    18    59    60    2
    19    83    82    1
    20    47    46    1
    21    47    50    1
    22    66    67    1
    23    84    82    1
    24    52    54   ar
    25    52    51   ar
    26    69    68    2
    27    82    81    1
    28    54    56   ar
    29    50    51    1
    30    51    53   ar
    31    68    67    1
    32    68    77   am
    33    67    70    1
    34    56    55   ar
    35   141   140    2
    36    81    78    1
    37    70    71    1
    38   146   147    1
    39    78    77    1
    40    78    79    1
    41    53    55   ar
    42   147   150    1
    43   147   148    1
    44    93    91   ar
    45    93    94   ar
    46   140   139    1
    47    91    90   ar
    48    25    26    1
    49    28    27    2
    50   142   139    1
    51   142   143    1
    52    72    71   ar
    53    72    74   ar
    54    71    73   ar
    55   148   151   am
    56   148   149    2
    57   144   143    1
    58    79    85   am
    59    79    80    2
    60   139   138    1
    61    94    92   ar
    62    85    86    1
    63   151   152    1
    64    27    26    1
    65   143   145    1
    66    26    29    1
    67    90    92   ar
    68    90    89    1
    69   153   152    1
    70   153   154    2
    71    74    76   ar
    72    73    75   ar
    73   133   132    2
    74   152   155    1
    75    89    86    1
    76    86    87    1
    77    98    97    2
    78   132   131    1
    79    30    31    1
    80    76    75   ar
    81    33    32    2
    82    95    87   am
    83    95    96    1
    84   155   156    1
    85    87    88    2
    86    34    31    1
    87    34    35    1
    88    31    32    1
    89    97    96    1
    90    97   104   am
    91    36    35    1
    92    36    37    1
    93   134   131    1
    94   134   135    1
    95   158   156   ar
    96    96    99    1
    97   131   130    1
    98    99   100    1
    99   156   157   ar
   100    17    15    1
   101   105   104    1
   102   105   106    1
   103   105   108    1
   104    37    38    1
   105   135   137   am
   106   135   136    2
   107   106   107    2
   108    23    22    1
   109   130   123   am
   110   100   101    1
   111   108   109    1
   112   103   101   am
   113   124   123    2
   114   101   102    2
   115   123   122    1
   116    15    14    1
   117    24    22    1
   118    22    19    1
   119    16    14    1
   120    14    11    1
   121    19    20    1
   122    19    18    1
   123   109   110   ar
   124   109   111   ar
   125    20    21    2
   126   121   122    1
   127   122   125    1
   128     4     3    2
   129     1     2    1
   130     9     7   ar
   131    11    10    1
   132    11    12    1
   133   125   126    1
   134     6     7    1
   135     6     5    1
   136     7     8   ar
   137   114   113    1
   138   114   115    2
   139   112   113    1
   140    13    12    2
   141   116   113    1
   142   116   117    1
   143     3     2    1
   144   118   117    1
   145   118   119    1
   146     2     5    1
   147   126   127    1
   148   120   119    1
   149   127   128    2
   150   127   129   am
