@<TRIPOS>MOLECULE
tmp/3rkeA04.pdb
 127 124 0 0 0
SMALL
GASTEIGER

@<TRIPOS>ATOM
      1  N          9.2580    1.7900   18.9370 N.3   105  GLN105     -0.1245
      2  CA         8.2720    1.9380   20.0170 C.3   105  GLN105      0.1566
      3  C          6.8810    1.5060   19.5650 C.2   105  GLN105      0.2260
      4  O          6.1590    0.8460   20.2910 O.2   105  GLN105     -0.2867
      5  CB         8.2400    3.3780   20.5240 C.3   105  GLN105      0.0367
      6  CG         7.5380    3.5390   21.8810 C.3   105  GLN105      0.0905
      7  CD         7.4410    4.9790   22.3370 C.2   105  GLN105      0.2608
      8  OE1        7.4720    5.9130   21.5210 O.2   105  GLN105     -0.2717
      9  NE2        7.3180    5.1750   23.6370 N.am  105  GLN105     -0.0878
     10  N          6.9380   -2.3070   19.0390 N.3   108  ASP108     -0.1225
     11  CA         6.9590   -2.8760   20.3570 C.3   108  ASP108      0.1805
     12  C          5.5640   -2.8410   20.9510 C.2   108  ASP108      0.2597
     13  O          5.1080   -3.8380   21.5110 O.2   108  ASP108     -0.2718
     14  CB         7.9360   -2.1000   21.2320 C.3   108  ASP108      0.1424
     15  CG         7.8480   -2.4810   22.6780 C.2   108  ASP108      0.3668
     16  OD1        8.8840   -2.8210   23.2630 O.co2 108  ASP108     -0.2456
     17  OD2        6.7530   -2.4340   23.2480 O.co2 108  ASP108     -0.2456
     18  N          4.8870   -1.7010   20.8250 N.am  109  HIS109     -0.1975
     19  CA         3.6000   -1.5390   21.4870 C.3   109  HIS109      0.1656
     20  C          2.5200   -2.4260   20.8840 C.2   109  HIS109      0.2291
     21  O          1.6030   -2.8580   21.5950 O.2   109  HIS109     -0.2864
     22  CB         3.1670   -0.0590   21.5900 C.3   109  HIS109      0.0771
     23  CG         3.8870    0.6980   22.6670 C.ar  109  HIS109      0.0820
     24  ND1        3.6530    2.0310   22.9320 N.ar  109  HIS109     -0.2267
     25  CD2        4.8570    0.3080   23.5310 C.ar  109  HIS109      0.1154
     26  CE1        4.4300    2.4250   23.9260 C.ar  109  HIS109      0.1986
     27  NE2        5.1760    1.3990   24.3010 N.ar  109  HIS109     -0.2212
     28  N          2.6700   -5.7450   26.1850 N.3   113  PHE113     -0.1241
     29  CA         2.3670   -4.8310   27.2530 C.3   113  PHE113      0.1605
     30  C          2.1110   -5.6660   28.4770 C.2   113  PHE113      0.2264
     31  O          1.2030   -6.4880   28.4820 O.2   113  PHE113     -0.2867
     32  CB         1.1210   -4.0330   26.9150 C.3   113  PHE113      0.0534
     33  CG         0.7850   -2.9560   27.9210 C.ar  113  PHE113     -0.0203
     34  CD1        1.7470   -2.4560   28.7970 C.ar  113  PHE113     -0.0042
     35  CD2       -0.4980   -2.4130   27.9540 C.ar  113  PHE113     -0.0042
     36  CE1        1.4210   -1.4550   29.7100 C.ar  113  PHE113     -0.0003
     37  CE2       -0.8350   -1.4060   28.8530 C.ar  113  PHE113     -0.0003
     38  CZ         0.1160   -0.9200   29.7320 C.ar  113  PHE113     -0.0000
     39  N         -3.5730   12.2720   32.5830 N.3   235  PRO235     -0.2116
     40  CA        -2.2350   12.8200   32.8350 C.3   235  PRO235      0.1372
     41  C         -1.8810   13.9100   31.8380 C.2   235  PRO235      0.2244
     42  O         -1.0800   14.7860   32.1220 O.2   235  PRO235     -0.2868
     43  CB        -1.3150   11.6060   32.6830 C.3   235  PRO235      0.0268
     44  CG        -2.0580   10.6420   31.8660 C.3   235  PRO235      0.0207
     45  CD        -3.5260   10.9300   31.9760 C.3   235  PRO235      0.0892
     46  N         -3.1030    1.6230   24.9520 N.3   253  SER253     -0.1202
     47  CA        -3.3020    2.6280   25.9860 C.3   253  SER253      0.2020
     48  C         -2.1230    3.6050   26.1980 C.2   253  SER253      0.2618
     49  O         -2.2420    4.5770   26.9430 O.2   253  SER253     -0.2717
     50  CB        -3.6330    1.9150   27.3030 C.3   253  SER253      0.2103
     51  OG        -2.5540    1.0660   27.6550 O.3   253  SER253     -0.2182
     52  N         -0.9820    3.3440   25.5730 N.am  254  ARG254     -0.1979
     53  CA         0.2380    4.1010   25.8990 C.3   254  ARG254      0.1597
     54  C          0.5200    5.2070   24.9010 C.2   254  ARG254      0.2287
     55  O          1.5080    5.9040   25.0280 O.2   254  ARG254     -0.2864
     56  CB         1.4420    3.1670   25.9990 C.3   254  ARG254      0.0334
     57  CG         1.3100    2.0670   27.0550 C.3   254  ARG254      0.0492
     58  CD         2.2350    0.8700   26.7830 C.3   254  ARG254      0.2205
     59  NE         1.7820    0.0420   25.6560 N.pl3 254  ARG254     -0.0865
     60  CZ         2.3470   -1.1080   25.2800 C.cat 254  ARG254      0.5346
     61  NH1        3.4040   -1.5840   25.9270 N.pl3 254  ARG254      0.1354
     62  NH2        1.8610   -1.7870   24.2510 N.pl3 254  ARG254      0.1354
     63  N          2.0500    8.7050   25.8820 N.3   257  GLU257     -0.1245
     64  CA         3.2250    8.7590   26.7450 C.3   257  GLU257      0.1567
     65  C          4.2540    9.7940   26.2930 C.2   257  GLU257      0.2260
     66  O          4.9340   10.3910   27.1300 O.2   257  GLU257     -0.2867
     67  CB         3.8770    7.3860   26.8470 C.3   257  GLU257      0.0388
     68  CG         5.2290    7.4030   27.5330 C.3   257  GLU257      0.1160
     69  CD         6.3910    7.4100   26.5550 C.2   257  GLU257      0.3649
     70  OE1        6.2220    7.2760   25.3270 O.co2 257  GLU257     -0.2457
     71  OE2        7.5140    7.5780   27.0360 O.co2 257  GLU257     -0.2457
     72  N         15.3530    2.2220   24.3190 N.3   350  HIS350     -0.1241
     73  CA        15.5110    3.2410   25.3350 C.3   350  HIS350      0.1621
     74  C         16.8110    4.0380   25.1600 C.2   350  HIS350      0.2264
     75  O         16.8320    5.2310   25.4160 O.2   350  HIS350     -0.2867
     76  CB        15.2960    2.6560   26.7390 C.3   350  HIS350      0.0745
     77  CG        13.8630    2.2740   27.0020 C.ar  350  HIS350      0.0817
     78  ND1       13.4620    1.5550   28.1100 N.ar  350  HIS350     -0.2268
     79  CD2       12.7350    2.5140   26.2790 C.ar  350  HIS350      0.1154
     80  CE1       12.1500    1.3930   28.0660 C.ar  350  HIS350      0.1986
     81  NE2       11.6840    1.9690   26.9700 N.ar  350  HIS350     -0.2212
     82  N          3.1780   12.8320   27.9140 N.3   380  PHE380     -0.1241
     83  CA         1.7130   12.9810   28.0840 C.3   380  PHE380      0.1605
     84  C          1.2170   14.3910   27.7480 C.2   380  PHE380      0.2264
     85  O          0.3950   14.9850   28.4630 O.2   380  PHE380     -0.2867
     86  CB         1.2760   12.5470   29.4900 C.3   380  PHE380      0.0534
     87  CG         1.6030   11.1350   29.7800 C.ar  380  PHE380     -0.0203
     88  CD1        2.7560   10.8100   30.4760 C.ar  380  PHE380     -0.0042
     89  CD2        0.7960   10.1220   29.2830 C.ar  380  PHE380     -0.0042
     90  CE1        3.0800    9.4850   30.7120 C.ar  380  PHE380     -0.0003
     91  CE2        1.0980    8.7990   29.5120 C.ar  380  PHE380     -0.0003
     92  CZ         2.2460    8.4750   30.2290 C.ar  380  PHE380     -0.0000
     93  N          8.1760   11.3930   33.4750 N.3   421  PHE421     -0.1227
     94  CA         6.8840   11.5300   34.1380 C.3   421  PHE421      0.1736
     95  C          6.0940   10.2100   34.0750 C.2   421  PHE421      0.2595
     96  O          5.9610    9.6050   33.0130 O.2   421  PHE421     -0.2718
     97  CB         6.0480   12.6890   33.5650 C.3   421  PHE421      0.0547
     98  CG         4.7040   12.8410   34.2340 C.ar  421  PHE421     -0.0202
     99  CD1        4.5510   13.6710   35.3450 C.ar  421  PHE421     -0.0042
    100  CD2        3.6080   12.1210   33.7950 C.ar  421  PHE421     -0.0042
    101  CE1        3.3320   13.7900   35.9870 C.ar  421  PHE421     -0.0003
    102  CE2        2.3750   12.2380   34.4350 C.ar  421  PHE421     -0.0003
    103  CZ         2.2390   13.0680   35.5260 C.ar  421  PHE421     -0.0000
    104  N          5.5690    9.7780   35.2140 N.am  422  GLN422     -0.1966
    105  CA         4.6000    8.6840   35.2290 C.3   422  GLN422      0.1718
    106  C          3.2380    9.1340   35.7010 C.2   422  GLN422      0.2458
    107  O          3.1550    9.8940   36.6850 O.2   422  GLN422     -0.2730
    108  CB         5.0620    7.5520   36.1160 C.3   422  GLN422      0.0407
    109  CG         6.3840    6.9700   35.6830 C.3   422  GLN422      0.0908
    110  CD         6.3470    5.4630   35.6180 C.2   422  GLN422      0.2608
    111  OE1        6.7270    4.7740   36.5730 O.2   422  GLN422     -0.2717
    112  NE2        5.8670    4.9420   34.4950 N.am  422  GLN422     -0.0878
    113  N          2.1490    8.6110   35.1490 N.am  423  PRO423     -0.2727
    114  CA         0.7440    9.0060   35.3420 C.3   423  PRO423      0.1402
    115  C          0.1710    9.2560   36.7550 C.2   423  PRO423      0.2269
    116  O         -0.5100   10.2710   36.9360 O.2   423  PRO423     -0.2865
    117  CB        -0.0190    7.8740   34.6500 C.3   423  PRO423      0.0296
    118  CG         0.8500    7.5210   33.5140 C.3   423  PRO423      0.0237
    119  CD         2.2780    7.7000   33.9890 C.3   423  PRO423      0.0939
    120  N         13.7070    5.7760   33.9740 N.3   432  LEU432     -0.1245
    121  CA        13.3430    4.6590   33.1150 C.3   432  LEU432      0.1561
    122  C         14.3460    3.4680   33.1620 C.2   432  LEU432      0.2260
    123  O         13.9470    2.3060   32.9780 O.2   432  LEU432     -0.2867
    124  CB        13.1150    5.1430   31.6770 C.3   432  LEU432      0.0270
    125  CG        12.6670    4.0490   30.7070 C.3   432  LEU432      0.0019
    126  CD1       11.3150    3.4400   31.1570 C.3   432  LEU432      0.0001
    127  CD2       12.5900    4.5750   29.2700 C.3   432  LEU432      0.0001
@<TRIPOS>BOND
     1     1     2    1
     2    10    11    1
     3     3     2    1
     4     3     4    2
     5     2     5    1
     6    11    12    1
     7    11    14    1
     8     5     6    1
     9    18    12   am
    10    18    19    1
    11    20    19    1
    12    20    21    2
    13    12    13    2
    14    14    15    1
    15    19    22    1
    16     8     7    2
    17    22    23    1
    18     6     7    1
    19     7     9   am
    20    23    24   ar
    21    23    25   ar
    22    15    17   ar
    23    15    16   ar
    24    24    26   ar
    25    25    27   ar
    26    26    27   ar
    27    62    60    1
    28    72    73    1
    29    54    55    2
    30    54    53    1
    31    46    47    1
    32    74    73    1
    33    74    75    2
    34    60    59    2
    35    60    61    1
    36    70    69   ar
    37    73    76    1
    38    52    53    1
    39    52    48   am
    40    59    58    1
    41    63    64    1
    42    53    56    1
    43    47    48    1
    44    47    50    1
    45    56    57    1
    46    28    29    1
    47    48    49    2
    48    79    81   ar
    49    79    77   ar
    50    65    64    1
    51    65    66    2
    52    69    71   ar
    53    69    68    1
    54    76    77    1
    55    64    67    1
    56    58    57    1
    57    67    68    1
    58    32    29    1
    59    32    33    1
    60    81    80   ar
    61    77    78   ar
    62    29    30    1
    63    50    51    1
    64    84    83    1
    65    84    85    2
    66    82    83    1
    67    33    35   ar
    68    33    34   ar
    69    35    37   ar
    70    80    78   ar
    71    83    86    1
    72    30    31    2
    73    34    36   ar
    74    37    38   ar
    75   127   125    1
    76    89    91   ar
    77    89    87   ar
    78    86    87    1
    79    91    92   ar
    80    36    38   ar
    81    87    88   ar
    82    92    90   ar
    83    88    90   ar
    84   125   126    1
    85   125   124    1
    86   124   121    1
    87    41    42    2
    88    41    40    1
    89    44    45    1
    90    44    43    1
    91    45    39    1
    92    39    40    1
    93    43    40    1
    94   123   122    2
    95    96    95    2
    96   121   122    1
    97   121   120    1
    98    93    94    1
    99   118   119    1
   100   118   117    1
   101    97    94    1
   102    97    98    1
   103   100    98   ar
   104   100   102   ar
   105   119   113    1
   106    95    94    1
   107    95   104   am
   108    98    99   ar
   109   102   103   ar
   110   112   110   am
   111   117   114    1
   112   113   114    1
   113   113   106   am
   114   104   105    1
   115   105   106    1
   116   105   108    1
   117   114   115    1
   118    99   101   ar
   119   103   101   ar
   120   110   109    1
   121   110   111    2
   122   109   108    1
   123   106   107    2
   124   115   116    2
