@<TRIPOS>MOLECULE
tmp/3rkhA04.pdb
 147 141 0 0 0
SMALL
GASTEIGER

@<TRIPOS>ATOM
      1  N         26.6140   45.0120  164.2070 N.3   367  VAL367     -0.1231
      2  CA        25.6610   46.1050  164.2280 C.3   367  VAL367      0.1692
      3  C         24.6500   45.9940  163.0830 C.2   367  VAL367      0.2592
      4  O         23.4590   46.2330  163.2790 O.2   367  VAL367     -0.2718
      5  CB        26.4020   47.4450  164.1760 C.3   367  VAL367      0.0266
      6  CG1       25.4430   48.5600  163.9020 C.3   367  VAL367      0.0020
      7  CG2       27.1250   47.7010  165.5550 C.3   367  VAL367      0.0020
      8  N         25.0900   45.6070  161.8820 N.am  368  HIS368     -0.1976
      9  CA        24.1040   45.5100  160.8010 C.3   368  HIS368      0.1656
     10  C         23.1390   44.3410  161.0300 C.2   368  HIS368      0.2291
     11  O         21.9680   44.4730  160.7800 O.2   368  HIS368     -0.2864
     12  CB        24.7960   45.3780  159.4330 C.3   368  HIS368      0.0771
     13  CG        25.4080   46.6780  158.9810 C.ar  368  HIS368      0.0820
     14  ND1       26.7680   46.9060  159.0130 N.ar  368  HIS368     -0.2267
     15  CD2       24.8370   47.8290  158.5420 C.ar  368  HIS368      0.1154
     16  CE1       27.0090   48.1370  158.5720 C.ar  368  HIS368      0.1986
     17  NE2       25.8560   48.7250  158.2840 N.ar  368  HIS368     -0.2212
     18  N         20.5110   45.1580  163.4120 N.3   371  ASN371     -0.1240
     19  CA        19.5540   46.0830  162.8320 C.3   371  ASN371      0.1653
     20  C         18.7380   45.5000  161.7080 C.2   371  ASN371      0.2266
     21  O         18.0620   46.2480  161.0100 O.2   371  ASN371     -0.2867
     22  CB        20.2720   47.3650  162.3800 C.3   371  ASN371      0.1155
     23  CG        20.5430   48.2670  163.5590 C.2   371  ASN371      0.2627
     24  OD1       19.6280   48.9370  164.0100 O.2   371  ASN371     -0.2716
     25  ND2       21.7470   48.2000  164.1350 N.am  371  ASN371     -0.0877
     26  N         19.6760   44.0690  158.9650 N.3   373  VAL373     -0.1245
     27  CA        20.2800   44.0910  157.6370 C.3   373  VAL373      0.1561
     28  C         20.7230   42.6530  157.3210 C.2   373  VAL373      0.2260
     29  O         21.0830   41.8900  158.2290 O.2   373  VAL373     -0.2867
     30  CB        21.4790   45.0680  157.5710 C.3   373  VAL373      0.0252
     31  CG1       22.0300   45.1830  156.1130 C.3   373  VAL373      0.0019
     32  CG2       21.0200   46.4380  158.0920 C.3   373  VAL373      0.0019
     33  N         21.1450   42.8050  151.2590 N.3   377  ASP377     -0.1225
     34  CA        21.0410   44.2600  151.2860 C.3   377  ASP377      0.1805
     35  C         22.3400   44.9130  150.8050 C.2   377  ASP377      0.2598
     36  O         22.2840   45.9580  150.1390 O.2   377  ASP377     -0.2718
     37  CB        20.7090   44.7480  152.6830 C.3   377  ASP377      0.1424
     38  CG        19.3670   44.2680  153.1310 C.2   377  ASP377      0.3668
     39  OD1       18.4310   44.2370  152.2910 O.co2 377  ASP377     -0.2456
     40  OD2       19.2530   43.9010  154.3160 O.co2 377  ASP377     -0.2456
     41  N         23.4800   44.2920  151.1060 N.am  378  CYS378     -0.1970
     42  CA        24.7780   44.8340  150.6900 C.3   378  CYS378      0.1712
     43  C         25.3600   44.1310  149.4900 C.2   378  CYS378      0.2296
     44  O         26.2200   44.6920  148.8250 O.2   378  CYS378     -0.2864
     45  CB        25.7950   44.7300  151.8390 C.3   378  CYS378      0.0983
     46  SG        25.2010   45.6730  153.2640 S.3   378  CYS378     -0.0798
     47  N         29.6580   45.4070  147.6710 N.3   399  PRO399     -0.2116
     48  CA        28.8530   46.6140  147.5410 C.3   399  PRO399      0.1372
     49  C         29.6260   47.7830  146.8770 C.2   399  PRO399      0.2244
     50  O         29.0210   48.7600  146.4780 O.2   399  PRO399     -0.2868
     51  CB        28.5560   46.9840  148.9920 C.3   399  PRO399      0.0268
     52  CG        29.7280   46.4210  149.7660 C.3   399  PRO399      0.0207
     53  CD        29.9440   45.0700  149.0730 C.3   399  PRO399      0.0892
     54  N         22.8150   51.6990  146.0860 N.3   405  GLN405     -0.1231
     55  CA        21.8330   50.7180  146.5570 C.3   405  GLN405      0.1698
     56  C         22.2610   49.9450  147.8070 C.2   405  GLN405      0.2592
     57  O         21.4560   49.7200  148.7450 O.2   405  GLN405     -0.2718
     58  CB        21.5510   49.7360  145.4210 C.3   405  GLN405      0.0381
     59  CG        20.7160   50.3710  144.3210 C.3   405  GLN405      0.0905
     60  CD        19.3780   50.8790  144.8810 C.2   405  GLN405      0.2608
     61  OE1       19.2250   52.0900  145.1110 O.2   405  GLN405     -0.2717
     62  NE2       18.4200   49.9370  145.1940 N.am  405  GLN405     -0.0878
     63  N         23.5300   49.5580  147.8520 N.am  406  ALA406     -0.1966
     64  CA        24.0180   48.7090  148.9450 C.3   406  ALA406      0.1728
     65  C         24.2640   49.4420  150.2470 C.2   406  ALA406      0.2616
     66  O         24.2090   48.8270  151.3340 O.2   406  ALA406     -0.2715
     67  CB        25.3000   47.9730  148.5130 C.3   406  ALA406      0.0334
     68  N         24.5210   50.7480  150.2080 N.am  407  CYS407     -0.1968
     69  CA        24.9240   51.4350  151.4450 C.3   407  CYS407      0.1712
     70  C         24.2550   52.7640  151.6110 C.2   407  CYS407      0.2296
     71  O         23.8830   53.1490  152.7220 O.2   407  CYS407     -0.2864
     72  CB        26.4620   51.7440  151.5150 C.3   407  CYS407      0.0983
     73  SG        27.4650   50.3690  151.2330 S.3   407  CYS407     -0.0798
     74  N         20.6600   53.6970  152.8320 N.3   410  CYS410     -0.1221
     75  CA        20.5430   53.6510  154.2680 C.3   410  CYS410      0.1808
     76  C         21.3500   54.7650  154.9400 C.2   410  CYS410      0.2601
     77  O         20.8510   55.4320  155.8690 O.2   410  CYS410     -0.2717
     78  CB        21.0520   52.3050  154.7790 C.3   410  CYS410      0.0970
     79  SG        19.9710   50.8700  154.6520 S.3   410  CYS410     -0.0800
     80  N         22.5900   54.9500  154.4860 N.am  411  HIS411     -0.1975
     81  CA        23.5150   55.9090  155.0600 C.3   411  HIS411      0.1656
     82  C         23.4420   57.2300  154.2860 C.2   411  HIS411      0.2291
     83  O         24.3760   57.6200  153.5730 O.2   411  HIS411     -0.2864
     84  CB        24.9360   55.3330  155.0660 C.3   411  HIS411      0.0771
     85  CG        25.1310   54.2440  156.0750 C.ar  411  HIS411      0.0820
     86  ND1       25.3740   54.5010  157.4120 N.ar  411  HIS411     -0.2267
     87  CD2       25.1170   52.8970  155.9490 C.ar  411  HIS411      0.1154
     88  CE1       25.5320   53.3490  158.0550 C.ar  411  HIS411      0.1986
     89  NE2       25.3740   52.3580  157.1920 N.ar  411  HIS411     -0.2212
     90  N         26.1650   59.9700  154.2070 N.3   414  TRP414     -0.1241
     91  CA        27.4560   59.7550  153.6140 C.3   414  TRP414      0.1605
     92  C         27.4400   59.9060  152.1210 C.2   414  TRP414      0.2264
     93  O         26.4570   59.5500  151.4670 O.2   414  TRP414     -0.2867
     94  CB        27.9350   58.3280  153.8980 C.3   414  TRP414      0.0550
     95  CG        28.6900   58.1420  155.1570 C.ar  414  TRP414      0.0003
     96  CD1       29.3400   59.1030  155.9140 C.ar  414  TRP414      0.0946
     97  CD2       28.9230   56.8930  155.7950 C.ar  414  TRP414      0.0152
     98  NE1       29.9710   58.4910  156.9980 N.ar  414  TRP414     -0.2442
     99  CE2       29.7440   57.1370  156.9300 C.ar  414  TRP414      0.0810
    100  CE3       28.5410   55.5750  155.5010 C.ar  414  TRP414      0.0012
    101  CZ2       30.1540   56.1090  157.7880 C.ar  414  TRP414      0.0191
    102  CZ3       28.9440   54.5620  156.3540 C.ar  414  TRP414      0.0001
    103  CH2       29.7520   54.8380  157.4880 C.ar  414  TRP414      0.0015
    104  N         31.5550   56.3910  152.5810 N.3   419  ALA419     -0.1245
    105  CA        31.2200   55.0350  152.9420 C.3   419  ALA419      0.1562
    106  C         32.3810   54.0900  152.6320 C.2   419  ALA419      0.2260
    107  O         32.6530   53.1890  153.3870 O.2   419  ALA419     -0.2867
    108  CB        29.9260   54.5790  152.2090 C.3   419  ALA419      0.0290
    109  N         34.9630   54.4210  155.3440 N.3   422  ALA422     -0.1231
    110  CA        34.5550   53.6750  156.5390 C.3   422  ALA422      0.1694
    111  C         34.8260   52.1800  156.3740 C.2   422  ALA422      0.2591
    112  O         35.2880   51.5180  157.3250 O.2   422  ALA422     -0.2718
    113  CB        33.0880   53.9180  156.8870 C.3   422  ALA422      0.0304
    114  N         34.5490   51.6550  155.1810 N.am  423  ILE423     -0.1980
    115  CA        34.8790   50.2500  154.9110 C.3   423  ILE423      0.1595
    116  C         36.3820   50.0560  155.0480 C.2   423  ILE423      0.2287
    117  O         36.8320   49.1310  155.7100 O.2   423  ILE423     -0.2864
    118  CB        34.5150   49.8360  153.5090 C.3   423  ILE423      0.0276
    119  CG1       33.0000   49.8910  153.3240 C.3   423  ILE423      0.0022
    120  CG2       35.0110   48.3940  153.2810 C.3   423  ILE423      0.0022
    121  CD1       32.5630   49.7080  151.8300 C.3   423  ILE423      0.0001
    122  N         37.9990   49.8880  158.5220 N.3   426  ILE426     -0.1245
    123  CA        37.8390   48.5830  159.1620 C.3   426  ILE426      0.1561
    124  C         38.7590   47.5470  158.5480 C.2   426  ILE426      0.2260
    125  O         39.4670   46.8270  159.2500 O.2   426  ILE426     -0.2867
    126  CB        36.3780   48.0670  159.0820 C.3   426  ILE426      0.0252
    127  CG1       35.4900   48.8990  160.0080 C.3   426  ILE426      0.0019
    128  CG2       36.3350   46.6030  159.5190 C.3   426  ILE426      0.0019
    129  CD1       33.9730   48.8690  159.5720 C.3   426  ILE426      0.0001
    130  N         35.0050   43.5870  158.0680 N.3   486  PHE486     -0.1241
    131  CA        33.8580   44.5060  157.9130 C.3   486  PHE486      0.1605
    132  C         32.5470   43.9840  158.5260 C.2   486  PHE486      0.2264
    133  O         31.7640   44.7530  159.1080 O.2   486  PHE486     -0.2867
    134  CB        33.5910   44.9300  156.4580 C.3   486  PHE486      0.0534
    135  CG        32.4520   45.8990  156.3640 C.ar  486  PHE486     -0.0203
    136  CD1       32.6940   47.2810  156.5050 C.ar  486  PHE486     -0.0042
    137  CD2       31.1340   45.4420  156.2100 C.ar  486  PHE486     -0.0042
    138  CE1       31.6230   48.1920  156.5120 C.ar  486  PHE486     -0.0003
    139  CE2       30.0620   46.3520  156.1830 C.ar  486  PHE486     -0.0003
    140  CZ        30.3160   47.7350  156.3230 C.ar  486  PHE486     -0.0000
    141  N         33.5630   44.1680  162.9720 N.3   489  PRO489     -0.2116
    142  CA        34.8910   44.6790  163.2180 C.3   489  PRO489      0.1372
    143  C         35.3380   44.4510  164.6730 C.2   489  PRO489      0.2244
    144  O         36.5050   44.1460  164.9010 O.2   489  PRO489     -0.2868
    145  CB        34.7870   46.2010  162.9060 C.3   489  PRO489      0.0268
    146  CG        33.3770   46.4850  162.6500 C.3   489  PRO489      0.0207
    147  CD        32.6300   45.1820  162.4540 C.3   489  PRO489      0.0892
@<TRIPOS>BOND
     1    59    60    1
     2    59    58    1
     3    60    61    2
     4    60    62   am
     5    58    55    1
     6    54    55    1
     7    50    49    2
     8    55    56    1
     9    49    48    1
    10    48    47    1
    11    48    51    1
    12    47    53    1
    13    56    63   am
    14    56    57    2
    15    63    64    1
    16    67    64    1
    17    44    43    2
    18    64    65    1
    19    51    52    1
    20    53    52    1
    21    43    42    1
    22    36    35    2
    23    68    65   am
    24    68    69    1
    25    65    66    2
    26    42    41    1
    27    42    45    1
    28    35    41   am
    29    35    34    1
    30    73    72    1
    31    33    34    1
    32    34    37    1
    33    69    72    1
    34    69    70    1
    35    93    92    2
    36    70    71    2
    37   121   119    1
    38    45    46    1
    39    92    91    1
    40   108   105    1
    41    39    38   ar
    42   104   105    1
    43   106   105    1
    44   106   107    2
    45    37    38    1
    46    74    75    1
    47    38    40   ar
    48   120   118    1
    49   119   118    1
    50   118   115    1
    51    83    82    2
    52    91    94    1
    53    91    90    1
    54    94    95    1
    55    75    78    1
    56    75    76    1
    57    82    81    1
    58    80    76   am
    59    80    81    1
    60    79    78    1
    61   115   116    1
    62   115   114    1
    63    76    77    2
    64   116   117    2
    65    81    84    1
    66    84    85    1
    67    95    97   ar
    68    95    96   ar
    69   114   111   am
    70   109   110    1
    71   100    97   ar
    72   100   102   ar
    73    97    99   ar
    74    96    98   ar
    75    87    85   ar
    76    87    89   ar
    77    85    86   ar
    78    31    30    1
    79   139   137   ar
    80   139   140   ar
    81   137   135   ar
    82   140   138   ar
    83   102   103   ar
    84   135   134    1
    85   135   136   ar
    86   111   110    1
    87   111   112    2
    88   134   131    1
    89   136   138   ar
    90   110   113    1
    91    99    98   ar
    92    99   101   ar
    93    89    88   ar
    94    28    27    1
    95    28    29    2
    96    86    88   ar
    97   103   101   ar
    98    30    27    1
    99    30    32    1
   100    27    26    1
   101   131   130    1
   102   131   132    1
   103    17    15   ar
   104    17    16   ar
   105   122   123    1
   106   132   133    2
   107    15    13   ar
   108   124   123    1
   109   124   125    2
   110    16    14   ar
   111    13    14   ar
   112    13    12    1
   113   126   123    1
   114   126   128    1
   115   126   127    1
   116    12     9    1
   117   129   127    1
   118    11    10    2
   119     9    10    1
   120     9     8    1
   121    21    20    2
   122    20    19    1
   123     8     3   am
   124    22    19    1
   125    22    23    1
   126   147   146    1
   127   147   141    1
   128   146   145    1
   129    19    18    1
   130   145   142    1
   131   141   142    1
   132     3     4    2
   133     3     2    1
   134   142   143    1
   135    23    24    2
   136    23    25   am
   137     6     5    1
   138     5     2    1
   139     5     7    1
   140     1     2    1
   141   143   144    2
