@<TRIPOS>MOLECULE
tmp/3rkoB04.pdb
 67 60 0 0 0
SMALL
GASTEIGER

@<TRIPOS>ATOM
      1  N         -0.6510   19.9060    9.8840 N.3   184  VAL184     -0.1245
      2  CA         0.4750   19.1790   10.4790 C.3   184  VAL184      0.1561
      3  C          0.1190   17.7720   11.0090 C.2   184  VAL184      0.2260
      4  O          0.7940   16.7880   10.6750 O.2   184  VAL184     -0.2867
      5  CB         1.2250   19.9980   11.5270 C.3   184  VAL184      0.0252
      6  CG1        2.2880   19.1210   12.1660 C.3   184  VAL184      0.0019
      7  CG2        1.8540   21.2280   10.8640 C.3   184  VAL184      0.0019
      8  N         -0.0190   15.4320    8.0370 N.3   187  ILE187     -0.1231
      9  CA         1.2510   14.9480    7.4950 C.3   187  ILE187      0.1692
     10  C          1.9550   13.9740    8.4440 C.2   187  ILE187      0.2591
     11  O          2.6450   13.0500    7.9990 O.2   187  ILE187     -0.2718
     12  CB         2.1880   16.0760    7.1130 C.3   187  ILE187      0.0266
     13  CG1        3.6270   15.6680    7.4250 C.3   187  ILE187      0.0019
     14  CG2        1.7910   17.3270    7.8490 C.3   187  ILE187      0.0020
     15  CD1        4.6480   16.6540    6.9670 C.3   187  ILE187      0.0001
     16  N          1.7720   14.1570    9.7470 N.am  188  ALA188     -0.1980
     17  CA         2.1670   13.1010   10.6810 C.3   188  ALA188      0.1597
     18  C          1.4910   11.7630   10.3300 C.2   188  ALA188      0.2287
     19  O          2.1650   10.8110    9.9360 O.2   188  ALA188     -0.2864
     20  CB         1.8600   13.4910   12.1140 C.3   188  ALA188      0.0319
     21  N          3.0360   10.2400    7.3010 N.3   191  ALA191     -0.1245
     22  CA         4.3300    9.6180    7.6250 C.3   191  ALA191      0.1562
     23  C          4.1950    8.2680    8.3540 C.2   191  ALA191      0.2260
     24  O          4.9810    7.3330    8.1240 O.2   191  ALA191     -0.2867
     25  CB         5.1940   10.5730    8.4400 C.3   191  ALA191      0.0290
     26  N          5.1860    4.5540    7.1760 N.3   195  VAL195     -0.1245
     27  CA         6.1650    3.6980    7.8440 C.3   195  VAL195      0.1561
     28  C          5.6430    2.2880    8.1130 C.2   195  VAL195      0.2260
     29  O          6.3130    1.3090    7.7890 O.2   195  VAL195     -0.2867
     30  CB         6.6910    4.3150    9.1470 C.3   195  VAL195      0.0252
     31  CG1        6.9920    3.2240   10.1520 C.3   195  VAL195      0.0019
     32  CG2        7.9430    5.1520    8.8640 C.3   195  VAL195      0.0019
     33  N         12.1180    9.5510   14.6970 N.3   219  VAL219     -0.1245
     34  CA        10.9730    9.6580   13.8070 C.3   219  VAL219      0.1561
     35  C          9.6660    9.6170   14.5870 C.2   219  VAL219      0.2260
     36  O          8.7710   10.4410   14.3530 O.2   219  VAL219     -0.2867
     37  CB        10.9610    8.5230   12.7810 C.3   219  VAL219      0.0252
     38  CG1        9.5500    8.3500   12.2000 C.3   219  VAL219      0.0019
     39  CG2       12.0230    8.7700   11.6970 C.3   219  VAL219      0.0019
     40  N          9.2960   13.1200   15.8240 N.3   222  LEU222     -0.1231
     41  CA         8.7150   14.0890   14.8970 C.3   222  LEU222      0.1693
     42  C          7.2110   13.8790   14.6900 C.2   222  LEU222      0.2591
     43  O          6.4220   14.8140   14.8470 O.2   222  LEU222     -0.2718
     44  CB         9.4750   14.0870   13.5750 C.3   222  LEU222      0.0284
     45  CG        10.9290   14.5540   13.7490 C.3   222  LEU222      0.0019
     46  CD1       11.8210   14.1130   12.6160 C.3   222  LEU222      0.0001
     47  CD2       11.0130   16.0520   13.8900 C.3   222  LEU222      0.0001
     48  N          6.8160   12.6510   14.3640 N.am  223  LEU223     -0.1980
     49  CA         5.4070   12.2840   14.2690 C.3   223  LEU223      0.1596
     50  C          4.6000   12.7820   15.4750 C.2   223  LEU223      0.2287
     51  O          3.5940   13.5150   15.3390 O.2   223  LEU223     -0.2864
     52  CB         5.2950   10.7610   14.1820 C.3   223  LEU223      0.0297
     53  CG         5.2270   10.1670   12.7780 C.3   223  LEU223      0.0022
     54  CD1        6.2400   10.8370   11.8570 C.3   223  LEU223      0.0001
     55  CD2        5.4200    8.6600   12.8210 C.3   223  LEU223      0.0001
     56  N          5.2850   14.9790   17.5120 N.3   225  LEU225     -0.1231
     57  CA         5.2550   16.4390   17.5240 C.3   225  LEU225      0.1693
     58  C          4.0910   16.9180   16.6810 C.2   225  LEU225      0.2592
     59  O          3.2690   17.7010   17.1360 O.2   225  LEU225     -0.2718
     60  CB         6.5490   17.0440   16.9960 C.3   225  LEU225      0.0284
     61  CG         7.7780   16.8720   17.8780 C.3   225  LEU225      0.0019
     62  CD1        8.9230   17.7210   17.3420 C.3   225  LEU225      0.0001
     63  CD2        7.4380   17.2580   19.2990 C.3   225  LEU225      0.0001
     64  N          4.0190   16.4440   15.4430 N.am  226  GLY226     -0.1957
     65  CA         2.8760   16.7700   14.6140 C.3   226  GLY226      0.1869
     66  C          1.6110   16.6630   15.4420 C.2   226  GLY226      0.2309
     67  O          0.9010   17.6680   15.6780 O.2   226  GLY226     -0.2863
@<TRIPOS>BOND
     1    15    13    1
     2    12    13    1
     3    12     9    1
     4    12    14    1
     5    26    27    1
     6    21    22    1
     7     9     8    1
     8     9    10    1
     9    22    23    1
    10    22    25    1
    11    29    28    2
    12    27    28    1
    13    27    30    1
    14    11    10    2
    15    24    23    2
    16    10    16   am
    17    32    30    1
    18    30    31    1
    19    16    17    1
    20     1     2    1
    21    19    18    2
    22    18    17    1
    23     2     3    1
    24     2     5    1
    25     4     3    2
    26    17    20    1
    27     7     5    1
    28     5     6    1
    29    39    37    1
    30    54    53    1
    31    38    37    1
    32    46    45    1
    33    53    55    1
    34    53    52    1
    35    37    34    1
    36    44    45    1
    37    44    41    1
    38    45    47    1
    39    34    35    1
    40    34    33    1
    41    52    49    1
    42    49    48    1
    43    49    50    1
    44    36    35    2
    45    48    42   am
    46    65    66    1
    47    65    64    1
    48    42    43    2
    49    42    41    1
    50    41    40    1
    51    51    50    2
    52    66    67    2
    53    64    58   am
    54    58    59    2
    55    58    57    1
    56    60    57    1
    57    60    61    1
    58    62    61    1
    59    56    57    1
    60    61    63    1
