@<TRIPOS>MOLECULE
tmp/3rkoC01.pdb
 83 73 0 0 0
SMALL
GASTEIGER

@<TRIPOS>ATOM
      1  N        -14.1630    8.7820  -27.5680 N.3    52  LEU52      -0.1245
      2  CA       -13.2750    8.2640  -26.5390 C.3    52  LEU52       0.1561
      3  C        -13.6800    6.8500  -26.1560 C.2    52  LEU52       0.2260
      4  O        -12.8550    5.9390  -26.1970 O.2    52  LEU52      -0.2867
      5  CB       -13.2420    9.1660  -25.3070 C.3    52  LEU52       0.0270
      6  CG       -12.0820   10.1450  -25.3790 C.3    52  LEU52       0.0019
      7  CD1      -11.8930   10.8660  -24.0560 C.3    52  LEU52       0.0001
      8  CD2      -10.8390    9.3760  -25.7620 C.3    52  LEU52       0.0001
      9  N        -11.6510    3.3210  -26.2200 N.3    56  GLY56      -0.1225
     10  CA       -11.5190    2.4390  -25.0800 C.3    56  GLY56       0.1811
     11  C        -11.7150    1.0030  -25.5000 C.2    56  GLY56       0.2280
     12  O        -10.9840    0.1140  -25.0570 O.2    56  GLY56      -0.2866
     13  N        -10.9130   -0.2010  -28.2370 N.3    58  ALA58      -0.1245
     14  CA        -9.7650   -0.6040  -29.0550 C.3    58  ALA58       0.1562
     15  C         -8.4580   -0.6230  -28.2600 C.2    58  ALA58       0.2260
     16  O         -8.4530   -0.3990  -27.0520 O.2    58  ALA58      -0.2867
     17  CB        -9.6370    0.2900  -30.2770 C.3    58  ALA58       0.0290
     18  N         -4.2890    0.0670  -27.1500 N.3    60  ALA60      -0.1245
     19  CA        -3.4330    1.1960  -26.7870 C.3    60  ALA60       0.1562
     20  C         -2.2750    1.3550  -27.7680 C.2    60  ALA60       0.2260
     21  O         -1.1190    1.1270  -27.4190 O.2    60  ALA60      -0.2867
     22  CB        -2.9010    1.0150  -25.3670 C.3    60  ALA60       0.0290
     23  N         -4.7060    4.8590  -22.0170 N.3    71  GLY71      -0.1225
     24  CA        -5.6750    5.2990  -21.0290 C.3    71  GLY71       0.1811
     25  C         -5.3800    6.6800  -20.4690 C.2    71  GLY71       0.2280
     26  O         -6.3050    7.3980  -20.0780 O.2    71  GLY71      -0.2866
     27  N         -6.5510    9.0570  -22.9030 N.3    74  MET74      -0.1230
     28  CA        -8.0030    8.9860  -22.7640 C.3    74  MET74       0.1702
     29  C         -8.5080    9.8670  -21.6180 C.2    74  MET74       0.2592
     30  O         -9.5150   10.5680  -21.7550 O.2    74  MET74      -0.2718
     31  CB        -8.4470    7.5380  -22.5460 C.3    74  MET74       0.0401
     32  CG        -8.1960    6.5920  -23.7240 C.3    74  MET74       0.0596
     33  SD        -8.7720    4.9110  -23.3800 S.3    74  MET74      -0.1393
     34  CE       -10.4360    5.2020  -22.7670 C.3    74  MET74       0.0692
     35  N         -7.8030    9.8230  -20.4910 N.am   75  LEU75      -0.1980
     36  CA        -8.1050   10.6720  -19.3390 C.3    75  LEU75       0.1596
     37  C         -7.9620   12.1610  -19.6720 C.2    75  LEU75       0.2287
     38  O         -8.9170   12.9490  -19.5180 O.2    75  LEU75      -0.2864
     39  CB        -7.1950   10.2720  -18.1750 C.3    75  LEU75       0.0297
     40  CG        -7.2820   10.9400  -16.7960 C.3    75  LEU75       0.0022
     41  CD1       -6.5690   12.2990  -16.7800 C.3    75  LEU75       0.0001
     42  CD2       -8.7360   11.0290  -16.2770 C.3    75  LEU75       0.0001
     43  N        -10.5580   13.2690  -22.3670 N.3    78  GLY78      -0.1210
     44  CA       -11.8400   13.3640  -21.6930 C.3    78  GLY78       0.1956
     45  C        -11.9810   14.6850  -20.9620 C.2    78  GLY78       0.2611
     46  O        -12.9690   15.4160  -21.1430 O.2    78  GLY78      -0.2717
     47  N        -10.9830   15.0020  -20.1390 N.am   79  LEU79      -0.1979
     48  CA       -10.9930   16.2670  -19.4090 C.3    79  LEU79       0.1596
     49  C        -11.1000   17.4630  -20.3580 C.2    79  LEU79       0.2287
     50  O        -12.0910   18.1760  -20.3250 O.2    79  LEU79      -0.2864
     51  CB        -9.7630   16.4050  -18.5110 C.3    79  LEU79       0.0297
     52  CG        -9.6740   15.4450  -17.3240 C.3    79  LEU79       0.0022
     53  CD1       -8.6100   15.9130  -16.3400 C.3    79  LEU79       0.0001
     54  CD2      -11.0250   15.3070  -16.6360 C.3    79  LEU79       0.0001
     55  N        -14.3970   17.9800  -21.7100 N.3    82  LEU82      -0.1245
     56  CA       -15.3060   18.5210  -20.7030 C.3    82  LEU82       0.1561
     57  C        -15.1030   20.0210  -20.5600 C.2    82  LEU82       0.2260
     58  O        -16.0590   20.8020  -20.6180 O.2    82  LEU82      -0.2867
     59  CB       -15.0740   17.8460  -19.3620 C.3    82  LEU82       0.0270
     60  CG       -15.2530   16.3350  -19.3930 C.3    82  LEU82       0.0019
     61  CD1      -14.6300   15.7040  -18.1560 C.3    82  LEU82       0.0001
     62  CD2      -16.7250   16.0130  -19.5150 C.3    82  LEU82       0.0001
     63  N        -10.6270    4.8340  -10.9540 N.3   465  ILE465     -0.1245
     64  CA       -10.8190    5.1480  -12.3690 C.3   465  ILE465      0.1561
     65  C         -9.6300    5.8950  -12.9540 C.2   465  ILE465      0.2260
     66  O         -9.2400    5.6700  -14.0990 O.2   465  ILE465     -0.2867
     67  CB       -12.0970    5.9520  -12.6000 C.3   465  ILE465      0.0252
     68  CG1      -13.3110    5.0220  -12.5210 C.3   465  ILE465      0.0019
     69  CG2      -12.0310    6.6630  -13.9480 C.3   465  ILE465      0.0019
     70  CD1      -14.6470    5.7540  -12.5180 C.3   465  ILE465      0.0001
     71  N         -6.6730    3.6190  -13.1710 N.3   468  LEU468     -0.1231
     72  CA        -6.8830    2.7060  -14.2920 C.3   468  LEU468      0.1693
     73  C         -6.2960    3.1540  -15.6400 C.2   468  LEU468      0.2591
     74  O         -6.0310    2.3380  -16.5200 O.2   468  LEU468     -0.2718
     75  CB        -8.3820    2.4750  -14.4660 C.3   468  LEU468      0.0284
     76  CG        -8.7630    1.3990  -15.4720 C.3   468  LEU468      0.0019
     77  CD1       -8.4180    0.0440  -14.8790 C.3   468  LEU468      0.0001
     78  CD2      -10.2380    1.5030  -15.8260 C.3   468  LEU468      0.0001
     79  N         -6.1090    4.4500  -15.8180 N.am  469  ALA469     -0.1980
     80  CA        -5.6120    4.9510  -17.0900 C.3   469  ALA469      0.1597
     81  C         -4.0970    5.2450  -17.0770 C.2   469  ALA469      0.2287
     82  O         -3.6800    6.4010  -17.1270 O.2   469  ALA469     -0.2864
     83  CB        -6.3980    6.1860  -17.5020 C.3   469  ALA469      0.0319
@<TRIPOS>BOND
     1    17    14    1
     2    14    15    1
     3    14    13    1
     4    15    16    2
     5    20    21    2
     6    20    19    1
     7     1     2    1
     8    18    19    1
     9    19    22    1
    10     2     3    1
    11     2     5    1
    12     9    10    1
    13     4     3    2
    14     8     6    1
    15    11    10    1
    16    11    12    2
    17     6     5    1
    18     6     7    1
    19    32    33    1
    20    32    31    1
    21    33    34    1
    22    27    28    1
    23    28    31    1
    24    28    29    1
    25    43    44    1
    26    23    24    1
    27    30    29    2
    28    55    56    1
    29    44    45    1
    30    29    35   am
    31    46    45    2
    32    24    25    1
    33    45    47   am
    34    56    57    1
    35    56    59    1
    36    58    57    2
    37    35    36    1
    38    25    26    2
    39    49    50    2
    40    49    48    1
    41    47    48    1
    42    37    38    2
    43    37    36    1
    44    62    60    1
    45    48    51    1
    46    60    59    1
    47    60    61    1
    48    36    39    1
    49    51    52    1
    50    39    40    1
    51    83    80    1
    52    52    54    1
    53    52    53    1
    54    82    81    2
    55    80    81    1
    56    80    79    1
    57    40    41    1
    58    40    42    1
    59    74    73    2
    60    78    76    1
    61    79    73   am
    62    73    72    1
    63    76    77    1
    64    76    75    1
    65    75    72    1
    66    72    71    1
    67    66    65    2
    68    69    67    1
    69    65    64    1
    70    67    68    1
    71    67    64    1
    72    68    70    1
    73    64    63    1
