@<TRIPOS>MOLECULE
tmp/3rkoG03.pdb
 102 99 0 0 0
SMALL
GASTEIGER

@<TRIPOS>ATOM
      1  N          9.6930   -6.6170  -48.9930 N.3   158  TYR158     -0.1227
      2  CA         8.9720   -6.8800  -47.7380 C.3   158  TYR158      0.1736
      3  C          8.0350   -5.7800  -47.2220 C.2   158  TYR158      0.2596
      4  O          6.9820   -6.0900  -46.6730 O.2   158  TYR158     -0.2718
      5  CB         9.9230   -7.3480  -46.6220 C.3   158  TYR158      0.0548
      6  CG        11.0700   -6.4080  -46.3230 C.ar  158  TYR158     -0.0200
      7  CD1       12.2240   -6.4200  -47.1010 C.ar  158  TYR158     -0.0009
      8  CD2       11.0050   -5.5270  -45.2530 C.ar  158  TYR158     -0.0009
      9  CE1       13.2790   -5.5670  -46.8320 C.ar  158  TYR158      0.0417
     10  CE2       12.0510   -4.6650  -44.9770 C.ar  158  TYR158      0.0417
     11  CZ        13.1910   -4.6910  -45.7690 C.ar  158  TYR158      0.1957
     12  OH        14.2480   -3.8370  -45.5120 O.3   158  TYR158     -0.2866
     13  N          8.4000   -4.5130  -47.4000 N.am  159  THR159     -0.1939
     14  CA         7.6210   -3.4120  -46.8230 C.3   159  THR159      0.2028
     15  C          6.0990   -3.5470  -47.0050 C.2   159  THR159      0.2642
     16  O          5.3220   -3.1440  -46.1440 O.2   159  THR159     -0.2714
     17  CB         8.0910   -2.0260  -47.3360 C.3   159  THR159      0.1808
     18  OG1        8.2440   -2.0650  -48.7580 O.3   159  THR159     -0.2208
     19  CG2        9.4210   -1.6430  -46.7050 C.3   159  THR159      0.0379
     20  N          5.6710   -4.1120  -48.1240 N.am  160  ASP160     -0.1957
     21  CA         4.2430   -4.2930  -48.3650 C.3   160  ASP160      0.1825
     22  C          3.7810   -5.6600  -47.8650 C.2   160  ASP160      0.2464
     23  O          4.3940   -6.6770  -48.1840 O.2   160  ASP160     -0.2730
     24  CB         3.9420   -4.1540  -49.8640 C.3   160  ASP160      0.1450
     25  CG         2.4390   -4.0780  -50.1760 C.2   160  ASP160      0.3671
     26  OD1        2.0700   -3.5420  -51.2490 O.co2 160  ASP160     -0.2456
     27  OD2        1.6170   -4.5520  -49.3620 O.co2 160  ASP160     -0.2456
     28  N          2.6920   -5.6840  -47.0740 N.am  161  PRO161     -0.2727
     29  CA         1.9610   -6.8570  -46.5560 C.3   161  PRO161      0.1402
     30  C          1.5150   -7.8810  -47.6120 C.2   161  PRO161      0.2269
     31  O          1.7090   -9.0830  -47.4250 O.2   161  PRO161     -0.2865
     32  CB         0.7340   -6.2210  -45.9030 C.3   161  PRO161      0.0296
     33  CG         1.2340   -4.9130  -45.4130 C.3   161  PRO161      0.0237
     34  CD         2.2330   -4.4380  -46.4340 C.3   161  PRO161      0.0939
     35  N          4.5970   -9.9180  -49.1330 N.3   164  GLY164     -0.1210
     36  CA         4.9520  -10.9510  -48.1840 C.3   164  GLY164      0.1956
     37  C          3.9710  -12.1020  -48.2140 C.2   164  GLY164      0.2611
     38  O          4.3680  -13.2420  -48.4590 O.2   164  GLY164     -0.2717
     39  N          2.6890  -11.8190  -47.9890 N.am  165  ALA165     -0.1979
     40  CA         1.7040  -12.8990  -47.9360 C.3   165  ALA165      0.1597
     41  C          1.6720  -13.7280  -49.2240 C.2   165  ALA165      0.2287
     42  O          1.2870  -14.9050  -49.2060 O.2   165  ALA165     -0.2864
     43  CB         0.3270  -12.3750  -47.5970 C.3   165  ALA165      0.0319
     44  N          4.4190  -16.1590  -48.7260 N.3   168  MET168     -0.1245
     45  CA         4.0310  -17.1750  -47.7610 C.3   168  MET168      0.1570
     46  C          3.0430  -18.1780  -48.3500 C.2   168  MET168      0.2261
     47  O          3.1320  -19.3690  -48.0670 O.2   168  MET168     -0.2867
     48  CB         3.4700  -16.5380  -46.4990 C.3   168  MET168      0.0387
     49  CG         3.0130  -17.5520  -45.4800 C.3   168  MET168      0.0595
     50  SD         2.6590  -16.8230  -43.8620 S.3   168  MET168     -0.1393
     51  CE         1.6520  -18.1120  -43.1390 C.3   168  MET168      0.0692
     52  N          4.1800  -22.0670  -48.1470 N.3   172  VAL172     -0.1245
     53  CA         3.2360  -23.0560  -47.6210 C.3   172  VAL172      0.1561
     54  C          2.8650  -24.1110  -48.6570 C.2   172  VAL172      0.2260
     55  O          2.9950  -25.3140  -48.4020 O.2   172  VAL172     -0.2867
     56  CB         1.9400  -22.4160  -47.0930 C.3   172  VAL172      0.0252
     57  CG1        0.7750  -23.4090  -47.1860 C.3   172  VAL172      0.0019
     58  CG2        2.1340  -21.9440  -45.6600 C.3   172  VAL172      0.0019
     59  N          3.6160  -28.1700  -48.7700 N.3   176  VAL176     -0.1245
     60  CA         2.6840  -29.3050  -48.7670 C.3   176  VAL176      0.1561
     61  C          3.0490  -30.2910  -49.8770 C.2   176  VAL176      0.2260
     62  O          3.0960  -31.5320  -49.6800 O.2   176  VAL176     -0.2867
     63  CB         1.2340  -28.8370  -48.9230 C.3   176  VAL176      0.0252
     64  CG1        0.2710  -30.0100  -48.7800 C.3   176  VAL176      0.0019
     65  CG2        0.9340  -27.7800  -47.8870 C.3   176  VAL176      0.0019
     66  N         -9.4180  -24.7480  -45.4230 N.3   549  PHE549     -0.1227
     67  CA        -8.1390  -24.9100  -44.7320 C.3   549  PHE549      0.1736
     68  C         -7.7840  -23.6980  -43.8700 C.2   549  PHE549      0.2595
     69  O         -7.8390  -23.7550  -42.6410 O.2   549  PHE549     -0.2718
     70  CB        -7.0000  -25.1700  -45.7270 C.3   549  PHE549      0.0547
     71  CG        -7.1620  -26.4270  -46.5230 C.ar  549  PHE549     -0.0202
     72  CD1       -6.5750  -26.5510  -47.7710 C.ar  549  PHE549     -0.0042
     73  CD2       -7.9010  -27.4870  -46.0240 C.ar  549  PHE549     -0.0042
     74  CE1       -6.7280  -27.7080  -48.5090 C.ar  549  PHE549     -0.0003
     75  CE2       -8.0570  -28.6520  -46.7560 C.ar  549  PHE549     -0.0003
     76  CZ        -7.4710  -28.7630  -48.0040 C.ar  549  PHE549     -0.0000
     77  N         -7.4040  -22.6060  -44.5260 N.am  550  VAL550     -0.1980
     78  CA        -6.9220  -21.4170  -43.8320 C.3   550  VAL550      0.1595
     79  C         -7.8890  -20.9410  -42.7440 C.2   550  VAL550      0.2287
     80  O         -7.4960  -20.7500  -41.5860 O.2   550  VAL550     -0.2864
     81  CB        -6.6350  -20.2750  -44.8270 C.3   550  VAL550      0.0276
     82  CG1       -6.1300  -19.0440  -44.0910 C.3   550  VAL550      0.0022
     83  CG2       -5.6260  -20.7380  -45.8820 C.3   550  VAL550      0.0022
     84  N         -8.1120  -23.4790  -39.8470 N.3   553  PHE553     -0.1227
     85  CA        -6.8080  -23.5520  -39.1830 C.3   553  PHE553      0.1736
     86  C         -6.6370  -22.3780  -38.2250 C.2   553  PHE553      0.2595
     87  O         -6.3760  -22.5580  -37.0280 O.2   553  PHE553     -0.2718
     88  CB        -5.6730  -23.5500  -40.2110 C.3   553  PHE553      0.0547
     89  CG        -4.3940  -22.9570  -39.6930 C.ar  553  PHE553     -0.0202
     90  CD1       -3.4890  -23.7300  -38.9950 C.ar  553  PHE553     -0.0042
     91  CD2       -4.0990  -21.6210  -39.8980 C.ar  553  PHE553     -0.0042
     92  CE1       -2.3060  -23.1820  -38.5050 C.ar  553  PHE553     -0.0003
     93  CE2       -2.9210  -21.0710  -39.4120 C.ar  553  PHE553     -0.0003
     94  CZ        -2.0220  -21.8540  -38.7150 C.ar  553  PHE553     -0.0000
     95  N         -6.7900  -21.1720  -38.7700 N.am  554  LEU554     -0.1980
     96  CA        -6.7260  -19.9560  -37.9660 C.3   554  LEU554      0.1596
     97  C         -7.8040  -20.0140  -36.8960 C.2   554  LEU554      0.2287
     98  O         -7.6540  -19.4510  -35.8120 O.2   554  LEU554     -0.2864
     99  CB        -6.9350  -18.7140  -38.8320 C.3   554  LEU554      0.0297
    100  CG        -5.9470  -18.4480  -39.9680 C.3   554  LEU554      0.0022
    101  CD1       -6.3920  -17.2260  -40.7480 C.3   554  LEU554      0.0001
    102  CD2       -4.5470  -18.2580  -39.4320 C.3   554  LEU554      0.0001
@<TRIPOS>BOND
     1    26    25   ar
     2    25    24    1
     3    25    27   ar
     4    61    62    2
     5    61    60    1
     6    24    21    1
     7    41    42    2
     8    41    40    1
     9    35    36    1
    10     1     2    1
    11    63    64    1
    12    63    60    1
    13    63    65    1
    14    59    60    1
    15    18    17    1
    16    44    45    1
    17    54    55    2
    18    54    53    1
    19    74    76   ar
    20    74    72   ar
    21    38    37    2
    22    21    20    1
    23    21    22    1
    24    46    47    2
    25    46    45    1
    26    37    36    1
    27    37    39   am
    28    23    22    2
    29    52    53    1
    30    20    15   am
    31    76    75   ar
    32    39    40    1
    33    40    43    1
    34    22    28   am
    35    72    71   ar
    36    45    48    1
    37     2     3    1
    38     2     5    1
    39    53    56    1
    40    30    31    2
    41    30    29    1
    42    13     3   am
    43    13    14    1
    44    17    14    1
    45    17    19    1
    46     3     4    2
    47    57    56    1
    48     7     9   ar
    49     7     6   ar
    50    56    58    1
    51    28    29    1
    52    28    34    1
    53    15    14    1
    54    15    16    2
    55     9    11   ar
    56    75    73   ar
    57     5     6    1
    58    29    32    1
    59    71    73   ar
    60    71    70    1
    61    48    49    1
    62    34    33    1
    63     6     8   ar
    64    32    33    1
    65    83    81    1
    66    11    12    1
    67    11    10   ar
    68    70    67    1
    69    49    50    1
    70    66    67    1
    71     8    10   ar
    72    81    82    1
    73    81    78    1
    74    67    68    1
    75    77    68   am
    76    77    78    1
    77    68    69    2
    78    50    51    1
    79    78    79    1
    80    79    80    2
    81   101   100    1
    82    88    89    1
    83    88    85    1
    84   100   102    1
    85   100    99    1
    86    91    89   ar
    87    91    93   ar
    88    84    85    1
    89    89    90   ar
    90    93    94   ar
    91    85    86    1
    92    90    92   ar
    93    99    96    1
    94    95    86   am
    95    95    96    1
    96    94    92   ar
    97    86    87    2
    98    96    97    1
    99    97    98    2
