@<TRIPOS>MOLECULE
tmp/3rkoB01.pdb
 98 95 0 0 0
SMALL
GASTEIGER

@<TRIPOS>ATOM
      1  N         -7.4780   37.6410   34.6810 N.3   306  PHE306     -0.1241
      2  CA        -7.7900   38.5830   35.7420 C.3   306  PHE306      0.1605
      3  C         -7.6770   40.0150   35.2570 C.2   306  PHE306      0.2264
      4  O         -8.4900   40.8610   35.6160 O.2   306  PHE306     -0.2867
      5  CB        -6.8640   38.3330   36.9330 C.3   306  PHE306      0.0534
      6  CG        -6.6620   39.5270   37.8090 C.ar  306  PHE306     -0.0203
      7  CD1       -7.6030   39.8630   38.7710 C.ar  306  PHE306     -0.0042
      8  CD2       -5.5160   40.3020   37.6840 C.ar  306  PHE306     -0.0042
      9  CE1       -7.4130   40.9560   39.5830 C.ar  306  PHE306     -0.0003
     10  CE2       -5.3180   41.3970   38.4940 C.ar  306  PHE306     -0.0003
     11  CZ        -6.2680   41.7280   39.4470 C.ar  306  PHE306     -0.0000
     12  N        -20.6640   47.8740   35.0010 N.3   374  MET374     -0.1230
     13  CA       -21.5920   47.0560   35.7630 C.3   374  MET374      0.1702
     14  C        -21.0240   46.7980   37.1520 C.2   374  MET374      0.2592
     15  O        -19.8380   46.5000   37.3070 O.2   374  MET374     -0.2718
     16  CB       -21.8580   45.7330   35.0400 C.3   374  MET374      0.0401
     17  CG       -20.5870   44.9380   34.7550 C.3   374  MET374      0.0596
     18  SD       -20.7550   43.5740   33.5810 S.3   374  MET374     -0.1393
     19  CE       -21.9810   42.5450   34.4080 C.3   374  MET374      0.0692
     20  N        -21.8770   46.9140   38.1610 N.am  375  GLY375     -0.1957
     21  CA       -21.4710   46.6800   39.5270 C.3   375  GLY375      0.1869
     22  C        -22.7040   46.5340   40.3790 C.2   375  GLY375      0.2309
     23  O        -23.8220   46.6880   39.8800 O.2   375  GLY375     -0.2863
     24  N         -4.0860   29.1220   43.7790 N.3   430  VAL430     -0.1231
     25  CA        -4.2190   30.3970   44.4990 C.3   430  VAL430      0.1692
     26  C         -4.5740   31.5740   43.5730 C.2   430  VAL430      0.2592
     27  O         -5.4060   32.4160   43.9250 O.2   430  VAL430     -0.2718
     28  CB        -2.9680   30.7540   45.3120 C.3   430  VAL430      0.0266
     29  CG1       -3.3470   31.6880   46.4340 C.3   430  VAL430      0.0020
     30  CG2       -2.3200   29.5020   45.8660 C.3   430  VAL430      0.0020
     31  N         -3.9440   31.6450   42.3990 N.am  431  PHE431     -0.1976
     32  CA        -4.3310   32.6610   41.4110 C.3   431  PHE431      0.1639
     33  C         -5.7830   32.5270   40.9640 C.2   431  PHE431      0.2290
     34  O         -6.4740   33.5330   40.7250 O.2   431  PHE431     -0.2864
     35  CB        -3.4360   32.6010   40.1840 C.3   431  PHE431      0.0560
     36  CG        -2.0810   33.2070   40.3960 C.ar  431  PHE431     -0.0200
     37  CD1       -1.3410   32.8980   41.5220 C.ar  431  PHE431     -0.0042
     38  CD2       -1.5420   34.0770   39.4570 C.ar  431  PHE431     -0.0042
     39  CE1       -0.0910   33.4460   41.7110 C.ar  431  PHE431     -0.0003
     40  CE2       -0.2910   34.6290   39.6390 C.ar  431  PHE431     -0.0003
     41  CZ         0.4350   34.3160   40.7660 C.ar  431  PHE431     -0.0000
     42  N         -7.9670   34.5320   43.0780 N.3   434  VAL434     -0.1245
     43  CA        -7.9790   35.9340   42.6170 C.3   434  VAL434      0.1561
     44  C         -8.9100   36.1980   41.4460 C.2   434  VAL434      0.2260
     45  O         -9.8600   36.9670   41.5710 O.2   434  VAL434     -0.2867
     46  CB        -6.5800   36.4240   42.1760 C.3   434  VAL434      0.0252
     47  CG1       -6.6810   37.6600   41.2790 C.3   434  VAL434      0.0019
     48  CG2       -5.7180   36.7160   43.3660 C.3   434  VAL434      0.0019
     49  N        -12.2910   38.4450   41.5990 N.3   438  ALA438     -0.1245
     50  CA       -12.3240   39.7010   40.8590 C.3   438  ALA438      0.1562
     51  C        -13.5430   39.7500   39.9360 C.2   438  ALA438      0.2260
     52  O        -14.3860   40.6340   40.0520 O.2   438  ALA438     -0.2867
     53  CB       -11.0300   39.8910   40.0650 C.3   438  ALA438      0.0290
     54  N        -16.8120   40.0930   41.9720 N.3   441  HIS441     -0.1226
     55  CA       -16.9690   41.4590   42.4680 C.3   441  HIS441      0.1752
     56  C        -17.3910   42.4040   41.3550 C.2   441  HIS441      0.2595
     57  O        -18.4870   42.9760   41.3890 O.2   441  HIS441     -0.2718
     58  CB       -15.6700   41.9500   43.1010 C.3   441  HIS441      0.0759
     59  CG       -15.4670   41.4680   44.5010 C.ar  441  HIS441      0.0818
     60  ND1      -16.5080   41.0090   45.2800 N.ar  441  HIS441     -0.2268
     61  CD2      -14.3510   41.3630   45.2590 C.ar  441  HIS441      0.1154
     62  CE1      -16.0440   40.6450   46.4610 C.ar  441  HIS441      0.1986
     63  NE2      -14.7380   40.8480   46.4740 N.ar  441  HIS441     -0.2212
     64  N        -16.5210   42.5660   40.3680 N.am  442  ARG442     -0.1980
     65  CA       -16.7880   43.4590   39.2550 C.3   442  ARG442      0.1597
     66  C        -18.2150   43.3090   38.7790 C.2   442  ARG442      0.2287
     67  O        -18.8680   44.2950   38.4970 O.2   442  ARG442     -0.2864
     68  CB       -15.8310   43.1840   38.1020 C.3   442  ARG442      0.0334
     69  CG       -14.3520   43.4020   38.4290 C.3   442  ARG442      0.0492
     70  CD       -13.5320   42.3100   37.7640 C.3   442  ARG442      0.2205
     71  NE       -12.1150   42.3490   38.1110 N.pl3 442  ARG442     -0.0865
     72  CZ       -11.1510   42.7070   37.2670 C.cat 442  ARG442      0.5346
     73  NH1      -11.4640   43.0580   36.0250 N.pl3 442  ARG442      0.1354
     74  NH2       -9.8780   42.7090   37.6610 N.pl3 442  ARG442      0.1354
     75  N        -20.7960   42.9900   42.9910 N.3   445  PHE445     -0.1227
     76  CA       -20.5560   43.7080   44.2380 C.3   445  PHE445      0.1736
     77  C        -20.0050   45.1140   44.0200 C.2   445  PHE445      0.2596
     78  O        -19.2390   45.3580   43.0890 O.2   445  PHE445     -0.2718
     79  CB       -19.6090   42.9210   45.1420 C.3   445  PHE445      0.0547
     80  CG       -20.0930   41.5390   45.4640 C.ar  445  PHE445     -0.0202
     81  CD1      -21.4460   41.2410   45.4290 C.ar  445  PHE445     -0.0042
     82  CD2      -19.2000   40.5370   45.7920 C.ar  445  PHE445     -0.0042
     83  CE1      -21.9030   39.9680   45.7230 C.ar  445  PHE445     -0.0003
     84  CE2      -19.6480   39.2670   46.0880 C.ar  445  PHE445     -0.0003
     85  CZ       -21.0060   38.9810   46.0500 C.ar  445  PHE445     -0.0000
     86  N        -20.4040   46.0370   44.8870 N.am  446  GLY446     -0.1942
     87  CA       -19.8210   47.3640   44.9000 C.3   446  GLY446      0.2014
     88  C        -20.8070   48.4460   44.5190 C.2   446  GLY446      0.2638
     89  O        -22.0160   48.2970   44.7200 O.2   446  GLY446     -0.2714
     90  N        -20.2800   49.5400   43.9730 N.am  447  LYS447     -0.1977
     91  CA       -21.1060   50.6410   43.4840 C.3   447  LYS447      0.1596
     92  C        -22.2640   50.1430   42.6200 C.2   447  LYS447      0.2287
     93  O        -22.0520   49.3830   41.6710 O.2   447  LYS447     -0.2864
     94  CB       -20.2470   51.6290   42.6920 C.3   447  LYS447      0.0298
     95  CG       -19.3460   50.9620   41.6760 C.3   447  LYS447      0.0038
     96  CD       -18.3830   51.9470   41.0420 C.3   447  LYS447      0.0206
     97  CE       -17.3750   51.2220   40.1580 C.3   447  LYS447      0.1093
     98  NZ       -16.4620   52.1650   39.4590 N.3   447  LYS447     -0.1314
@<TRIPOS>BOND
     1    18    19    1
     2    18    17    1
     3     1     2    1
     4    17    16    1
     5    12    13    1
     6    16    13    1
     7     3     4    2
     8     3     2    1
     9     2     5    1
    10    13    14    1
    11    73    72    1
    12     5     6    1
    13    14    15    2
    14    14    20   am
    15    72    74    1
    16    72    71    2
    17     8     6   ar
    18     8    10   ar
    19    70    71    1
    20    70    69    1
    21     6     7   ar
    22    68    69    1
    23    68    65    1
    24    20    21    1
    25    10    11   ar
    26    67    66    2
    27     7     9   ar
    28    66    65    1
    29    65    64    1
    30    11     9   ar
    31    38    40   ar
    32    38    36   ar
    33    98    97    1
    34    21    22    1
    35    40    41   ar
    36    23    22    2
    37    51    52    2
    38    51    50    1
    39    53    50    1
    40    97    96    1
    41    35    36    1
    42    35    32    1
    43    64    56   am
    44    36    37   ar
    45    34    33    2
    46    41    39   ar
    47    50    49    1
    48    33    32    1
    49    96    95    1
    50    47    46    1
    51    56    57    2
    52    56    55    1
    53    32    31    1
    54    44    45    2
    55    44    43    1
    56    37    39   ar
    57    93    92    2
    58    95    94    1
    59    54    55    1
    60    46    43    1
    61    46    48    1
    62    31    26   am
    63    55    58    1
    64    43    42    1
    65    92    91    1
    66    94    91    1
    67    75    76    1
    68    78    77    2
    69    58    59    1
    70    91    90    1
    71    26    27    2
    72    26    25    1
    73    24    25    1
    74    90    88   am
    75    77    76    1
    76    77    86   am
    77    76    79    1
    78    25    28    1
    79    59    61   ar
    80    59    60   ar
    81    88    89    2
    82    88    87    1
    83    86    87    1
    84    79    80    1
    85    61    63   ar
    86    60    62   ar
    87    28    30    1
    88    28    29    1
    89    81    80   ar
    90    81    83   ar
    91    80    82   ar
    92    83    85   ar
    93    82    84   ar
    94    85    84   ar
    95    62    63   ar
