@<TRIPOS>MOLECULE
tmp/3rkoG01.pdb
 102 95 0 0 0
SMALL
GASTEIGER

@<TRIPOS>ATOM
      1  N         26.9900  -16.3000  -53.8850 N.3    15  PHE15      -0.1241
      2  CA        25.9800  -16.1170  -52.8480 C.3    15  PHE15       0.1605
      3  C         26.5540  -15.6510  -51.5170 C.2    15  PHE15       0.2264
      4  O         26.1430  -14.6160  -50.9940 O.2    15  PHE15      -0.2867
      5  CB        25.1830  -17.4010  -52.6330 C.3    15  PHE15       0.0534
      6  CG        24.5050  -17.4680  -51.2970 C.ar   15  PHE15      -0.0203
      7  CD1       23.2360  -16.9490  -51.1210 C.ar   15  PHE15      -0.0042
      8  CD2       25.1420  -18.0400  -50.2100 C.ar   15  PHE15      -0.0042
      9  CE1       22.6130  -17.0050  -49.8900 C.ar   15  PHE15      -0.0003
     10  CE2       24.5240  -18.0930  -48.9800 C.ar   15  PHE15      -0.0003
     11  CZ        23.2540  -17.5780  -48.8240 C.ar   15  PHE15      -0.0000
     12  N         25.9640  -11.9800  -49.8280 N.3    19  ALA19      -0.1231
     13  CA        25.2130  -11.9640  -48.5760 C.3    19  ALA19       0.1694
     14  C         26.0270  -11.3920  -47.4140 C.2    19  ALA19       0.2592
     15  O         25.4640  -10.8530  -46.4740 O.2    19  ALA19      -0.2718
     16  CB        24.6910  -13.3510  -48.2370 C.3    19  ALA19       0.0304
     17  N         27.3490  -11.5110  -47.4810 N.am   20  PHE20      -0.1976
     18  CA        28.1970  -10.9260  -46.4470 C.3    20  PHE20       0.1639
     19  C         28.5830   -9.4950  -46.7850 C.2    20  PHE20       0.2290
     20  O         29.2100   -8.8060  -45.9820 O.2    20  PHE20      -0.2864
     21  CB        29.4480  -11.7700  -46.1980 C.3    20  PHE20       0.0560
     22  CG        29.2310  -12.9120  -45.2440 C.ar   20  PHE20      -0.0200
     23  CD1       27.9510  -13.3230  -44.8940 C.ar   20  PHE20      -0.0042
     24  CD2       30.3150  -13.5650  -44.6840 C.ar   20  PHE20      -0.0042
     25  CE1       27.7630  -14.3780  -44.0110 C.ar   20  PHE20      -0.0003
     26  CE2       30.1350  -14.6110  -43.8050 C.ar   20  PHE20      -0.0003
     27  CZ        28.8600  -15.0190  -43.4680 C.ar   20  PHE20      -0.0000
     28  N         26.6880   -6.3250  -47.4170 N.3    22  ARG22      -0.1245
     29  CA        25.4040   -5.6350  -47.3850 C.3    22  ARG22       0.1563
     30  C         25.5110   -4.1410  -47.6830 C.2    22  ARG22       0.2260
     31  O         25.9090   -3.3510  -46.8280 O.2    22  ARG22      -0.2867
     32  CB        24.7120   -5.8690  -46.0430 C.3    22  ARG22       0.0307
     33  CG        24.1470   -7.2620  -45.9120 C.3    22  ARG22       0.0489
     34  CD        23.1640   -7.5350  -47.0340 C.3    22  ARG22       0.2205
     35  NE        21.9260   -6.7900  -46.8460 N.pl3  22  ARG22      -0.0865
     36  CZ        20.8220   -7.3140  -46.3380 C.cat  22  ARG22       0.5346
     37  NH1       20.8000   -8.5940  -45.9870 N.pl3  22  ARG22       0.1354
     38  NH2       19.7400   -6.5720  -46.1950 N.pl3  22  ARG22       0.1354
     39  N         21.5830   -7.8350  -51.9930 N.3   115  ARG115     -0.1245
     40  CA        20.6850   -8.8190  -51.4040 C.3   115  ARG115      0.1563
     41  C         20.0100   -9.6600  -52.4850 C.2   115  ARG115      0.2260
     42  O         20.1160  -10.8940  -52.4960 O.2   115  ARG115     -0.2867
     43  CB        19.6390   -8.1110  -50.5410 C.3   115  ARG115      0.0307
     44  CG        18.9100   -9.0160  -49.5690 C.3   115  ARG115      0.0489
     45  CD        18.2440   -8.1980  -48.4700 C.3   115  ARG115      0.2205
     46  NE        17.1790   -7.3420  -48.9840 N.pl3 115  ARG115     -0.0865
     47  CZ        15.9050   -7.7110  -49.0660 C.cat 115  ARG115      0.5346
     48  NH1       15.5310   -8.9200  -48.6650 N.pl3 115  ARG115      0.1354
     49  NH2       15.0020   -6.8710  -49.5450 N.pl3 115  ARG115      0.1354
     50  N         22.5100  -11.9210  -54.1950 N.3   118  ALA118     -0.1231
     51  CA        22.8580  -13.0390  -53.3300 C.3   118  ALA118      0.1694
     52  C         21.7960  -14.1330  -53.4410 C.2   118  ALA118      0.2592
     53  O         22.1000  -15.2890  -53.7920 O.2   118  ALA118     -0.2718
     54  CB        22.9950  -12.5710  -51.8890 C.3   118  ALA118      0.0304
     55  N         20.5510  -13.7580  -53.1520 N.am  119  TYR119     -0.1976
     56  CA        19.4360  -14.6960  -53.2340 C.3   119  TYR119      0.1639
     57  C         19.4040  -15.4220  -54.5680 C.2   119  TYR119      0.2290
     58  O         19.1870  -16.6340  -54.6240 O.2   119  TYR119     -0.2864
     59  CB        18.1110  -13.9850  -53.0170 C.3   119  TYR119      0.0560
     60  CG        17.8170  -13.6900  -51.5730 C.ar  119  TYR119     -0.0198
     61  CD1       18.6500  -14.1480  -50.5630 C.ar  119  TYR119     -0.0009
     62  CD2       16.6900  -12.9650  -51.2190 C.ar  119  TYR119     -0.0009
     63  CE1       18.3700  -13.8750  -49.2370 C.ar  119  TYR119      0.0417
     64  CE2       16.4050  -12.6930  -49.9020 C.ar  119  TYR119      0.0417
     65  CZ        17.2470  -13.1490  -48.9190 C.ar  119  TYR119      0.1957
     66  OH        16.9640  -12.8760  -47.6120 O.3   119  TYR119     -0.2866
     67  N         21.9620  -18.0570  -54.8690 N.3   122  LEU122     -0.1245
     68  CA        21.5320  -19.2300  -54.1200 C.3   122  LEU122      0.1561
     69  C         20.4630  -20.0110  -54.8790 C.2   122  LEU122      0.2260
     70  O         20.3790  -21.2320  -54.7610 O.2   122  LEU122     -0.2867
     71  CB        21.0360  -18.8600  -52.7240 C.3   122  LEU122      0.0270
     72  CG        21.0150  -20.0470  -51.7550 C.3   122  LEU122      0.0019
     73  CD1       22.4060  -20.6420  -51.6320 C.3   122  LEU122      0.0001
     74  CD2       20.4740  -19.6600  -50.3790 C.3   122  LEU122      0.0001
     75  N         17.4110  -31.6790  -51.0750 N.3   141  LEU141     -0.1245
     76  CA        18.1900  -30.4880  -50.7680 C.3   141  LEU141      0.1561
     77  C         17.9480  -29.4990  -51.8970 C.2   141  LEU141      0.2260
     78  O         17.7590  -28.3060  -51.6660 O.2   141  LEU141     -0.2867
     79  CB        19.6710  -30.8330  -50.6990 C.3   141  LEU141      0.0270
     80  CG        20.6860  -29.7300  -50.4110 C.3   141  LEU141      0.0019
     81  CD1       20.6350  -29.3200  -48.9520 C.3   141  LEU141      0.0001
     82  CD2       22.0770  -30.2180  -50.7680 C.3   141  LEU141      0.0001
     83  N         15.9140  -26.0910  -51.1930 N.3   145  GLY145     -0.1225
     84  CA        16.7040  -24.8960  -51.4480 C.3   145  GLY145      0.1811
     85  C         15.9850  -23.9660  -52.4090 C.2   145  GLY145      0.2280
     86  O         15.8900  -22.7440  -52.2010 O.2   145  GLY145     -0.2866
     87  N         12.7750  -22.3430  -50.9750 N.3   148  LEU148     -0.1245
     88  CA        13.2320  -21.3010  -50.0690 C.3   148  LEU148      0.1561
     89  C         13.5870  -20.0320  -50.8340 C.2   148  LEU148      0.2260
     90  O         12.9970  -18.9670  -50.6130 O.2   148  LEU148     -0.2867
     91  CB        14.4460  -21.7870  -49.2760 C.3   148  LEU148      0.0270
     92  CG        14.9980  -20.7400  -48.3120 C.3   148  LEU148      0.0019
     93  CD1       13.9790  -20.4690  -47.2190 C.3   148  LEU148      0.0001
     94  CD2       16.3140  -21.2010  -47.7150 C.3   148  LEU148      0.0001
     95  N         12.0180  -16.1700  -50.6840 N.3   152  LEU152     -0.1245
     96  CA        12.7980  -14.9610  -50.4360 C.3   152  LEU152      0.1561
     97  C         12.6870  -13.9200  -51.5480 C.2   152  LEU152      0.2260
     98  O         12.4950  -12.7250  -51.2720 O.2   152  LEU152     -0.2867
     99  CB        14.2680  -15.3040  -50.2290 C.3   152  LEU152      0.0270
    100  CG        14.5880  -16.1800  -49.0210 C.3   152  LEU152      0.0019
    101  CD1       16.0750  -16.4360  -48.9300 C.3   152  LEU152      0.0001
    102  CD2       14.0730  -15.5370  -47.7470 C.3   152  LEU152      0.0001
@<TRIPOS>BOND
     1    69    70    2
     2    69    68    1
     3    67    68    1
     4    58    57    2
     5    57    56    1
     6    50    51    1
     7    68    71    1
     8     1     2    1
     9    53    52    2
    10    52    51    1
    11    52    55   am
    12    51    54    1
    13    56    55    1
    14    56    59    1
    15    59    60    1
    16     2     5    1
    17     2     3    1
    18    71    72    1
    19     5     6    1
    20    42    41    2
    21    41    40    1
    22    85    86    2
    23    85    84    1
    24    39    40    1
    25    77    78    2
    26    77    76    1
    27    72    73    1
    28    72    74    1
    29    60    62   ar
    30    60    61   ar
    31    97    98    2
    32    97    96    1
    33     3     4    2
    34    84    83    1
    35    40    43    1
    36     6     7   ar
    37     6     8   ar
    38    62    64   ar
    39     7     9   ar
    40    75    76    1
    41    87    88    1
    42    89    90    2
    43    89    88    1
    44    76    79    1
    45    82    80    1
    46    79    80    1
    47    95    96    1
    48    61    63   ar
    49    43    44    1
    50    96    99    1
    51    80    81    1
    52    99   100    1
    53     8    10   ar
    54    88    91    1
    55    64    65   ar
    56     9    11   ar
    57    12    13    1
    58    44    45    1
    59    49    47    1
    60    91    92    1
    61    63    65   ar
    62    47    46    2
    63    47    48    1
    64   100   101    1
    65   100   102    1
    66    46    45    1
    67    10    11   ar
    68    65    66    1
    69    13    16    1
    70    13    14    1
    71    92    94    1
    72    92    93    1
    73    30    29    1
    74    30    31    2
    75    17    14   am
    76    17    18    1
    77    28    29    1
    78    14    15    2
    79    29    32    1
    80    34    35    1
    81    34    33    1
    82    35    36    2
    83    19    18    1
    84    19    20    2
    85    18    21    1
    86    36    38    1
    87    36    37    1
    88    21    22    1
    89    32    33    1
    90    22    23   ar
    91    22    24   ar
    92    23    25   ar
    93    24    26   ar
    94    25    27   ar
    95    26    27   ar
