@<TRIPOS>MOLECULE
tmp/3rkoG00.pdb
 114 109 0 0 0
SMALL
GASTEIGER

@<TRIPOS>ATOM
      1  N          2.6890  -11.8190  -47.9890 N.3   165  ALA165     -0.1245
      2  CA         1.7040  -12.8990  -47.9360 C.3   165  ALA165      0.1562
      3  C          1.6720  -13.7280  -49.2240 C.2   165  ALA165      0.2260
      4  O          1.2870  -14.9050  -49.2060 O.2   165  ALA165     -0.2867
      5  CB         0.3270  -12.3750  -47.5970 C.3   165  ALA165      0.0290
      6  N          4.4190  -16.1590  -48.7260 N.3   168  MET168     -0.1230
      7  CA         4.0310  -17.1750  -47.7610 C.3   168  MET168      0.1702
      8  C          3.0430  -18.1780  -48.3500 C.2   168  MET168      0.2592
      9  O          3.1320  -19.3690  -48.0670 O.2   168  MET168     -0.2718
     10  CB         3.4700  -16.5380  -46.4990 C.3   168  MET168      0.0401
     11  CG         3.0130  -17.5520  -45.4800 C.3   168  MET168      0.0596
     12  SD         2.6590  -16.8230  -43.8620 S.3   168  MET168     -0.1393
     13  CE         1.6520  -18.1120  -43.1390 C.3   168  MET168      0.0692
     14  N          2.1100  -17.7090  -49.1730 N.am  169  LYS169     -0.1980
     15  CA         1.2690  -18.6490  -49.9120 C.3   169  LYS169      0.1596
     16  C          2.1850  -19.5850  -50.6960 C.2   169  LYS169      0.2287
     17  O          2.0120  -20.8210  -50.6920 O.2   169  LYS169     -0.2864
     18  CB         0.3150  -17.9260  -50.8630 C.3   169  LYS169      0.0298
     19  CG        -0.8860  -18.7690  -51.2530 C.3   169  LYS169      0.0038
     20  CD        -1.8260  -18.0130  -52.1780 C.3   169  LYS169      0.0206
     21  CE        -3.2240  -18.6150  -52.1640 C.3   169  LYS169      0.1093
     22  NZ        -4.0570  -18.1020  -53.2860 N.3   169  LYS169     -0.1314
     23  N          4.1800  -22.0670  -48.1470 N.3   172  VAL172     -0.1231
     24  CA         3.2360  -23.0560  -47.6210 C.3   172  VAL172      0.1692
     25  C          2.8650  -24.1110  -48.6570 C.2   172  VAL172      0.2591
     26  O          2.9950  -25.3140  -48.4020 O.2   172  VAL172     -0.2718
     27  CB         1.9400  -22.4160  -47.0930 C.3   172  VAL172      0.0266
     28  CG1        0.7750  -23.4090  -47.1860 C.3   172  VAL172      0.0020
     29  CG2        2.1340  -21.9440  -45.6600 C.3   172  VAL172      0.0020
     30  N          2.3960  -23.6670  -49.8220 N.am  173  VAL173     -0.1980
     31  CA         1.9570  -24.6320  -50.8360 C.3   173  VAL173      0.1595
     32  C          3.0910  -25.5290  -51.3510 C.2   173  VAL173      0.2287
     33  O          3.0090  -26.7740  -51.2580 O.2   173  VAL173     -0.2864
     34  CB         1.2230  -23.9570  -52.0050 C.3   173  VAL173      0.0276
     35  CG1        0.7280  -25.0150  -52.9690 C.3   173  VAL173      0.0022
     36  CG2        0.0580  -23.1190  -51.4860 C.3   173  VAL173      0.0022
     37  N          3.6160  -28.1700  -48.7700 N.3   176  VAL176     -0.1245
     38  CA         2.6840  -29.3050  -48.7670 C.3   176  VAL176      0.1561
     39  C          3.0490  -30.2910  -49.8770 C.2   176  VAL176      0.2260
     40  O          3.0960  -31.5320  -49.6800 O.2   176  VAL176     -0.2867
     41  CB         1.2340  -28.8370  -48.9230 C.3   176  VAL176      0.0252
     42  CG1        0.2710  -30.0100  -48.7800 C.3   176  VAL176      0.0019
     43  CG2        0.9340  -27.7800  -47.8870 C.3   176  VAL176      0.0019
     44  N          4.1590  -34.4010  -49.7850 N.3   180  PHE180     -0.1241
     45  CA         3.8370  -35.5350  -50.6520 C.3   180  PHE180      0.1605
     46  C          5.1120  -36.1850  -51.2140 C.2   180  PHE180      0.2264
     47  O          5.2840  -37.4150  -51.1380 O.2   180  PHE180     -0.2867
     48  CB         2.8640  -35.1340  -51.7590 C.3   180  PHE180      0.0534
     49  CG         1.4680  -34.8800  -51.2680 C.ar  180  PHE180     -0.0203
     50  CD1        0.9640  -33.5940  -51.2040 C.ar  180  PHE180     -0.0042
     51  CD2        0.6670  -35.9340  -50.8550 C.ar  180  PHE180     -0.0042
     52  CE1       -0.3280  -33.3620  -50.7480 C.ar  180  PHE180     -0.0003
     53  CE2       -0.6230  -35.7130  -50.3930 C.ar  180  PHE180     -0.0003
     54  CZ        -1.1230  -34.4260  -50.3420 C.ar  180  PHE180     -0.0000
     55  N         -3.8340  -29.9040  -58.0190 N.3   234  PRO234     -0.2102
     56  CA        -4.4420  -28.7010  -57.4490 C.3   234  PRO234      0.1504
     57  C         -3.5320  -27.9480  -56.4790 C.2   234  PRO234      0.2575
     58  O         -3.9960  -27.5050  -55.4290 O.2   234  PRO234     -0.2718
     59  CB        -5.6280  -29.2760  -56.6910 C.3   234  PRO234      0.0282
     60  CG        -5.0850  -30.5570  -56.1470 C.3   234  PRO234      0.0208
     61  CD        -4.1060  -31.0820  -57.1780 C.3   234  PRO234      0.0893
     62  N         -2.2600  -27.7990  -56.8270 N.am  235  LEU235     -0.1980
     63  CA        -1.3640  -26.9540  -56.0460 C.3   235  LEU235      0.1596
     64  C         -0.9600  -25.7250  -56.8540 C.2   235  LEU235      0.2287
     65  O          0.1230  -25.1640  -56.6630 O.2   235  LEU235     -0.2864
     66  CB        -0.1270  -27.7370  -55.5930 C.3   235  LEU235      0.0297
     67  CG        -0.3410  -28.9490  -54.6780 C.3   235  LEU235      0.0022
     68  CD1        0.9790  -29.4570  -54.1240 C.3   235  LEU235      0.0001
     69  CD2       -1.2830  -28.6150  -53.5380 C.3   235  LEU235      0.0001
     70  N         -2.6480  -22.7890  -57.0260 N.3   237  THR237     -0.1218
     71  CA        -3.1410  -21.5240  -56.4870 C.3   237  THR237      0.1862
     72  C         -2.0320  -20.5540  -56.1330 C.2   237  THR237      0.2287
     73  O         -2.2700  -19.3610  -55.9820 O.2   237  THR237     -0.2866
     74  CB        -3.9960  -21.7460  -55.2320 C.3   237  THR237      0.1770
     75  OG1       -3.1410  -22.0110  -54.1160 O.3   237  THR237     -0.2211
     76  CG2       -4.9490  -22.9180  -55.4340 C.3   237  THR237      0.0375
     77  N         -9.9390  -23.3020  -50.9590 N.3   545  TYR545     -0.1227
     78  CA        -8.8460  -23.5430  -50.0240 C.3   545  TYR545      0.1736
     79  C         -8.8990  -22.6220  -48.8090 C.2   545  TYR545      0.2595
     80  O         -8.8610  -23.0960  -47.6700 O.2   545  TYR545     -0.2718
     81  CB        -7.4950  -23.4390  -50.7340 C.3   545  TYR545      0.0548
     82  CG        -7.3000  -24.5120  -51.7740 C.ar  545  TYR545     -0.0200
     83  CD1       -8.0290  -25.6950  -51.7200 C.ar  545  TYR545     -0.0009
     84  CD2       -6.3980  -24.3460  -52.8080 C.ar  545  TYR545     -0.0009
     85  CE1       -7.8630  -26.6820  -52.6680 C.ar  545  TYR545      0.0417
     86  CE2       -6.2250  -25.3250  -53.7620 C.ar  545  TYR545      0.0417
     87  CZ        -6.9630  -26.4960  -53.6870 C.ar  545  TYR545      0.1957
     88  OH        -6.8150  -27.4980  -54.6220 O.3   545  TYR545     -0.2866
     89  N         -8.9880  -21.3170  -49.0400 N.am  546  ASP546     -0.1974
     90  CA        -9.0900  -20.3790  -47.9240 C.3   546  ASP546      0.1709
     91  C        -10.3020  -20.6830  -47.0410 C.2   546  ASP546      0.2293
     92  O        -10.3280  -20.3060  -45.8730 O.2   546  ASP546     -0.2864
     93  CB        -9.1400  -18.9260  -48.4120 C.3   546  ASP546      0.1436
     94  CG        -7.7540  -18.3010  -48.5590 C.2   546  ASP546      0.3671
     95  OD1       -6.9020  -18.8920  -49.2540 O.co2 546  ASP546     -0.2456
     96  OD2       -7.5120  -17.2210  -47.9760 O.co2 546  ASP546     -0.2456
     97  N         -9.4180  -24.7480  -45.4230 N.3   549  PHE549     -0.1227
     98  CA        -8.1390  -24.9100  -44.7320 C.3   549  PHE549      0.1736
     99  C         -7.7840  -23.6980  -43.8700 C.2   549  PHE549      0.2595
    100  O         -7.8390  -23.7550  -42.6410 O.2   549  PHE549     -0.2718
    101  CB        -7.0000  -25.1700  -45.7270 C.3   549  PHE549      0.0547
    102  CG        -7.1620  -26.4270  -46.5230 C.ar  549  PHE549     -0.0202
    103  CD1       -6.5750  -26.5510  -47.7710 C.ar  549  PHE549     -0.0042
    104  CD2       -7.9010  -27.4870  -46.0240 C.ar  549  PHE549     -0.0042
    105  CE1       -6.7280  -27.7080  -48.5090 C.ar  549  PHE549     -0.0003
    106  CE2       -8.0570  -28.6520  -46.7560 C.ar  549  PHE549     -0.0003
    107  CZ        -7.4710  -28.7630  -48.0040 C.ar  549  PHE549     -0.0000
    108  N         -7.4040  -22.6060  -44.5260 N.am  550  VAL550     -0.1980
    109  CA        -6.9220  -21.4170  -43.8320 C.3   550  VAL550      0.1595
    110  C         -7.8890  -20.9410  -42.7440 C.2   550  VAL550      0.2287
    111  O         -7.4960  -20.7500  -41.5860 O.2   550  VAL550     -0.2864
    112  CB        -6.6350  -20.2750  -44.8270 C.3   550  VAL550      0.0276
    113  CG1       -6.1300  -19.0440  -44.0910 C.3   550  VAL550      0.0022
    114  CG2       -5.6260  -20.7380  -45.8820 C.3   550  VAL550      0.0022
@<TRIPOS>BOND
     1    55    56    1
     2    55    61    1
     3    56    59    1
     4    56    57    1
     5    61    60    1
     6    70    71    1
     7    64    65    2
     8    64    63    1
     9    62    57   am
    10    62    63    1
    11    59    60    1
    12    71    72    1
    13    71    74    1
    14    57    58    2
    15    72    73    2
    16    63    66    1
    17    66    67    1
    18    76    74    1
    19    74    75    1
    20    67    68    1
    21    67    69    1
    22    88    87    1
    23    86    87   ar
    24    86    84   ar
    25    87    85   ar
    26    22    21    1
    27    35    34    1
    28    84    82   ar
    29    85    83   ar
    30    20    21    1
    31    20    19    1
    32    34    36    1
    33    34    31    1
    34    82    83   ar
    35    82    81    1
    36    48    49    1
    37    48    45    1
    38    32    33    2
    39    32    31    1
    40    49    50   ar
    41    49    51   ar
    42    19    18    1
    43    46    47    2
    44    46    45    1
    45    50    52   ar
    46    77    78    1
    47    18    15    1
    48    51    53   ar
    49    31    30    1
    50    52    54   ar
    51    81    78    1
    52    16    17    2
    53    16    15    1
    54    45    44    1
    55    53    54   ar
    56    78    79    1
    57    15    14    1
    58    39    40    2
    59    39    38    1
    60    30    25   am
    61    95    94   ar
    62     3     4    2
    63     3     2    1
    64    14     8   am
    65    89    79   am
    66    89    90    1
    67    41    42    1
    68    41    38    1
    69    41    43    1
    70    79    80    2
    71    37    38    1
    72     6     7    1
    73    25    26    2
    74    25    24    1
    75    94    93    1
    76    94    96   ar
    77   105   107   ar
    78   105   103   ar
    79    93    90    1
    80     8     9    2
    81     8     7    1
    82    23    24    1
    83   107   106   ar
    84     1     2    1
    85     2     5    1
    86    90    91    1
    87   103   102   ar
    88     7    10    1
    89    24    27    1
    90    28    27    1
    91    27    29    1
    92    91    92    2
    93   106   104   ar
    94   102   104   ar
    95   102   101    1
    96    10    11    1
    97   114   112    1
    98   101    98    1
    99    11    12    1
   100    97    98    1
   101   112   113    1
   102   112   109    1
   103    98    99    1
   104   108    99   am
   105   108   109    1
   106    99   100    2
   107    12    13    1
   108   109   110    1
   109   110   111    2
