@<TRIPOS>MOLECULE
tmp/3rkoB00.pdb
 101 100 0 0 0
SMALL
GASTEIGER

@<TRIPOS>ATOM
      1  N        -26.1250   42.7440   41.9250 N.3   378  TRP378     -0.1241
      2  CA       -26.8840   41.8030   42.7370 C.3   378  TRP378      0.1605
      3  C        -28.2970   42.2910   43.0680 C.2   378  TRP378      0.2264
      4  O        -29.2470   41.5020   43.0750 O.2   378  TRP378     -0.2867
      5  CB       -26.1250   41.5150   44.0340 C.3   378  TRP378      0.0550
      6  CG       -26.7000   40.3840   44.8290 C.ar  378  TRP378      0.0003
      7  CD1      -27.9770   40.2720   45.3050 C.ar  378  TRP378      0.0946
      8  CD2      -26.0100   39.2090   45.2560 C.ar  378  TRP378      0.0152
      9  NE1      -28.1260   39.0930   45.9940 N.ar  378  TRP378     -0.2442
     10  CE2      -26.9320   38.4230   45.9800 C.ar  378  TRP378      0.0810
     11  CE3      -24.7040   38.7410   45.0900 C.ar  378  TRP378      0.0012
     12  CZ2      -26.5900   37.2030   46.5340 C.ar  378  TRP378      0.0191
     13  CZ3      -24.3670   37.5360   45.6400 C.ar  378  TRP378      0.0001
     14  CH2      -25.3060   36.7750   46.3560 C.ar  378  TRP378      0.0015
     15  N        -32.7140   38.5720   39.9250 N.3   382  LYS382     -0.1231
     16  CA       -33.0470   37.6180   40.9640 C.3   382  LYS382      0.1693
     17  C        -31.9410   36.5790   41.1210 C.2   382  LYS382      0.2592
     18  O        -31.2040   36.5980   42.1100 O.2   382  LYS382     -0.2718
     19  CB       -34.4080   36.9670   40.6810 C.3   382  LYS382      0.0285
     20  CG       -35.5880   37.9400   40.8200 C.3   382  LYS382      0.0035
     21  CD       -36.8590   37.4710   40.1010 C.3   382  LYS382      0.0206
     22  CE       -37.7840   36.6650   41.0090 C.3   382  LYS382      0.1093
     23  NZ       -39.0760   36.3350   40.3370 N.3   382  LYS382     -0.1314
     24  N        -31.7910   35.6980   40.1370 N.am  383  TRP383     -0.1976
     25  CA       -30.9060   34.5480   40.3080 C.3   383  TRP383      0.1640
     26  C        -29.4880   34.7410   39.7650 C.2   383  TRP383      0.2290
     27  O        -28.5030   34.3530   40.4040 O.2   383  TRP383     -0.2864
     28  CB       -31.5520   33.2880   39.7260 C.3   383  TRP383      0.0576
     29  CG       -32.6940   32.7520   40.5550 C.ar  383  TRP383      0.0006
     30  CD1      -32.6020   31.9540   41.6580 C.ar  383  TRP383      0.0946
     31  CD2      -34.0940   32.9750   40.3390 C.ar  383  TRP383      0.0152
     32  NE1      -33.8580   31.6650   42.1440 N.ar  383  TRP383     -0.2442
     33  CE2      -34.7900   32.2790   41.3500 C.ar  383  TRP383      0.0810
     34  CE3      -34.8250   33.6890   39.3860 C.ar  383  TRP383      0.0012
     35  CZ2      -36.1840   32.2810   41.4350 C.ar  383  TRP383      0.0191
     36  CZ3      -36.2080   33.6900   39.4720 C.ar  383  TRP383      0.0001
     37  CH2      -36.8720   32.9920   40.4890 C.ar  383  TRP383      0.0015
     38  N        -26.3840   35.2140   41.9980 N.3   386  ALA386     -0.1245
     39  CA       -26.0240   34.1090   42.8940 C.3   386  ALA386      0.1562
     40  C        -25.6850   32.7790   42.2020 C.2   386  ALA386      0.2260
     41  O        -24.9330   31.9520   42.7340 O.2   386  ALA386     -0.2867
     42  CB       -27.1190   33.8990   43.9340 C.3   386  ALA386      0.0290
     43  N        -22.4150   33.4850   41.0600 N.3   389  LEU389     -0.1231
     44  CA       -21.5990   33.2750   42.2500 C.3   389  LEU389      0.1693
     45  C        -21.2390   31.8000   42.4010 C.2   389  LEU389      0.2592
     46  O        -20.0760   31.4730   42.5470 O.2   389  LEU389     -0.2718
     47  CB       -22.3100   33.7670   43.5130 C.3   389  LEU389      0.0284
     48  CG       -21.7480   33.1560   44.8060 C.3   389  LEU389      0.0019
     49  CD1      -20.4010   33.7520   45.1350 C.3   389  LEU389      0.0001
     50  CD2      -22.7010   33.3130   45.9940 C.3   389  LEU389      0.0001
     51  N        -22.2250   30.9090   42.3600 N.am  390  PHE390     -0.1976
     52  CA       -21.9310   29.4900   42.5550 C.3   390  PHE390      0.1639
     53  C        -20.9090   28.9810   41.5530 C.2   390  PHE390      0.2290
     54  O        -19.9560   28.2950   41.9140 O.2   390  PHE390     -0.2864
     55  CB       -23.1880   28.6250   42.4480 C.3   390  PHE390      0.0560
     56  CG       -22.8980   27.2160   42.0040 C.ar  390  PHE390     -0.0200
     57  CD1      -22.2350   26.3300   42.8500 C.ar  390  PHE390     -0.0042
     58  CD2      -23.2470   26.7880   40.7350 C.ar  390  PHE390     -0.0042
     59  CE1      -21.9450   25.0310   42.4410 C.ar  390  PHE390     -0.0003
     60  CE2      -22.9630   25.4940   40.3170 C.ar  390  PHE390     -0.0003
     61  CZ       -22.3110   24.6120   41.1740 C.ar  390  PHE390     -0.0000
     62  N        -17.5080   30.2110   42.3440 N.3   393  VAL393     -0.1245
     63  CA       -17.0220   29.3730   43.4340 C.3   393  VAL393      0.1561
     64  C        -16.3970   28.1160   42.8490 C.2   393  VAL393      0.2260
     65  O        -15.2050   27.8650   43.0180 O.2   393  VAL393     -0.2867
     66  CB       -18.1760   28.9630   44.3880 C.3   393  VAL393      0.0252
     67  CG1      -17.6990   27.9610   45.4300 C.3   393  VAL393      0.0019
     68  CG2      -18.7720   30.1820   45.0630 C.3   393  VAL393      0.0019
     69  N        -13.1130   24.4790   44.4850 N.3   398  MET398     -0.1231
     70  CA       -13.8090   24.3940   45.7620 C.3   398  MET398      0.1687
     71  C        -14.4680   23.0360   45.9360 C.2   398  MET398      0.2434
     72  O        -15.3060   22.6460   45.1290 O.2   398  MET398     -0.2733
     73  CB       -14.8690   25.4870   45.8600 C.3   398  MET398      0.0400
     74  CG       -15.7590   25.3910   47.0870 C.3   398  MET398      0.0596
     75  SD       -14.9400   26.0240   48.5620 S.3   398  MET398     -0.1393
     76  CE       -16.1360   25.5920   49.8230 C.3   398  MET398      0.0692
     77  N        -14.0780   22.3110   46.9920 N.am  399  PRO399     -0.2718
     78  CA       -14.7680   21.0830   47.3950 C.3   399  PRO399      0.1535
     79  C        -16.2730   21.2900   47.4390 C.2   399  PRO399      0.2599
     80  O        -16.7300   22.4070   47.7030 O.2   399  PRO399     -0.2715
     81  CB       -14.2290   20.8340   48.8020 C.3   399  PRO399      0.0310
     82  CG       -12.8340   21.3880   48.7610 C.3   399  PRO399      0.0237
     83  CD       -12.8600   22.5520   47.7890 C.3   399  PRO399      0.0939
     84  N        -17.0260   20.2230   47.1870 N.am  400  GLY400     -0.1941
     85  CA       -18.4650   20.3120   47.0330 C.3   400  GLY400      0.2014
     86  C        -18.8290   20.3570   45.5620 C.2   400  GLY400      0.2639
     87  O        -19.9970   20.2090   45.1900 O.2   400  GLY400     -0.2714
     88  N        -17.8140   20.5560   44.7240 N.am  401  THR401     -0.1950
     89  CA       -17.9780   20.5950   43.2740 C.3   401  THR401      0.1897
     90  C        -16.9910   19.6480   42.6030 C.2   401  THR401      0.2313
     91  O        -15.9980   19.2410   43.2100 O.2   401  THR401     -0.2863
     92  CB       -17.7300   22.0050   42.7180 C.3   401  THR401      0.1794
     93  OG1      -16.3490   22.3520   42.8930 O.3   401  THR401     -0.2208
     94  CG2      -18.6030   23.0210   43.4320 C.3   401  THR401      0.0378
     95  N        -22.7000   19.5970   41.5960 N.3   476  VAL476     -0.1245
     96  CA       -22.7820   19.2200   43.0020 C.3   476  VAL476      0.1561
     97  C        -22.6560   17.7070   43.1770 C.2   476  VAL476      0.2260
     98  O        -21.7970   17.2360   43.9140 O.2   476  VAL476     -0.2867
     99  CB       -24.0870   19.7370   43.6490 C.3   476  VAL476      0.0252
    100  CG1      -24.6050   18.7710   44.7130 C.3   476  VAL476      0.0019
    101  CG2      -23.8710   21.1320   44.2290 C.3   476  VAL476      0.0019
@<TRIPOS>BOND
     1    34    36   ar
     2    34    31   ar
     3    36    37   ar
     4    28    25    1
     5    28    29    1
     6    26    25    1
     7    26    27    2
     8    15    16    1
     9    21    20    1
    10    21    22    1
    11    24    25    1
    12    24    17   am
    13    60    58   ar
    14    60    61   ar
    15    23    22    1
    16    31    29   ar
    17    31    33   ar
    18    37    35   ar
    19    29    30   ar
    20    19    20    1
    21    19    16    1
    22    58    56   ar
    23    16    17    1
    24    43    44    1
    25    17    18    2
    26    61    59   ar
    27    33    35   ar
    28    33    32   ar
    29    53    54    2
    30    53    52    1
    31    95    96    1
    32    30    32   ar
    33     1     2    1
    34    38    39    1
    35    56    55    1
    36    56    57   ar
    37    40    41    2
    38    40    39    1
    39    44    45    1
    40    44    47    1
    41    62    63    1
    42    51    45   am
    43    51    52    1
    44    45    46    2
    45    59    57   ar
    46    55    52    1
    47    90    91    2
    48    90    89    1
    49    92    93    1
    50    92    89    1
    51    92    94    1
    52     2     3    1
    53     2     5    1
    54    64    65    2
    55    64    63    1
    56    39    42    1
    57    96    97    1
    58    96    99    1
    59     3     4    2
    60    97    98    2
    61    89    88    1
    62    63    66    1
    63    47    48    1
    64    99   101    1
    65    99   100    1
    66     5     6    1
    67    66    68    1
    68    66    67    1
    69    69    70    1
    70    88    86   am
    71    48    49    1
    72    48    50    1
    73     6     8   ar
    74     6     7   ar
    75    11     8   ar
    76    11    13   ar
    77    72    71    2
    78    87    86    2
    79     8    10   ar
    80     7     9   ar
    81    86    85    1
    82    13    14   ar
    83    70    73    1
    84    70    71    1
    85    73    74    1
    86    71    77   am
    87    10     9   ar
    88    10    12   ar
    89    14    12   ar
    90    77    78    1
    91    77    83    1
    92    85    84    1
    93    74    75    1
    94    84    79   am
    95    78    79    1
    96    78    81    1
    97    79    80    2
    98    83    82    1
    99    75    76    1
   100    82    81    1
