@<TRIPOS>MOLECULE
tmp/3rkoC00.pdb
 109 102 0 0 0
SMALL
GASTEIGER

@<TRIPOS>ATOM
      1  N        -27.2180   30.1430  -32.4890 N.3    35  PHE35      -0.1241
      2  CA       -27.7680   28.8840  -31.9900 C.3    35  PHE35       0.1605
      3  C        -27.2550   27.6770  -32.7680 C.2    35  PHE35       0.2264
      4  O        -26.7410   26.7230  -32.1770 O.2    35  PHE35      -0.2867
      5  CB       -29.2920   28.9190  -32.0540 C.3    35  PHE35       0.0534
      6  CG       -29.9430   27.5750  -31.8860 C.ar   35  PHE35      -0.0203
      7  CD1      -30.4020   27.1630  -30.6480 C.ar   35  PHE35      -0.0042
      8  CD2      -30.1070   26.7270  -32.9720 C.ar   35  PHE35      -0.0042
      9  CE1      -31.0110   25.9220  -30.4940 C.ar   35  PHE35      -0.0003
     10  CE2      -30.7080   25.4840  -32.8280 C.ar   35  PHE35      -0.0003
     11  CZ       -31.1630   25.0810  -31.5870 C.ar   35  PHE35      -0.0000
     12  N        -23.4010   26.9950  -32.4840 N.3    38  ALA38      -0.1231
     13  CA       -23.1520   26.4450  -31.1560 C.3    38  ALA38       0.1694
     14  C        -23.5750   24.9750  -31.0750 C.2    38  ALA38       0.2592
     15  O        -22.7290   24.0800  -30.9630 O.2    38  ALA38      -0.2718
     16  CB       -23.8650   27.2650  -30.0940 C.3    38  ALA38       0.0304
     17  N        -24.8840   24.7350  -31.1410 N.am   39  THR39      -0.1953
     18  CA       -25.4340   23.3820  -31.0210 C.3    39  THR39       0.1897
     19  C        -24.6530   22.3900  -31.8790 C.2    39  THR39       0.2313
     20  O        -24.5260   21.2000  -31.5500 O.2    39  THR39      -0.2863
     21  CB       -26.9140   23.3380  -31.4100 C.3    39  THR39       0.1794
     22  OG1      -27.5990   24.4430  -30.8090 O.3    39  THR39      -0.2208
     23  CG2      -27.5450   22.0320  -30.9350 C.3    39  THR39       0.0378
     24  N        -21.2660   21.7140  -30.0170 N.3    42  VAL42      -0.1231
     25  CA       -21.4960   20.8300  -28.8640 C.3    42  VAL42       0.1692
     26  C        -21.8360   19.3890  -29.2580 C.2    42  VAL42       0.2591
     27  O        -21.2930   18.4290  -28.6900 O.2    42  VAL42      -0.2718
     28  CB       -22.5740   21.3780  -27.9020 C.3    42  VAL42       0.0266
     29  CG1      -22.0440   22.5900  -27.1530 C.3    42  VAL42       0.0020
     30  CG2      -23.8510   21.7130  -28.6560 C.3    42  VAL42       0.0020
     31  N        -22.7340   19.2360  -30.2230 N.am   43  ILE43      -0.1980
     32  CA       -22.9440   17.9310  -30.8220 C.3    43  ILE43       0.1595
     33  C        -21.5810   17.3110  -31.1340 C.2    43  ILE43       0.2287
     34  O        -21.3300   16.1410  -30.8170 O.2    43  ILE43      -0.2864
     35  CB       -23.7950   18.0390  -32.1050 C.3    43  ILE43       0.0276
     36  CG1      -25.2770   18.2160  -31.7550 C.3    43  ILE43       0.0022
     37  CG2      -23.6160   16.8100  -32.9720 C.3    43  ILE43       0.0022
     38  CD1      -26.1690   18.4290  -32.9620 C.3    43  ILE43       0.0001
     39  N        -19.3840   16.3820  -27.7400 N.3    46  ASN46      -0.1225
     40  CA       -20.0340   15.1800  -27.2100 C.3    46  ASN46       0.1785
     41  C        -19.6360   13.9650  -28.0400 C.2    46  ASN46       0.2597
     42  O        -19.2010   12.9200  -27.5130 O.2    46  ASN46      -0.2718
     43  CB       -21.5570   15.3350  -27.2100 C.3    46  ASN46       0.1169
     44  CG       -22.0990   15.8260  -25.8800 C.2    46  ASN46       0.2627
     45  OD1      -21.5970   15.4640  -24.8170 O.2    46  ASN46      -0.2716
     46  ND2      -23.1320   16.6510  -25.9340 N.am   46  ASN46      -0.0877
     47  N        -19.7860   14.1240  -29.3520 N.am   47  ALA47      -0.1979
     48  CA       -19.3180   13.1270  -30.2940 C.3    47  ALA47       0.1597
     49  C        -17.9110   12.6840  -29.9170 C.2    47  ALA47       0.2287
     50  O        -17.7060   11.5230  -29.5810 O.2    47  ALA47      -0.2864
     51  CB       -19.3530   13.6720  -31.7030 C.3    47  ALA47       0.0319
     52  N        -17.8890   10.3100  -26.7210 N.3    50  VAL50      -0.1245
     53  CA       -18.3290    8.9310  -26.8860 C.3    50  VAL50       0.1561
     54  C        -17.2830    8.2140  -27.7450 C.2    50  VAL50       0.2260
     55  O        -16.9520    7.0310  -27.5410 O.2    50  VAL50      -0.2867
     56  CB       -19.7140    8.8570  -27.5080 C.3    50  VAL50       0.0252
     57  CG1      -20.2700    7.4610  -27.3410 C.3    50  VAL50       0.0019
     58  CG2      -20.6280    9.8630  -26.8250 C.3    50  VAL50       0.0019
     59  N        -18.2050   26.4580  -23.6960 N.3    88  CYS88      -0.1221
     60  CA       -19.2260   26.8400  -24.6700 C.3    88  CYS88       0.1808
     61  C        -20.5890   27.0870  -24.0210 C.2    88  CYS88       0.2601
     62  O        -21.1890   28.1640  -24.1960 O.2    88  CYS88      -0.2717
     63  CB       -19.3280   25.7870  -25.7810 C.3    88  CYS88       0.0970
     64  SG       -17.7990   25.5970  -26.7650 S.3    88  CYS88      -0.0800
     65  N        -21.0730   26.1010  -23.2640 N.am   89  THR89      -0.1953
     66  CA       -22.3690   26.2300  -22.5910 C.3    89  THR89       0.1897
     67  C        -22.4010   27.4590  -21.6780 C.2    89  THR89       0.2313
     68  O        -23.4690   27.9020  -21.2550 O.2    89  THR89      -0.2863
     69  CB       -22.7250   24.9730  -21.7750 C.3    89  THR89       0.1794
     70  OG1      -21.9970   24.9770  -20.5420 O.3    89  THR89      -0.2208
     71  CG2      -22.3860   23.7060  -22.5600 C.3    89  THR89       0.0378
     72  N        -22.2800   30.9600  -24.1530 N.3    92  TYR92      -0.1241
     73  CA       -23.4890   31.2750  -24.9020 C.3    92  TYR92       0.1605
     74  C        -24.1840   32.5400  -24.4120 C.2    92  TYR92       0.2264
     75  O        -24.0970   33.5520  -25.0750 O.2    92  TYR92      -0.2867
     76  CB       -24.4750   30.1240  -25.0450 C.3    92  TYR92       0.0534
     77  CG       -25.4620   30.4360  -26.1400 C.ar   92  TYR92      -0.0201
     78  CD1      -26.6390   31.1160  -25.8670 C.ar   92  TYR92      -0.0009
     79  CD2      -25.1830   30.1110  -27.4600 C.ar   92  TYR92      -0.0009
     80  CE1      -27.5300   31.4270  -26.8720 C.ar   92  TYR92       0.0417
     81  CE2      -26.0680   30.4190  -28.4710 C.ar   92  TYR92       0.0417
     82  CZ       -27.2410   31.0730  -28.1710 C.ar   92  TYR92       0.1957
     83  OH       -28.1300   31.3790  -29.1720 O.3    92  TYR92      -0.2866
     84  N        -16.7770   30.0650  -30.8860 N.3   106  TYR106     -0.1241
     85  CA       -16.8440   28.6020  -30.8730 C.3   106  TYR106      0.1605
     86  C        -15.8270   27.9310  -31.8130 C.2   106  TYR106      0.2264
     87  O        -15.4050   26.7960  -31.5820 O.2   106  TYR106     -0.2867
     88  CB       -18.2560   28.1470  -31.2100 C.3   106  TYR106      0.0534
     89  CG       -19.3030   28.8060  -30.3530 C.ar  106  TYR106     -0.0201
     90  CD1      -19.5830   30.1580  -30.4870 C.ar  106  TYR106     -0.0009
     91  CD2      -20.0220   28.0750  -29.4180 C.ar  106  TYR106     -0.0009
     92  CE1      -20.5480   30.7670  -29.7080 C.ar  106  TYR106      0.0417
     93  CE2      -20.9900   28.6790  -28.6290 C.ar  106  TYR106      0.0417
     94  CZ       -21.2480   30.0220  -28.7810 C.ar  106  TYR106      0.1957
     95  OH       -22.2050   30.6270  -28.0050 O.3   106  TYR106     -0.2866
     96  N        -30.7220   29.1750  -22.1580 N.3   437  GLN437     -0.1245
     97  CA       -29.3070   29.2200  -22.5050 C.3   437  GLN437      0.1566
     98  C        -28.4970   29.4420  -21.2370 C.2   437  GLN437      0.2260
     99  O        -27.3560   29.0030  -21.1280 O.2   437  GLN437     -0.2867
    100  CB       -29.0420   30.3600  -23.4860 C.3   437  GLN437      0.0367
    101  CG       -29.7990   30.2350  -24.7890 C.3   437  GLN437      0.0905
    102  CD       -29.1880   29.2000  -25.6940 C.2   437  GLN437      0.2608
    103  OE1      -28.1820   28.5790  -25.3490 O.2   437  GLN437     -0.2717
    104  NE2      -29.7800   29.0140  -26.8670 N.am  437  GLN437     -0.0878
    105  N        -28.1940   26.1620  -19.0620 N.3   440  ALA440     -0.1245
    106  CA       -27.0790   25.2850  -19.3960 C.3   440  ALA440      0.1562
    107  C        -25.9550   25.5190  -18.4010 C.2   440  ALA440      0.2260
    108  O        -25.6190   24.6340  -17.6190 O.2   440  ALA440     -0.2867
    109  CB       -26.5930   25.5330  -20.8180 C.3   440  ALA440      0.0290
@<TRIPOS>BOND
     1    37    35    1
     2     8    10   ar
     3     8     6   ar
     4    38    36    1
     5    10    11   ar
     6     3     4    2
     7     3     2    1
     8     1     2    1
     9    12    13    1
    10    35    36    1
    11    35    32    1
    12     5     2    1
    13     5     6    1
    14     6     7   ar
    15    19    20    2
    16    19    18    1
    17    86    87    2
    18    86    85    1
    19    51    48    1
    20    11     9   ar
    21    21    18    1
    22    21    23    1
    23    21    22    1
    24    88    85    1
    25    88    89    1
    26    13    14    1
    27    13    16    1
    28    17    14   am
    29    17    18    1
    30    33    32    1
    31    33    34    2
    32    14    15    2
    33    84    85    1
    34    32    31    1
    35     7     9   ar
    36    90    89   ar
    37    90    92   ar
    38    89    91   ar
    39    48    49    1
    40    48    47    1
    41    31    26   am
    42    24    25    1
    43    49    50    2
    44    92    94   ar
    45    91    93   ar
    46    47    41   am
    47    26    25    1
    48    26    27    2
    49    83    82    1
    50    25    28    1
    51    94    93   ar
    52    94    95    1
    53    30    28    1
    54    81    82   ar
    55    81    79   ar
    56    82    80   ar
    57    41    42    2
    58    41    40    1
    59    28    29    1
    60    54    55    2
    61    54    53    1
    62    39    40    1
    63    56    57    1
    64    56    53    1
    65    56    58    1
    66    79    77   ar
    67    43    40    1
    68    43    44    1
    69    53    52    1
    70    80    78   ar
    71   104   102   am
    72    64    63    1
    73    77    78   ar
    74    77    76    1
    75    46    44   am
    76    44    45    2
    77    63    60    1
    78   102   103    2
    79   102   101    1
    80    75    74    2
    81    76    73    1
    82    73    74    1
    83    73    72    1
    84   101   100    1
    85    60    61    1
    86    60    59    1
    87    62    61    2
    88    61    65   am
    89   100    97    1
    90    65    66    1
    91    66    69    1
    92    66    67    1
    93    71    69    1
    94    97    96    1
    95    97    98    1
    96    69    70    1
    97    67    68    2
    98    98    99    2
    99   109   106    1
   100   106   105    1
   101   106   107    1
   102   107   108    2
