@<TRIPOS>MOLECULE
tmp/3rkoG02.pdb
 121 115 0 0 0
SMALL
GASTEIGER

@<TRIPOS>ATOM
      1  N         30.1810  -34.5510  -74.9480 N.3    53  PHE53      -0.1241
      2  CA        29.9150  -34.9750  -76.3200 C.3    53  PHE53       0.1605
      3  C         31.1590  -35.6270  -76.9180 C.2    53  PHE53       0.2264
      4  O         31.0940  -36.7250  -77.4780 O.2    53  PHE53      -0.2867
      5  CB        29.4720  -33.7860  -77.1780 C.3    53  PHE53       0.0534
      6  CG        28.0180  -33.4300  -77.0250 C.ar   53  PHE53      -0.0203
      7  CD1       27.0650  -34.4160  -76.8230 C.ar   53  PHE53      -0.0042
      8  CD2       27.6050  -32.1090  -77.0880 C.ar   53  PHE53      -0.0042
      9  CE1       25.7280  -34.0900  -76.6850 C.ar   53  PHE53      -0.0003
     10  CE2       26.2720  -31.7780  -76.9520 C.ar   53  PHE53      -0.0003
     11  CZ        25.3320  -32.7700  -76.7490 C.ar   53  PHE53      -0.0000
     12  N         22.3490  -32.6870  -68.5780 N.3    86  LEU86      -0.1231
     13  CA        23.0330  -31.6520  -69.3440 C.3    86  LEU86       0.1693
     14  C         22.0500  -30.6460  -69.9490 C.2    86  LEU86       0.2592
     15  O         22.3650  -29.4620  -70.0860 O.2    86  LEU86      -0.2718
     16  CB        23.9180  -32.2670  -70.4260 C.3    86  LEU86       0.0284
     17  CG        24.8240  -31.2540  -71.1290 C.3    86  LEU86       0.0019
     18  CD1       25.5690  -30.3980  -70.1060 C.3    86  LEU86       0.0001
     19  CD2       25.7950  -31.9450  -72.0820 C.3    86  LEU86       0.0001
     20  N         20.8600  -31.1170  -70.3110 N.am   87  THR87      -0.1953
     21  CA        19.8020  -30.2180  -70.7610 C.3    87  THR87       0.1897
     22  C         19.3830  -29.2820  -69.6290 C.2    87  THR87       0.2313
     23  O         19.4960  -28.0590  -69.7450 O.2    87  THR87      -0.2863
     24  CB        18.5670  -30.9850  -71.2700 C.3    87  THR87       0.1794
     25  OG1       18.8860  -31.6460  -72.5000 O.3    87  THR87      -0.2208
     26  CG2       17.4040  -30.0260  -71.5010 C.3    87  THR87       0.0378
     27  N         22.3900  -26.9220  -68.7100 N.3    90  SER90      -0.1202
     28  CA        22.6420  -25.9370  -69.7460 C.3    90  SER90       0.2020
     29  C         21.5830  -24.8460  -69.7000 C.2    90  SER90       0.2618
     30  O         21.9020  -23.6560  -69.6360 O.2    90  SER90      -0.2717
     31  CB        22.6400  -26.5950  -71.1210 C.3    90  SER90       0.2103
     32  OG        23.1270  -25.7010  -72.1120 O.3    90  SER90      -0.2182
     33  N         20.3210  -25.2620  -69.7530 N.am   91  VAL91      -0.1979
     34  CA        19.2030  -24.3410  -69.6050 C.3    91  VAL91       0.1595
     35  C         19.3770  -23.4040  -68.4100 C.2    91  VAL91       0.2287
     36  O         19.2740  -22.1800  -68.5460 O.2    91  VAL91      -0.2864
     37  CB        17.8830  -25.1070  -69.4380 C.3    91  VAL91       0.0276
     38  CG1       16.7740  -24.1700  -68.9610 C.3    91  VAL91       0.0022
     39  CG2       17.5120  -25.7980  -70.7400 C.3    91  VAL91       0.0022
     40  N         22.4300  -20.9760  -68.5840 N.3    94  GLY94      -0.1210
     41  CA        22.2630  -20.0930  -69.7250 C.3    94  GLY94       0.1956
     42  C         21.1790  -19.0580  -69.4980 C.2    94  GLY94       0.2611
     43  O         21.4500  -17.8600  -69.3000 O.2    94  GLY94      -0.2717
     44  N         19.9370  -19.5230  -69.5350 N.am   95  VAL95      -0.1979
     45  CA        18.7950  -18.6520  -69.3260 C.3    95  VAL95       0.1595
     46  C         19.0270  -17.8750  -68.0430 C.2    95  VAL95       0.2287
     47  O         18.6870  -16.6940  -67.9300 O.2    95  VAL95      -0.2864
     48  CB        17.5070  -19.4650  -69.2010 C.3    95  VAL95       0.0276
     49  CG1       16.3700  -18.5800  -68.7140 C.3    95  VAL95       0.0022
     50  CG2       17.1620  -20.1150  -70.5390 C.3    95  VAL95       0.0022
     51  N         21.4590  -14.9870  -68.6170 N.3    98  LEU98      -0.1245
     52  CA        20.7450  -13.9110  -69.2980 C.3    98  LEU98       0.1561
     53  C         19.8630  -13.1130  -68.3360 C.2    98  LEU98       0.2260
     54  O         19.9690  -11.8800  -68.2310 O.2    98  LEU98      -0.2867
     55  CB        19.9210  -14.4750  -70.4570 C.3    98  LEU98       0.0270
     56  CG        20.7630  -15.1320  -71.5530 C.3    98  LEU98       0.0019
     57  CD1       19.9020  -15.5900  -72.7200 C.3    98  LEU98       0.0001
     58  CD2       21.8510  -14.1770  -72.0350 C.3    98  LEU98       0.0001
     59  N         12.7140  -26.7390  -72.8390 N.3   336  MET336     -0.1245
     60  CA        13.7960  -25.8680  -73.3010 C.3   336  MET336      0.1570
     61  C         13.2560  -24.6580  -74.0660 C.2   336  MET336      0.2261
     62  O         13.5310  -23.4950  -73.7140 O.2   336  MET336     -0.2867
     63  CB        14.7670  -26.6470  -74.1910 C.3   336  MET336      0.0387
     64  CG        15.8310  -25.7810  -74.8410 C.3   336  MET336      0.0595
     65  SD        16.7250  -26.6410  -76.1550 S.3   336  MET336     -0.1393
     66  CE        17.5940  -27.9170  -75.2300 C.3   336  MET336      0.0692
     67  N         13.3340  -20.5820  -73.0980 N.3   340  PHE340     -0.1241
     68  CA        13.6900  -19.5200  -74.0310 C.3   340  PHE340      0.1605
     69  C         12.6330  -18.4160  -74.0970 C.2   340  PHE340      0.2264
     70  O         12.8580  -17.2880  -73.6240 O.2   340  PHE340     -0.2867
     71  CB        13.9280  -20.0920  -75.4280 C.3   340  PHE340      0.0534
     72  CG        15.1010  -21.0160  -75.5070 C.ar  340  PHE340     -0.0203
     73  CD1       15.1150  -22.0520  -76.4190 C.ar  340  PHE340     -0.0042
     74  CD2       16.1920  -20.8510  -74.6670 C.ar  340  PHE340     -0.0042
     75  CE1       16.2010  -22.9130  -76.4960 C.ar  340  PHE340     -0.0003
     76  CE2       17.2800  -21.7060  -74.7360 C.ar  340  PHE340     -0.0003
     77  CZ        17.2850  -22.7390  -75.6520 C.ar  340  PHE340     -0.0000
     78  N         19.2820  -11.9960  -77.5400 N.3   459  VAL459     -0.1245
     79  CA        19.6130  -13.4170  -77.5580 C.3   459  VAL459      0.1561
     80  C         18.3670  -14.2480  -77.3010 C.2   459  VAL459      0.2260
     81  O         18.1350  -15.2620  -77.9650 O.2   459  VAL459     -0.2867
     82  CB        20.6790  -13.7740  -76.5110 C.3   459  VAL459      0.0252
     83  CG1       21.1370  -15.2230  -76.7010 C.3   459  VAL459      0.0019
     84  CG2       21.8490  -12.8030  -76.6050 C.3   459  VAL459      0.0019
     85  N         16.9310  -17.0630  -79.9190 N.3   463  LEU463     -0.1245
     86  CA        16.6260  -18.4290  -79.5010 C.3   463  LEU463      0.1561
     87  C         15.1280  -18.7090  -79.3440 C.2   463  LEU463      0.2260
     88  O         14.7150  -19.8640  -79.3000 O.2   463  LEU463     -0.2867
     89  CB        17.3680  -18.7840  -78.2110 C.3   463  LEU463      0.0270
     90  CG        18.8180  -19.2430  -78.3730 C.3   463  LEU463      0.0019
     91  CD1       19.6580  -18.2110  -79.1210 C.3   463  LEU463      0.0001
     92  CD2       19.4150  -19.5420  -77.0110 C.3   463  LEU463      0.0001
     93  N         18.4480  -26.4100  -81.7690 N.3   471  ILE471     -0.1231
     94  CA        19.0840  -27.1880  -80.7140 C.3   471  ILE471      0.1692
     95  C         18.2510  -28.4180  -80.3480 C.2   471  ILE471      0.2592
     96  O         17.0230  -28.3640  -80.3330 O.2   471  ILE471     -0.2718
     97  CB        19.3400  -26.3220  -79.4620 C.3   471  ILE471      0.0266
     98  CG1       20.2680  -25.1540  -79.8010 C.3   471  ILE471      0.0019
     99  CG2       19.9400  -27.1550  -78.3490 C.3   471  ILE471      0.0020
    100  CD1       20.7330  -24.3760  -78.5880 C.3   471  ILE471      0.0001
    101  N         18.9240  -29.5320  -80.0720 N.am  472  VAL472     -0.1966
    102  CA        18.2370  -30.7650  -79.6960 C.3   472  VAL472      0.1712
    103  C         18.9160  -31.4830  -78.5240 C.2   472  VAL472      0.2458
    104  O         20.0960  -31.8380  -78.6020 O.2   472  VAL472     -0.2730
    105  CB        18.1180  -31.7340  -80.8840 C.3   472  VAL472      0.0289
    106  CG1       17.2600  -32.9300  -80.5040 C.3   472  VAL472      0.0023
    107  CG2       17.5290  -31.0210  -82.0800 C.3   472  VAL472      0.0023
    108  N         18.1580  -31.6980  -77.4340 N.am  473  PRO473     -0.2716
    109  CA        18.6170  -32.3450  -76.1970 C.3   473  PRO473      0.1521
    110  C         18.9590  -33.8260  -76.3690 C.2   473  PRO473      0.2440
    111  O         18.1530  -34.5840  -76.9030 O.2   473  PRO473     -0.2731
    112  CB        17.4200  -32.1750  -75.2520 C.3   473  PRO473      0.0310
    113  CG        16.2380  -31.9920  -76.1530 C.3   473  PRO473      0.0237
    114  CD        16.7580  -31.2430  -77.3310 C.3   473  PRO473      0.0939
    115  N         20.1500  -34.2330  -75.9020 N.am  474  PRO474     -0.2727
    116  CA        20.7030  -35.5870  -76.0500 C.3   474  PRO474      0.1402
    117  C         19.9160  -36.6540  -75.2890 C.2   474  PRO474      0.2269
    118  O         20.5100  -37.4260  -74.5390 O.2   474  PRO474     -0.2865
    119  CB        22.1110  -35.4560  -75.4530 C.3   474  PRO474      0.0296
    120  CG        22.4200  -33.9970  -75.4960 C.3   474  PRO474      0.0237
    121  CD        21.1080  -33.3240  -75.2530 C.3   474  PRO474      0.0939
@<TRIPOS>BOND
     1   107   105    1
     2    93    94    1
     3   105   106    1
     4   105   102    1
     5    94    95    1
     6    94    97    1
     7    95    96    2
     8    95   101   am
     9   101   102    1
    10    85    86    1
    11    98    97    1
    12    98   100    1
    13   102   103    1
    14    86    87    1
    15    86    89    1
    16    97    99    1
    17    87    88    2
    18    91    90    1
    19   104   103    2
    20   103   108   am
    21    90    89    1
    22    90    92    1
    23    81    80    2
    24    79    78    1
    25    79    80    1
    26    79    82    1
    27     4     3    2
    28   108   114    1
    29   108   109    1
    30   114   113    1
    31     5     6    1
    32     5     2    1
    33     8     6   ar
    34     8    10   ar
    35     6     7   ar
    36    10    11   ar
    37     3     2    1
    38   111   110    2
    39     7     9   ar
    40    11     9   ar
    41    83    82    1
    42    84    82    1
    43    75    73   ar
    44    75    77   ar
    45    73    72   ar
    46   110   109    1
    47   110   115   am
    48     2     1    1
    49   109   112    1
    50    65    66    1
    51    65    64    1
    52   113   112    1
    53   116   115    1
    54   116   119    1
    55   116   117    1
    56   115   121    1
    57    77    76   ar
    58    72    71    1
    59    72    74   ar
    60   120   119    1
    61   120   121    1
    62    71    68    1
    63   117   118    2
    64    64    63    1
    65    76    74   ar
    66    63    60    1
    67    69    68    1
    68    69    70    2
    69    61    62    2
    70    61    60    1
    71    68    67    1
    72    60    59    1
    73    57    56    1
    74    25    24    1
    75    32    31    1
    76    19    17    1
    77    58    56    1
    78    56    55    1
    79    26    24    1
    80    24    21    1
    81    17    16    1
    82    17    18    1
    83    31    28    1
    84    21    20    1
    85    21    22    1
    86    39    37    1
    87    50    48    1
    88    55    52    1
    89    16    13    1
    90    20    14   am
    91    15    14    2
    92    14    13    1
    93    33    29   am
    94    33    34    1
    95    28    29    1
    96    28    27    1
    97    23    22    2
    98    41    42    1
    99    41    40    1
   100    29    30    2
   101    34    37    1
   102    34    35    1
   103    44    42   am
   104    44    45    1
   105    42    43    2
   106    37    38    1
   107    13    12    1
   108    45    48    1
   109    45    46    1
   110    52    51    1
   111    52    53    1
   112    48    49    1
   113    36    35    2
   114    53    54    2
   115    46    47    2
