@<TRIPOS>MOLECULE
tmp/3rkoB02.pdb
 100 96 0 0 0
SMALL
GASTEIGER

@<TRIPOS>ATOM
      1  N          9.4090   10.5030   17.3670 N.3   221  TYR221     -0.1241
      2  CA         9.4510   11.8570   17.9050 C.3   221  TYR221      0.1605
      3  C          8.7100   12.8290   16.9840 C.2   221  TYR221      0.2264
      4  O          7.6180   13.2930   17.3150 O.2   221  TYR221     -0.2867
      5  CB        10.9030   12.3090   18.1140 C.3   221  TYR221      0.0534
      6  CG        11.0610   13.4320   19.1240 C.ar  221  TYR221     -0.0201
      7  CD1       10.3200   13.4430   20.3000 C.ar  221  TYR221     -0.0009
      8  CD2       11.9590   14.4720   18.9060 C.ar  221  TYR221     -0.0009
      9  CE1       10.4570   14.4640   21.2260 C.ar  221  TYR221      0.0417
     10  CE2       12.1050   15.4970   19.8290 C.ar  221  TYR221      0.0417
     11  CZ        11.3510   15.4890   20.9870 C.ar  221  TYR221      0.1957
     12  OH        11.4900   16.5080   21.9090 O.3   221  TYR221     -0.2866
     13  N          5.2850   14.9790   17.5120 N.3   225  LEU225     -0.1245
     14  CA         5.2550   16.4390   17.5240 C.3   225  LEU225      0.1561
     15  C          4.0910   16.9180   16.6810 C.2   225  LEU225      0.2260
     16  O          3.2690   17.7010   17.1360 O.2   225  LEU225     -0.2867
     17  CB         6.5490   17.0440   16.9960 C.3   225  LEU225      0.0270
     18  CG         7.7780   16.8720   17.8780 C.3   225  LEU225      0.0019
     19  CD1        8.9230   17.7210   17.3420 C.3   225  LEU225      0.0001
     20  CD2        7.4380   17.2580   19.2990 C.3   225  LEU225      0.0001
     21  N          1.0380   16.4430   18.5430 N.3   228  PHE228     -0.1227
     22  CA         1.0200   17.4380   19.6050 C.3   228  PHE228      0.1736
     23  C          0.5380   18.7560   19.0180 C.2   228  PHE228      0.2595
     24  O         -0.6320   19.0810   19.1530 O.2   228  PHE228     -0.2718
     25  CB         2.3850   17.6010   20.2850 C.3   228  PHE228      0.0547
     26  CG         2.3450   18.4540   21.5370 C.ar  228  PHE228     -0.0202
     27  CD1        1.5160   18.1070   22.5950 C.ar  228  PHE228     -0.0042
     28  CD2        3.1470   19.5860   21.6590 C.ar  228  PHE228     -0.0042
     29  CE1        1.4720   18.8700   23.7400 C.ar  228  PHE228     -0.0003
     30  CE2        3.1090   20.3510   22.8090 C.ar  228  PHE228     -0.0003
     31  CZ         2.2690   19.9890   23.8480 C.ar  228  PHE228     -0.0000
     32  N          1.4260   19.4890   18.3500 N.am  229  ILE229     -0.1980
     33  CA         1.0710   20.7810   17.7660 C.3   229  ILE229      0.1595
     34  C         -0.4130   20.8860   17.4260 C.2   229  ILE229      0.2287
     35  O         -1.1010   21.8070   17.8500 O.2   229  ILE229     -0.2864
     36  CB         1.8860   21.0620   16.5130 C.3   229  ILE229      0.0276
     37  CG1        3.3620   21.2320   16.8800 C.3   229  ILE229      0.0022
     38  CG2        1.3580   22.2900   15.8390 C.3   229  ILE229      0.0022
     39  CD1        4.2470   21.6220   15.7250 C.3   229  ILE229      0.0001
     40  N         -2.1850   21.0410   20.4500 N.3   232  ALA232     -0.1245
     41  CA        -1.7230   22.1860   21.2220 C.3   232  ALA232      0.1562
     42  C         -2.4720   23.4350   20.7990 C.2   232  ALA232      0.2260
     43  O         -2.7250   24.3320   21.6030 O.2   232  ALA232     -0.2867
     44  CB        -0.2470   22.3730   21.0070 C.3   232  ALA232      0.0290
     45  N         -2.5070   24.9620   24.3300 N.3   237  VAL237     -0.1231
     46  CA        -1.2920   25.0650   25.1100 C.3   237  VAL237      0.1692
     47  C         -0.8680   26.4840   24.8480 C.2   237  VAL237      0.2592
     48  O         -1.4880   27.1410   24.0120 O.2   237  VAL237     -0.2718
     49  CB        -0.2480   24.0670   24.6030 C.3   237  VAL237      0.0266
     50  CG1        1.1420   24.3970   25.1350 C.3   237  VAL237      0.0020
     51  CG2       -0.6730   22.6400   24.9840 C.3   237  VAL237      0.0020
     52  N          0.1430   26.9790   25.5610 N.am  238  VAL238     -0.1966
     53  CA         0.6100   28.3440   25.3240 C.3   238  VAL238      0.1712
     54  C          1.3270   28.4640   23.9780 C.2   238  VAL238      0.2458
     55  O          1.4560   27.4720   23.2620 O.2   238  VAL238     -0.2730
     56  CB         1.4540   28.9050   26.4810 C.3   238  VAL238      0.0289
     57  CG1        0.5580   29.5360   27.5280 C.3   238  VAL238      0.0023
     58  CG2        2.3350   27.8170   27.0840 C.3   238  VAL238      0.0023
     59  N          1.8940   29.6440   23.6880 N.am  239  PRO239     -0.2716
     60  CA         1.8560   30.3340   22.3980 C.3   239  PRO239      0.1536
     61  C          0.5550   30.2570   21.5560 C.2   239  PRO239      0.2598
     62  O          0.1270   31.2960   21.0470 O.2   239  PRO239     -0.2715
     63  CB         3.0840   29.7550   21.6860 C.3   239  PRO239      0.0310
     64  CG         4.0970   29.5240   22.8670 C.3   239  PRO239      0.0237
     65  CD         3.2810   29.6930   24.1760 C.3   239  PRO239      0.0939
     66  N         -0.0770   29.0920   21.4400 N.am  240  LEU240     -0.1978
     67  CA        -1.1420   28.9070   20.4430 C.3   240  LEU240      0.1596
     68  C         -2.5840   29.0580   20.9620 C.2   240  LEU240      0.2287
     69  O         -3.4370   28.2090   20.6870 O.2   240  LEU240     -0.2864
     70  CB        -0.9780   27.5390   19.7560 C.3   240  LEU240      0.0297
     71  CG         0.4250   26.9180   19.6710 C.3   240  LEU240      0.0022
     72  CD1        0.3760   25.5460   18.9830 C.3   240  LEU240      0.0001
     73  CD2        1.4490   27.8450   18.9910 C.3   240  LEU240      0.0001
     74  N          8.9020   13.5610   26.0780 N.3   286  PHE286     -0.1241
     75  CA         8.3890   14.9220   25.8730 C.3   286  PHE286      0.1605
     76  C          7.5800   15.4670   27.0640 C.2   286  PHE286      0.2264
     77  O          7.2520   16.6660   27.1340 O.2   286  PHE286     -0.2867
     78  CB         7.5370   14.9420   24.6050 C.3   286  PHE286      0.0534
     79  CG         7.0920   16.3070   24.1900 C.ar  286  PHE286     -0.0203
     80  CD1        8.0080   17.2240   23.6780 C.ar  286  PHE286     -0.0042
     81  CD2        5.7480   16.6640   24.2820 C.ar  286  PHE286     -0.0042
     82  CE1        7.6020   18.4840   23.2870 C.ar  286  PHE286     -0.0003
     83  CE2        5.3260   17.9220   23.8890 C.ar  286  PHE286     -0.0003
     84  CZ         6.2570   18.8340   23.3930 C.ar  286  PHE286     -0.0000
     85  N          8.6390   19.1090   28.8440 N.3   289  ILE289     -0.1245
     86  CA         8.1560   20.2890   28.1620 C.3   289  ILE289      0.1561
     87  C          6.6390   20.3800   28.2510 C.2   289  ILE289      0.2260
     88  O          6.0990   21.4260   28.6410 O.2   289  ILE289     -0.2867
     89  CB         8.6320   20.3040   26.7210 C.3   289  ILE289      0.0252
     90  CG1       10.1510   20.1010   26.7080 C.3   289  ILE289      0.0019
     91  CG2        8.2380   21.6160   26.0770 C.3   289  ILE289      0.0019
     92  CD1       10.7490   20.0700   25.3410 C.3   289  ILE289      0.0001
     93  N          4.8740   23.7490   29.8430 N.3   293  LEU293     -0.1245
     94  CA         3.8680   24.5220   29.1260 C.3   293  LEU293      0.1561
     95  C          2.5280   24.4620   29.8740 C.2   293  LEU293      0.2260
     96  O          1.7840   25.4420   29.9000 O.2   293  LEU293     -0.2867
     97  CB         3.7370   24.0540   27.6660 C.3   293  LEU293      0.0270
     98  CG         5.0180   23.8350   26.8410 C.3   293  LEU293      0.0019
     99  CD1        4.6210   23.5130   25.4140 C.3   293  LEU293      0.0001
    100  CD2        6.0230   25.0080   26.8550 C.3   293  LEU293      0.0001
@<TRIPOS>BOND
     1    39    37    1
     2    38    36    1
     3    36    37    1
     4    36    33    1
     5    15    16    2
     6    15    14    1
     7     3     4    2
     8     3     2    1
     9    17    14    1
    10    17    18    1
    11    19    18    1
    12     1     2    1
    13    34    33    1
    14    34    35    2
    15    13    14    1
    16    33    32    1
    17    18    20    1
    18     2     5    1
    19     5     6    1
    20    32    23   am
    21    21    22    1
    22     8     6   ar
    23     8    10   ar
    24    72    71    1
    25    73    71    1
    26    23    24    2
    27    23    22    1
    28     6     7   ar
    29    22    25    1
    30    71    70    1
    31    70    67    1
    32    10    11   ar
    33    25    26    1
    34     7     9   ar
    35    67    68    1
    36    67    66    1
    37    40    41    1
    38    69    68    2
    39    42    41    1
    40    42    43    2
    41    11     9   ar
    42    11    12    1
    43    44    41    1
    44    62    61    2
    45    66    61   am
    46    26    28   ar
    47    26    27   ar
    48    61    60    1
    49    28    30   ar
    50    63    60    1
    51    63    64    1
    52    60    59    1
    53    27    29   ar
    54    30    31   ar
    55    64    65    1
    56    55    54    2
    57    82    84   ar
    58    82    80   ar
    59    84    83   ar
    60    80    79   ar
    61    59    54   am
    62    59    65    1
    63    29    31   ar
    64    83    81   ar
    65    54    53    1
    66    48    47    2
    67    79    81   ar
    68    79    78    1
    69    45    46    1
    70    49    51    1
    71    49    46    1
    72    49    50    1
    73    78    75    1
    74    47    46    1
    75    47    52   am
    76    53    52    1
    77    53    56    1
    78    92    90    1
    79    99    98    1
    80    75    74    1
    81    75    76    1
    82    91    89    1
    83    56    58    1
    84    56    57    1
    85    90    89    1
    86    89    86    1
    87    98   100    1
    88    98    97    1
    89    76    77    2
    90    97    94    1
    91    86    87    1
    92    86    85    1
    93    87    88    2
    94    94    93    1
    95    94    95    1
    96    95    96    2
