@<TRIPOS>MOLECULE
tmp/3rkrB00.pdb
 117 110 0 0 0
SMALL
GASTEIGER

@<TRIPOS>ATOM
      1  N         23.6580  -91.6790  -62.1310 N.3    12  GLY12      -0.1225
      2  CA        23.2470  -93.0800  -62.3930 C.3    12  GLY12       0.1811
      3  C         24.1560  -93.7450  -63.4230 C.2    12  GLY12       0.2280
      4  O         23.6840  -94.4750  -64.3040 O.2    12  GLY12      -0.2866
      5  N         26.4930  -96.1260  -63.2710 N.3    14  SER14      -0.1202
      6  CA        27.0470  -97.4620  -63.0110 C.3    14  SER14       0.2020
      7  C         26.6750  -98.5650  -63.9910 C.2    14  SER14       0.2618
      8  O         27.4250  -99.5160  -64.1300 O.2    14  SER14      -0.2717
      9  CB        26.8010  -97.9180  -61.5730 C.3    14  SER14       0.2103
     10  OG        25.4580  -97.6870  -61.1810 O.3    14  SER14      -0.2182
     11  N         25.5400  -98.4310  -64.6670 N.am   15  ARG15      -0.1979
     12  CA        25.0350  -99.4420  -65.5970 C.3    15  ARG15       0.1597
     13  C         24.0520  -98.9020  -66.6300 C.2    15  ARG15       0.2287
     14  O         23.6550  -97.7690  -66.5560 O.2    15  ARG15      -0.2864
     15  CB        24.3370 -100.5370  -64.8060 C.3    15  ARG15       0.0334
     16  CG        23.3530  -99.9940  -63.8040 C.3    15  ARG15       0.0492
     17  CD        22.6490 -101.0890  -63.0460 C.3    15  ARG15       0.2205
     18  NE        21.4040 -100.6110  -62.4520 N.pl3  15  ARG15      -0.0865
     19  CZ        20.4020 -101.4030  -62.0800 C.cat  15  ARG15       0.5346
     20  NH1       20.5030 -102.7180  -62.2380 N.pl3  15  ARG15       0.1354
     21  NH2       19.2960 -100.8850  -61.5560 N.pl3  15  ARG15       0.1354
     22  N         27.0970  -92.1810  -58.6960 N.3    36  ALA36      -0.1231
     23  CA        26.1610  -93.2170  -58.3410 C.3    36  ALA36       0.1694
     24  C         26.2380  -93.3680  -56.8530 C.2    36  ALA36       0.2592
     25  O         27.0790  -92.7840  -56.2180 O.2    36  ALA36      -0.2718
     26  CB        26.4810  -94.4910  -59.0130 C.3    36  ALA36       0.0304
     27  N         25.3280  -94.1200  -56.2770 N.am   37  ARG37      -0.1966
     28  CA        25.3560  -94.3570  -54.8470 C.3    37  ARG37       0.1729
     29  C         26.5300  -95.1730  -54.3660 C.2    37  ARG37       0.2616
     30  O         27.0630  -94.9280  -53.2980 O.2    37  ARG37      -0.2715
     31  CB        24.0590  -94.9590  -54.3570 C.3    37  ARG37       0.0348
     32  CG        23.3240  -94.0530  -53.4300 C.3    37  ARG37       0.0492
     33  CD        22.2070  -94.8110  -52.8430 C.3    37  ARG37       0.2205
     34  NE        21.7250  -95.7570  -53.8310 N.pl3  37  ARG37      -0.0865
     35  CZ        20.5980  -96.4370  -53.7160 C.cat  37  ARG37       0.5346
     36  NH1       19.8310  -96.2650  -52.6540 N.pl3  37  ARG37       0.1354
     37  NH2       20.2360  -97.2790  -54.6670 N.pl3  37  ARG37       0.1354
     38  N         26.9220  -96.1660  -55.1490 N.am   38  ASP38      -0.1971
     39  CA        28.0400  -97.0090  -54.7730 C.3    38  ASP38       0.1709
     40  C         29.2180  -96.8630  -55.6980 C.2    38  ASP38       0.2293
     41  O         29.1360  -97.1700  -56.8750 O.2    38  ASP38      -0.2864
     42  CB        27.6380  -98.4680  -54.7940 C.3    38  ASP38       0.1436
     43  CG        28.8380  -99.3850  -54.8020 C.2    38  ASP38       0.3671
     44  OD1       29.3320  -99.7100  -53.7040 O.co2  38  ASP38      -0.2456
     45  OD2       29.2910  -99.7600  -55.9070 O.co2  38  ASP38      -0.2456
     46  N         30.6420  -99.9160  -58.1230 N.3    41  LYS41      -0.1245
     47  CA        29.9700 -100.1670  -59.3780 C.3    41  LYS41       0.1561
     48  C         30.5230  -99.2440  -60.4600 C.2    41  LYS41       0.2260
     49  O         30.6180  -99.6080  -61.6150 O.2    41  LYS41      -0.2867
     50  CB        28.4800  -99.9850  -59.1640 C.3    41  LYS41       0.0271
     51  CG        28.0610 -100.4310  -57.7680 C.3    41  LYS41       0.0035
     52  CD        26.5700 -100.3710  -57.5530 C.3    41  LYS41       0.0206
     53  CE        26.1820 -101.0610  -56.2460 C.3    41  LYS41       0.1093
     54  NZ        24.7070 -101.2400  -56.0820 N.3    41  LYS41      -0.1314
     55  N         27.4000  -90.2140  -54.3270 N.3    61  CYS61      -0.1221
     56  CA        26.5960  -89.0750  -53.9210 C.3    61  CYS61       0.1808
     57  C         25.2070  -89.6090  -53.7510 C.2    61  CYS61       0.2601
     58  O         24.6320  -90.1170  -54.7110 O.2    61  CYS61      -0.2717
     59  CB        26.5810  -88.0200  -55.0240 C.3    61  CYS61       0.0970
     60  SG        25.6340  -86.5780  -54.5470 S.3    61  CYS61      -0.0800
     61  N         24.6540  -89.5110  -52.5540 N.am   62  ASP62      -0.1959
     62  CA        23.2480  -89.8460  -52.3560 C.3    62  ASP62       0.1840
     63  C         22.2850  -88.7140  -52.8360 C.2    62  ASP62       0.2622
     64  O         22.0730  -87.6960  -52.1550 O.2    62  ASP62      -0.2715
     65  CB        23.0060  -90.1940  -50.9020 C.3    62  ASP62       0.1450
     66  CG        21.5820  -90.6170  -50.6280 C.2    62  ASP62       0.3671
     67  OD1       20.6430  -90.5140  -51.4730 O.co2  62  ASP62      -0.2456
     68  OD2       21.3800  -91.0690  -49.4960 O.co2  62  ASP62      -0.2456
     69  N         21.6620  -88.9240  -53.9920 N.am   63  LEU63      -0.1963
     70  CA        20.8000  -87.8930  -54.5870 C.3    63  LEU63       0.1728
     71  C         19.5640  -87.5290  -53.7880 C.2    63  LEU63       0.2616
     72  O         18.9300  -86.4830  -54.0520 O.2    63  LEU63      -0.2715
     73  CB        20.4270  -88.2420  -56.0370 C.3    63  LEU63       0.0311
     74  CG        21.6460  -88.3450  -56.9630 C.3    63  LEU63       0.0022
     75  CD1       21.1210  -88.7400  -58.3040 C.3    63  LEU63       0.0001
     76  CD2       22.4140  -87.0540  -57.0690 C.3    63  LEU63       0.0001
     77  N         19.2210  -88.3370  -52.8010 N.am   64  SER64      -0.1950
     78  CA        18.1190  -87.9500  -51.9320 C.3    64  SER64       0.1924
     79  C         18.4950  -86.9360  -50.8600 C.2    64  SER64       0.2314
     80  O         17.6200  -86.5590  -50.1190 O.2    64  SER64      -0.2863
     81  CB        17.4780  -89.1600  -51.2560 C.3    64  SER64       0.2116
     82  OG        18.3330  -89.6280  -50.2250 O.3    64  SER64      -0.2180
     83  N         20.2510  -88.6700  -65.3130 N.3    89  ASN89      -0.1225
     84  CA        19.8970  -90.0110  -65.7260 C.3    89  ASN89       0.1785
     85  C         19.5050  -90.9300  -64.5750 C.2    89  ASN89       0.2597
     86  O         18.7630  -91.8720  -64.7930 O.2    89  ASN89      -0.2718
     87  CB        21.0450  -90.6270  -66.5270 C.3    89  ASN89       0.1169
     88  CG        20.9350  -92.1310  -66.6370 C.2    89  ASN89       0.2627
     89  OD1       21.5610  -92.8850  -65.8530 O.2    89  ASN89      -0.2716
     90  ND2       20.2050  -92.5910  -67.6200 N.am   89  ASN89      -0.0877
     91  N         20.0140  -90.6990  -63.3660 N.am   90  ALA90      -0.1966
     92  CA        19.7060  -91.5900  -62.2180 C.3    90  ALA90       0.1728
     93  C         18.2120  -91.5870  -61.9850 C.2    90  ALA90       0.2617
     94  O         17.6010  -90.4970  -62.0000 O.2    90  ALA90      -0.2715
     95  CB        20.3990  -91.0950  -60.9390 C.3    90  ALA90       0.0334
     96  N         17.6310  -92.7670  -61.7200 N.am   91  GLY91      -0.1940
     97  CA        16.1980  -92.8660  -61.4340 C.3    91  GLY91       0.2014
     98  C         15.8420  -94.1050  -60.6530 C.2    91  GLY91       0.2639
     99  O         16.5800  -95.0690  -60.6950 O.2    91  GLY91      -0.2714
    100  N         14.7380  -94.0800  -59.9060 N.am   92  VAL92      -0.1963
    101  CA        14.2760  -95.3000  -59.2570 C.3    92  VAL92       0.1727
    102  C         12.9000  -95.6880  -59.7500 C.2    92  VAL92       0.2616
    103  O         12.1720  -94.8580  -60.2670 O.2    92  VAL92      -0.2715
    104  CB        14.3580  -95.2430  -57.6830 C.3    92  VAL92       0.0290
    105  CG1       15.8410  -95.1710  -57.2260 C.3    92  VAL92       0.0023
    106  CG2       13.5770  -94.0760  -57.1050 C.3    92  VAL92       0.0023
    107  N         12.5550  -96.9580  -59.6180 N.am   93  GLY93      -0.1955
    108  CA        11.2020  -97.4220  -59.9560 C.3    93  GLY93       0.1869
    109  C         10.4860  -97.8580  -58.7020 C.2    93  GLY93       0.2309
    110  O         11.1150  -98.0010  -57.6640 O.2    93  GLY93      -0.2863
    111  N         14.5920  -88.6890  -55.7440 N.3   113  VAL113     -0.1245
    112  CA        15.5840  -88.9760  -56.7860 C.3   113  VAL113      0.1561
    113  C         15.0650  -88.6090  -58.1780 C.2   113  VAL113      0.2260
    114  O         15.7820  -87.9740  -58.9510 O.2   113  VAL113     -0.2867
    115  CB        15.9620  -90.4790  -56.8180 C.3   113  VAL113      0.0252
    116  CG1       16.8290  -90.7890  -58.0460 C.3   113  VAL113      0.0019
    117  CG2       16.6950  -90.9050  -55.5070 C.3   113  VAL113      0.0019
@<TRIPOS>BOND
     1    90    88   am
     2    88    87    1
     3    88    89    2
     4    13    14    2
     5    13    12    1
     6    87    84    1
     7    84    83    1
     8    84    85    1
     9    12    15    1
    10    12    11    1
    11    15    16    1
    12    86    85    2
    13    11     7   am
    14    85    91   am
    15     4     3    2
    16     8     7    2
    17     7     6    1
    18    16    17    1
    19     3     2    1
    20    91    92    1
    21     5     6    1
    22    17    18    1
    23     6     9    1
    24    18    19    2
    25     2     1    1
    26    20    19    1
    27    92    93    1
    28    92    95    1
    29    19    21    1
    30    94    93    2
    31    93    96   am
    32    96    97    1
    33    49    48    2
    34     9    10    1
    35    97    98    1
    36    99    98    2
    37    98   100   am
    38    48    47    1
    39   103   102    2
    40   108   107    1
    41   108   109    1
    42   100   101    1
    43   102   107   am
    44   102   101    1
    45    47    50    1
    46    47    46    1
    47   101   104    1
    48    50    51    1
    49    26    23    1
    50   114   113    2
    51   109   110    2
    52    22    23    1
    53    23    24    1
    54    75    74    1
    55   113   112    1
    56   116   115    1
    57    51    52    1
    58   104   105    1
    59   104   106    1
    60    52    53    1
    61    76    74    1
    62    74    73    1
    63    41    40    2
    64    24    27   am
    65    24    25    2
    66   115   112    1
    67   115   117    1
    68   112   111    1
    69    27    28    1
    70    53    54    1
    71    73    70    1
    72    45    43   ar
    73    40    39    1
    74    38    39    1
    75    38    29   am
    76    59    60    1
    77    59    56    1
    78    28    29    1
    79    28    31    1
    80    43    42    1
    81    43    44   ar
    82    42    39    1
    83    58    57    2
    84    37    35    1
    85    70    69    1
    86    70    71    1
    87    29    30    2
    88    31    32    1
    89    55    56    1
    90    72    71    2
    91    69    63   am
    92    56    57    1
    93    34    35    2
    94    34    33    1
    95    71    77   am
    96    57    61   am
    97    35    36    1
    98    32    33    1
    99    63    62    1
   100    63    64    2
   101    77    78    1
   102    61    62    1
   103    62    65    1
   104    78    81    1
   105    78    79    1
   106    67    66   ar
   107    81    82    1
   108    65    66    1
   109    79    80    2
   110    66    68   ar
