@<TRIPOS>MOLECULE
tmp/3rkzA00.pdb
 174 163 0 0 0
SMALL
GASTEIGER

@<TRIPOS>ATOM
      1  N         -0.9870   11.5240   16.3360 N.3    32  LEU32      -0.1245
      2  CA        -1.5460   12.0910   17.5590 C.3    32  LEU32       0.1561
      3  C         -2.7920   11.3340   18.0030 C.2    32  LEU32       0.2260
      4  O         -2.9650   11.0340   19.1970 O.2    32  LEU32      -0.2867
      5  CB        -1.8230   13.5840   17.3890 C.3    32  LEU32       0.0270
      6  CG        -0.5590   14.3480   16.9580 C.3    32  LEU32       0.0019
      7  CD1       -0.9000   15.7930   16.8010 C.3    32  LEU32       0.0001
      8  CD2        0.6420   14.1670   17.9180 C.3    32  LEU32       0.0001
      9  N         -1.7330    8.0970   19.6870 N.3    35  ASN35      -0.1225
     10  CA        -1.3610    8.2990   21.0870 C.3    35  ASN35       0.1785
     11  C         -2.6020    8.4410   21.9370 C.2    35  ASN35       0.2597
     12  O         -2.6670    7.8870   23.0320 O.2    35  ASN35      -0.2718
     13  CB        -0.4450    9.5160   21.2620 C.3    35  ASN35       0.1169
     14  CG         0.9550    9.2520   20.7780 C.2    35  ASN35       0.2627
     15  OD1        1.4190    8.1110   20.7400 O.2    35  ASN35      -0.2716
     16  ND2        1.6200   10.2990   20.3730 N.am   35  ASN35      -0.0877
     17  N         -3.5850    9.2030   21.4720 N.am   36  SER36      -0.1952
     18  CA        -4.8020    9.3400   22.2530 C.3    36  SER36       0.1924
     19  C         -5.5270    8.0150   22.4440 C.2    36  SER36       0.2314
     20  O         -5.9940    7.6990   23.5220 O.2    36  SER36      -0.2863
     21  CB        -5.7480   10.3170   21.5790 C.3    36  SER36       0.2116
     22  OG        -5.2420   11.6510   21.5990 O.3    36  SER36      -0.2180
     23  N         -4.2620    4.9860   22.3650 N.3    38  ASP38      -0.1225
     24  CA        -3.4880    4.1610   23.2780 C.3    38  ASP38       0.1805
     25  C         -3.7120    4.6230   24.7220 C.2    38  ASP38       0.2597
     26  O         -3.8610    3.8060   25.6220 O.2    38  ASP38      -0.2718
     27  CB        -2.0060    4.2280   22.9170 C.3    38  ASP38       0.1424
     28  CG        -1.6570    3.4260   21.6520 C.2    38  ASP38       0.3668
     29  OD1       -2.5070    2.6760   21.1340 O.co2  38  ASP38      -0.2456
     30  OD2       -0.5020    3.5300   21.1930 O.co2  38  ASP38      -0.2456
     31  N         -3.7950    5.9410   24.9360 N.am   39  ALA39      -0.1979
     32  CA        -4.0510    6.4810   26.2800 C.3    39  ALA39       0.1597
     33  C         -5.4560    6.0970   26.7980 C.2    39  ALA39       0.2287
     34  O         -5.6670    5.8510   27.9920 O.2    39  ALA39      -0.2864
     35  CB        -3.8960    7.9470   26.2680 C.3    39  ALA39       0.0319
     36  N         -5.5100    2.5230   27.8230 N.3    42  LYS42      -0.1245
     37  CA        -4.8600    2.3110   29.1080 C.3    42  LYS42       0.1561
     38  C         -5.7800    2.6090   30.2830 C.2    42  LYS42       0.2260
     39  O         -5.8100    1.8520   31.2400 O.2    42  LYS42      -0.2867
     40  CB        -3.5850    3.1620   29.2250 C.3    42  LYS42       0.0271
     41  CG        -2.4680    2.7950   28.2490 C.3    42  LYS42       0.0035
     42  CD        -1.1350    3.3890   28.6930 C.3    42  LYS42       0.0206
     43  CE        -0.1210    3.4740   27.5660 C.3    42  LYS42       0.1093
     44  NZ         0.0450    2.2130   26.8360 N.3    42  LYS42      -0.1314
     45  N         -8.1380   14.3190   24.3700 N.3    77  ASP77      -0.1239
     46  CA        -8.6470   13.0050   24.7540 C.3    77  ASP77       0.1674
     47  C         -8.8780   12.9240   26.2480 C.2    77  ASP77       0.2266
     48  O         -8.3230   13.7180   27.0380 O.2    77  ASP77      -0.2867
     49  CB        -7.7150   11.8730   24.2870 C.3    77  ASP77       0.1410
     50  CG        -6.3850   11.8540   25.0230 C.2    77  ASP77       0.3668
     51  OD1       -6.3890   11.5820   26.2380 O.co2  77  ASP77      -0.2456
     52  OD2       -5.3380   12.1110   24.3950 O.co2  77  ASP77      -0.2456
     53  N         -5.6160    8.2360   29.8050 N.3    80  ILE80      -0.1231
     54  CA        -4.9980    8.0500   31.1160 C.3    80  ILE80       0.1692
     55  C         -4.2350    9.2900   31.6000 C.2    80  ILE80       0.2593
     56  O         -4.0580    9.4870   32.8040 O.2    80  ILE80      -0.2718
     57  CB        -4.0620    6.8330   31.0980 C.3    80  ILE80       0.0266
     58  CG1       -3.5700    6.4970   32.5140 C.3    80  ILE80       0.0019
     59  CG2       -2.8940    7.0710   30.1460 C.3    80  ILE80       0.0020
     60  CD1       -4.1070    5.2490   33.0650 C.3    80  ILE80       0.0001
     61  N         -3.8000   10.1290   30.6690 N.am   81  GLY81      -0.1942
     62  CA        -2.9860   11.2750   31.0250 C.3    81  GLY81       0.2014
     63  C         -1.5810   10.8900   31.4110 C.2    81  GLY81       0.2638
     64  O         -1.2060    9.7110   31.4090 O.2    81  GLY81      -0.2714
     65  N         -0.7820   11.9060   31.7370 N.am   82  MET82      -0.1976
     66  CA         0.6150   11.7110   32.0580 C.3    82  MET82       0.1605
     67  C          1.0040   12.4280   33.3410 C.2    82  MET82       0.2287
     68  O          0.5920   13.5540   33.5730 O.2    82  MET82      -0.2864
     69  CB         1.4970   12.2600   30.9540 C.3    82  MET82       0.0413
     70  CG         1.5290   11.3730   29.6850 C.3    82  MET82       0.0598
     71  SD         2.2830   12.1420   28.2640 S.3    82  MET82      -0.1393
     72  CE         0.9690   13.2620   27.8150 C.3    82  MET82       0.0692
     73  N          6.4700   11.3450   33.8470 N.3    86  ASP86      -0.1225
     74  CA         6.2950   10.8970   32.4600 C.3    86  ASP86       0.1805
     75  C          6.7070   12.0050   31.5070 C.2    86  ASP86       0.2597
     76  O          7.3910   11.7660   30.5150 O.2    86  ASP86      -0.2718
     77  CB         4.8340   10.5910   32.1320 C.3    86  ASP86       0.1424
     78  CG         4.3530    9.2440   32.6240 C.2    86  ASP86       0.3668
     79  OD1        5.1470    8.3110   32.8030 O.co2  86  ASP86      -0.2456
     80  OD2        3.1160    9.1430   32.8080 O.co2  86  ASP86      -0.2456
     81  N          6.2160   13.2170   31.7670 N.am   87  LEU87      -0.1979
     82  CA         6.4460   14.3640   30.8720 C.3    87  LEU87       0.1596
     83  C          7.8840   14.7880   30.7800 C.2    87  LEU87       0.2287
     84  O          8.3880   15.1120   29.7100 O.2    87  LEU87      -0.2864
     85  CB         5.6970   15.5890   31.3560 C.3    87  LEU87       0.0297
     86  CG         4.2420   15.7090   31.0720 C.3    87  LEU87       0.0022
     87  CD1        3.7880   17.0260   31.7060 C.3    87  LEU87       0.0001
     88  CD2        3.9220   15.6890   29.5690 C.3    87  LEU87       0.0001
     89  N          8.9720    9.1220   29.5340 N.3    91  LEU91      -0.1231
     90  CA         8.5940    8.7990   28.1620 C.3    91  LEU91       0.1693
     91  C          9.7350    9.0960   27.1960 C.2    91  LEU91       0.2592
     92  O          9.9580    8.3390   26.2520 O.2    91  LEU91      -0.2718
     93  CB         7.3210    9.5450   27.7800 C.3    91  LEU91       0.0284
     94  CG         6.0890    9.0740   28.5550 C.3    91  LEU91       0.0019
     95  CD1        4.8690    9.9170   28.1970 C.3    91  LEU91       0.0001
     96  CD2        5.7810    7.6190   28.3150 C.3    91  LEU91       0.0001
     97  N         10.4600   10.1820   27.4310 N.am   92  GLY92      -0.1957
     98  CA        11.6090   10.5340   26.6080 C.3    92  GLY92       0.1869
     99  C         12.7630    9.5490   26.7410 C.2    92  GLY92       0.2309
    100  O         13.4510    9.2670   25.7800 O.2    92  GLY92      -0.2863
    101  N         11.8360    6.6790   24.7770 N.3    95  ALA95      -0.1245
    102  CA        11.8170    7.0360   23.3530 C.3    95  ALA95       0.1562
    103  C         13.2220    7.1390   22.7450 C.2    95  ALA95       0.2260
    104  O         13.3610    7.2450   21.5300 O.2    95  ALA95      -0.2867
    105  CB        11.0660    8.3510   23.1410 C.3    95  ALA95       0.0290
    106  N          7.7320    4.3830   17.9480 N.3   119  GLY119     -0.1210
    107  CA         7.1980    4.8660   19.2150 C.3   119  GLY119      0.1956
    108  C          7.4190    6.3520   19.4720 C.2   119  GLY119      0.2611
    109  O          7.1870    6.8400   20.5820 O.2   119  GLY119     -0.2717
    110  N          7.8490    7.0700   18.4420 N.am  120  VAL120     -0.1979
    111  CA         8.1490    8.5050   18.5660 C.3   120  VAL120      0.1595
    112  C          7.2680    9.3770   17.6610 C.2   120  VAL120      0.2287
    113  O          7.6240   10.5210   17.3180 O.2   120  VAL120     -0.2864
    114  CB         9.6270    8.8080   18.3060 C.3   120  VAL120      0.0276
    115  CG1       10.4600    8.2860   19.4520 C.3   120  VAL120      0.0022
    116  CG2       10.1250    8.2490   16.9920 C.3   120  VAL120      0.0022
    117  N          4.7260   11.0860   18.2870 N.3   122  PHE122     -0.1227
    118  CA         4.3730   12.3900   18.8360 C.3   122  PHE122      0.1736
    119  C          5.1500   13.5190   18.1470 C.2   122  PHE122      0.2595
    120  O          4.5860   14.5770   17.8500 O.2   122  PHE122     -0.2718
    121  CB         4.6380   12.4340   20.3440 C.3   122  PHE122      0.0547
    122  CG         4.6200   13.8230   20.9100 C.ar  122  PHE122     -0.0202
    123  CD1        3.4110   14.4670   21.1450 C.ar  122  PHE122     -0.0042
    124  CD2        5.7960   14.5040   21.1560 C.ar  122  PHE122     -0.0042
    125  CE1        3.4040   15.7850   21.6370 C.ar  122  PHE122     -0.0003
    126  CE2        5.7730   15.8160   21.6460 C.ar  122  PHE122     -0.0003
    127  CZ         4.5740   16.4290   21.8850 C.ar  122  PHE122     -0.0000
    128  N          6.4250   13.2720   17.8770 N.am  123  TYR123     -0.1976
    129  CA         7.3160   14.3070   17.3710 C.3   123  TYR123      0.1639
    130  C          7.0130   14.6910   15.9160 C.2   123  TYR123      0.2290
    131  O          7.4940   15.7310   15.4200 O.2   123  TYR123     -0.2864
    132  CB         8.8010   13.9130   17.5810 C.3   123  TYR123      0.0560
    133  CG         9.1540   13.8930   19.0500 C.ar  123  TYR123     -0.0198
    134  CD1        9.4210   15.0890   19.7280 C.ar  123  TYR123     -0.0009
    135  CD2        9.1400   12.7130   19.7980 C.ar  123  TYR123     -0.0009
    136  CE1        9.6940   15.0920   21.0950 C.ar  123  TYR123      0.0417
    137  CE2        9.4150   12.7130   21.1820 C.ar  123  TYR123      0.0417
    138  CZ         9.7030   13.9100   21.8170 C.ar  123  TYR123      0.1957
    139  OH         9.9650   13.9170   23.1720 O.3   123  TYR123     -0.2866
    140  N          1.3900   20.6460   25.4520 N.3   134  VAL134     -0.1245
    141  CA         0.7150   19.4400   25.9090 C.3   134  VAL134      0.1561
    142  C          0.2210   19.6980   27.3100 C.2   134  VAL134      0.2260
    143  O          1.0260   19.8680   28.2280 O.2   134  VAL134     -0.2867
    144  CB         1.6530   18.2060   25.8970 C.3   134  VAL134      0.0252
    145  CG1        0.9550   16.9560   26.4840 C.3   134  VAL134      0.0019
    146  CG2        2.1110   17.9220   24.4960 C.3   134  VAL134      0.0019
    147  N          3.2650   21.0980   29.2840 N.3   146  TRP146     -0.1241
    148  CA         4.5750   20.8920   28.6680 C.3   146  TRP146      0.1605
    149  C          4.5650   21.7130   27.3980 C.2   146  TRP146      0.2264
    150  O          3.5370   21.8480   26.7490 O.2   146  TRP146     -0.2867
    151  CB         4.7590   19.3910   28.3440 C.3   146  TRP146      0.0550
    152  CG         5.9810   18.9310   27.5480 C.ar  146  TRP146      0.0003
    153  CD1        7.0470   18.2330   28.0380 C.ar  146  TRP146      0.0946
    154  CD2        6.1870   19.0270   26.1410 C.ar  146  TRP146      0.0152
    155  NE1        7.9070   17.9210   27.0400 N.ar  146  TRP146     -0.2442
    156  CE2        7.4130   18.4020   25.8580 C.ar  146  TRP146      0.0810
    157  CE3        5.4730   19.6110   25.0760 C.ar  146  TRP146      0.0012
    158  CZ2        7.9310   18.3250   24.5850 C.ar  146  TRP146      0.0191
    159  CZ3        5.9980   19.5280   23.8040 C.ar  146  TRP146      0.0001
    160  CH2        7.2090   18.8780   23.5760 C.ar  146  TRP146      0.0015
    161  N         -5.5110   14.3230   28.0880 N.3   168  THR168     -0.1218
    162  CA        -4.4300   15.0890   27.4680 C.3   168  THR168      0.1862
    163  C         -4.9570   15.9470   26.3290 C.2   168  THR168      0.2287
    164  O         -5.8260   15.5010   25.5600 O.2   168  THR168     -0.2866
    165  CB        -3.3620   14.1470   26.9430 C.3   168  THR168      0.1770
    166  OG1       -2.8420   13.4090   28.0360 O.3   168  THR168     -0.2211
    167  CG2       -2.2020   14.9160   26.2290 C.3   168  THR168      0.0375
    168  N         -3.2870   18.1390   23.1920 N.3   170  VAL170     -0.1245
    169  CA        -2.1210   18.5350   22.4310 C.3   170  VAL170      0.1561
    170  C         -2.5130   19.6890   21.5200 C.2   170  VAL170      0.2260
    171  O         -3.3650   19.5560   20.6220 O.2   170  VAL170     -0.2867
    172  CB        -1.5650   17.3940   21.6140 C.3   170  VAL170      0.0252
    173  CG1       -0.3470   17.8530   20.7790 C.3   170  VAL170      0.0019
    174  CG2       -1.2060   16.1980   22.5440 C.3   170  VAL170      0.0019
@<TRIPOS>BOND
     1   131   130    2
     2   130   129    1
     3     1     2    1
     4     7     6    1
     5     6     5    1
     6     6     8    1
     7   116   114    1
     8   113   112    2
     9   129   132    1
    10   129   128    1
    11     5     2    1
    12     2     3    1
    13   132   133    1
    14   112   111    1
    15   120   119    2
    16   128   119   am
    17   106   107    1
    18     3     4    2
    19   119   118    1
    20   117   118    1
    21   114   111    1
    22   114   115    1
    23   110   111    1
    24   110   108   am
    25   118   121    1
    26   133   134   ar
    27   133   135   ar
    28   107   108    1
    29   108   109    2
    30     9    10    1
    31   134   136   ar
    32   135   137   ar
    33   121   122    1
    34    16    14   am
    35   171   170    2
    36    15    14    2
    37    14    13    1
    38   173   172    1
    39   122   123   ar
    40   122   124   ar
    41    10    13    1
    42    10    11    1
    43   136   138   ar
    44    29    28   ar
    45   123   125   ar
    46   124   126   ar
    47   137   138   ar
    48    30    28   ar
    49    17    11   am
    50    17    18    1
    51   170   169    1
    52   104   103    2
    53    21    22    1
    54    21    18    1
    55   172   169    1
    56   172   174    1
    57   125   127   ar
    58   126   127   ar
    59    28    27    1
    60   138   139    1
    61    11    12    2
    62    18    19    1
    63    23    24    1
    64   169   168    1
    65    19    20    2
    66   103   102    1
    67    27    24    1
    68   105   102    1
    69    24    25    1
    70   102   101    1
    71   160   159   ar
    72   160   158   ar
    73   159   157   ar
    74    49    46    1
    75    49    50    1
    76    45    46    1
    77    52    50   ar
    78   146   144    1
    79   158   156   ar
    80    25    31   am
    81    25    26    2
    82    46    47    1
    83    31    32    1
    84    50    51   ar
    85   157   154   ar
    86   140   141    1
    87   164   163    2
    88   100    99    2
    89   156   154   ar
    90   156   155   ar
    91   144   141    1
    92   144   145    1
    93   141   142    1
    94   154   152   ar
    95   167   165    1
    96    47    48    2
    97    92    91    2
    98    35    32    1
    99    32    33    1
   100   163   162    1
   101    98    99    1
   102    98    97    1
   103   150   149    2
   104    33    34    2
   105    44    43    1
   106   165   162    1
   107   165   166    1
   108   155   153   ar
   109    91    97   am
   110    91    90    1
   111   142   143    2
   112   149   148    1
   113   162   161    1
   114   152   153   ar
   115   152   151    1
   116    43    42    1
   117    93    90    1
   118    93    94    1
   119    72    71    1
   120    36    37    1
   121    90    89    1
   122    95    94    1
   123    41    42    1
   124    41    40    1
   125    71    70    1
   126    96    94    1
   127   151   148    1
   128   148   147    1
   129    37    40    1
   130    37    38    1
   131    88    86    1
   132    70    69    1
   133    84    83    2
   134    53    54    1
   135    59    57    1
   136    38    39    2
   137    76    75    2
   138    61    62    1
   139    61    55   am
   140    83    82    1
   141    82    85    1
   142    82    81    1
   143    69    66    1
   144    62    63    1
   145    86    85    1
   146    86    87    1
   147    57    54    1
   148    57    58    1
   149    54    55    1
   150    64    63    2
   151    63    65   am
   152    75    81   am
   153    75    74    1
   154    55    56    2
   155    65    66    1
   156    66    67    1
   157    77    74    1
   158    77    78    1
   159    74    73    1
   160    58    60    1
   161    78    79   ar
   162    78    80   ar
   163    67    68    2
