@<TRIPOS>MOLECULE
tmp/3rl3A00.pdb
 201 198 0 0 0
SMALL
GASTEIGER

@<TRIPOS>ATOM
      1  N        -26.0120   12.1260   16.0840 N.3    57  HIS57      -0.1241
      2  CA       -26.0470   13.4270   15.4040 C.3    57  HIS57       0.1621
      3  C        -26.5080   14.5540   16.3210 C.2    57  HIS57       0.2264
      4  O        -27.2490   15.4400   15.9030 O.2    57  HIS57      -0.2867
      5  CB       -26.9000   13.3300   14.1330 C.3    57  HIS57       0.0745
      6  CG       -26.2320   12.5750   13.0250 C.ar   57  HIS57       0.0817
      7  ND1      -25.2630   13.1480   12.2320 N.ar   57  HIS57      -0.2268
      8  CD2      -26.3610   11.2960   12.5960 C.ar   57  HIS57       0.1154
      9  CE1      -24.8280   12.2570   11.3530 C.ar   57  HIS57       0.1986
     10  NE2      -25.4770   11.1230   11.5530 N.ar   57  HIS57      -0.2212
     11  N        -20.5260    9.4350   14.2970 N.3    76  ASP76      -0.1239
     12  CA       -21.5140   10.4710   13.9870 C.3    76  ASP76       0.1674
     13  C        -22.2810   10.8330   15.2590 C.2    76  ASP76       0.2266
     14  O        -23.5280   10.8430   15.2870 O.2    76  ASP76      -0.2867
     15  CB       -22.4760   10.0620   12.8570 C.3    76  ASP76       0.1410
     16  CG       -21.8560   10.1980   11.4690 C.2    76  ASP76       0.3668
     17  OD1      -20.6870   10.6260   11.3440 O.co2  76  ASP76      -0.2456
     18  OD2      -22.5640    9.8480   10.4950 O.co2  76  ASP76      -0.2456
     19  N        -17.8570   10.0650   10.0060 N.3   107  ASN107     -0.1225
     20  CA       -17.5010   11.0950    9.0110 C.3   107  ASN107      0.1785
     21  C        -17.8950   12.5100    9.4100 C.2   107  ASN107      0.2597
     22  O        -17.3270   13.4760    8.9020 O.2   107  ASN107     -0.2718
     23  CB       -18.0160   10.7520    7.6250 C.3   107  ASN107      0.1169
     24  CG       -19.4690   10.5160    7.6080 C.2   107  ASN107      0.2627
     25  OD1      -19.9930    9.7630    8.4230 O.2   107  ASN107     -0.2716
     26  ND2      -20.1560   11.1240    6.6550 N.am  107  ASN107     -0.0877
     27  N        -18.8590   12.6340   10.3150 N.am  108  HIS108     -0.1975
     28  CA       -19.2560   13.9850   10.7390 C.3   108  HIS108      0.1656
     29  C        -18.3140   14.6050   11.7670 C.2   108  HIS108      0.2291
     30  O        -18.3930   15.8090   12.0180 O.2   108  HIS108     -0.2864
     31  CB       -20.7050   14.0070   11.2480 C.3   108  HIS108      0.0771
     32  CG       -21.7190   13.9690   10.1490 C.ar  108  HIS108      0.0820
     33  ND1      -22.4580   15.0740    9.7830 N.ar  108  HIS108     -0.2267
     34  CD2      -22.0660   12.9820    9.2910 C.ar  108  HIS108      0.1154
     35  CE1      -23.2590   14.7490    8.7790 C.ar  108  HIS108      0.1986
     36  NE2      -23.0240   13.4930    8.4430 N.ar  108  HIS108     -0.2212
     37  N        -15.6190    4.0350    3.1160 N.3   166  PRO166     -0.2102
     38  CA       -15.3470    4.3100    1.7010 C.3   166  PRO166      0.1504
     39  C        -15.7460    5.7340    1.3040 C.2   166  PRO166      0.2576
     40  O        -16.7820    6.2450    1.7350 O.2   166  PRO166     -0.2718
     41  CB       -16.1830    3.2680    0.9540 C.3   166  PRO166      0.0282
     42  CG       -16.6550    2.2600    1.9630 C.3   166  PRO166      0.0208
     43  CD       -16.5260    2.8930    3.3310 C.3   166  PRO166      0.0893
     44  N        -14.9110    6.3610    0.4770 N.am  167  TRP167     -0.1963
     45  CA       -15.0900    7.7530    0.0860 C.3   167  TRP167      0.1771
     46  C        -16.5070    7.9890   -0.3990 C.2   167  TRP167      0.2620
     47  O        -17.0200    7.2600   -1.2350 O.2   167  TRP167     -0.2715
     48  CB       -14.0930    8.1140   -1.0230 C.3   167  TRP167      0.0590
     49  CG       -13.8460    9.6150   -1.1240 C.ar  167  TRP167      0.0006
     50  CD1      -12.8540   10.3240   -0.5070 C.ar  167  TRP167      0.0946
     51  CD2      -14.6140   10.5630   -1.8730 C.ar  167  TRP167      0.0152
     52  NE1      -12.9580   11.6650   -0.8360 N.ar  167  TRP167     -0.2442
     53  CE2      -14.0320   11.8340   -1.6630 C.ar  167  TRP167      0.0810
     54  CE3      -15.7300   10.4620   -2.7110 C.ar  167  TRP167      0.0012
     55  CZ2      -14.5320   12.9940   -2.2660 C.ar  167  TRP167      0.0191
     56  CZ3      -16.2260   11.6230   -3.3070 C.ar  167  TRP167      0.0001
     57  CH2      -15.6290   12.8640   -3.0740 C.ar  167  TRP167      0.0015
     58  N        -17.1390    9.0100    0.1620 N.am  168  PHE168     -0.1960
     59  CA       -18.4910    9.3540   -0.2030 C.3   168  PHE168      0.1771
     60  C        -18.5480   10.8340   -0.5730 C.2   168  PHE168      0.2619
     61  O        -18.7610   11.1540   -1.7400 O.2   168  PHE168     -0.2715
     62  CB       -19.4400    8.9770    0.9350 C.3   168  PHE168      0.0574
     63  CG       -20.8720    9.3070    0.6680 C.ar  168  PHE168     -0.0200
     64  CD1      -21.4870    8.9040   -0.5130 C.ar  168  PHE168     -0.0042
     65  CD2      -21.6210    9.9950    1.6200 C.ar  168  PHE168     -0.0042
     66  CE1      -22.8320    9.2190   -0.7530 C.ar  168  PHE168     -0.0003
     67  CE2      -22.9590   10.2980    1.3960 C.ar  168  PHE168     -0.0003
     68  CZ       -23.5620    9.9130    0.2030 C.ar  168  PHE168     -0.0000
     69  N        -18.2940   11.7200    0.3830 N.am  169  ASN169     -0.1972
     70  CA       -18.3710   13.1800    0.1420 C.3   169  ASN169      0.1688
     71  C        -17.0940   13.8970    0.5280 C.2   169  ASN169      0.2292
     72  O        -17.0360   15.1350    0.5200 O.2   169  ASN169     -0.2864
     73  CB       -19.5000   13.8380    0.9360 C.3   169  ASN169      0.1181
     74  CG       -20.8730   13.2830    0.6160 C.2   169  ASN169      0.2629
     75  OD1      -21.2440   13.0950   -0.5390 O.2   169  ASN169     -0.2716
     76  ND2      -21.6560   13.0430    1.6660 N.am  169  ASN169     -0.0877
     77  N        -15.9760   13.8710    3.4420 N.3   171  TRP171     -0.1241
     78  CA       -16.2190   14.1530    4.8670 C.3   171  TRP171      0.1605
     79  C        -15.0220   13.5940    5.6720 C.2   171  TRP171      0.2264
     80  O        -13.9340   13.3680    5.1220 O.2   171  TRP171     -0.2867
     81  CB       -17.5440   13.5000    5.3510 C.3   171  TRP171      0.0550
     82  CG       -18.9120   14.1760    5.0170 C.ar  171  TRP171      0.0003
     83  CD1      -19.7020   13.9390    3.9290 C.ar  171  TRP171      0.0946
     84  CD2      -19.6460   15.1100    5.8350 C.ar  171  TRP171      0.0152
     85  NE1      -20.8530   14.6970    3.9880 N.ar  171  TRP171     -0.2442
     86  CE2      -20.8460   15.4220    5.1490 C.ar  171  TRP171      0.0810
     87  CE3      -19.3970   15.7280    7.0670 C.ar  171  TRP171      0.0012
     88  CZ2      -21.7920   16.3260    5.6550 C.ar  171  TRP171      0.0191
     89  CZ3      -20.3440   16.6300    7.5720 C.ar  171  TRP171      0.0001
     90  CH2      -21.5220   16.9200    6.8610 C.ar  171  TRP171      0.0015
     91  N        -11.9150    3.0720   -1.8330 N.3   177  ARG177     -0.1245
     92  CA       -11.9930    1.6320   -1.7530 C.3   177  ARG177      0.1563
     93  C        -10.6910    0.9710   -2.1840 C.2   177  ARG177      0.2260
     94  O         -9.9250    1.5010   -3.0020 O.2   177  ARG177     -0.2867
     95  CB       -13.1560    1.1260   -2.6040 C.3   177  ARG177      0.0307
     96  CG       -14.5110    1.5090   -2.0210 C.3   177  ARG177      0.0489
     97  CD       -15.6900    1.0120   -2.8740 C.3   177  ARG177      0.2205
     98  NE       -16.9480    1.5950   -2.4010 N.pl3 177  ARG177     -0.0865
     99  CZ       -17.7040    1.0780   -1.4350 C.cat 177  ARG177      0.5346
    100  NH1      -17.3390   -0.0450   -0.8270 N.pl3 177  ARG177      0.1354
    101  NH2      -18.8260    1.7000   -1.0770 N.pl3 177  ARG177      0.1354
    102  N        -17.3670    2.6920   11.6630 N.3   198  HIS198     -0.1241
    103  CA       -18.4760    3.6070   11.4790 C.3   198  HIS198      0.1621
    104  C        -19.4770    3.0620   10.4780 C.2   198  HIS198      0.2264
    105  O        -20.6830    3.2050   10.6640 O.2   198  HIS198     -0.2867
    106  CB       -18.0340    5.0150   11.0950 C.3   198  HIS198      0.0745
    107  CG       -19.1890    5.9380   10.8740 C.ar  198  HIS198      0.0817
    108  ND1      -20.1700    6.1360   11.8270 N.ar  198  HIS198     -0.2268
    109  CD2      -19.5410    6.7030    9.8040 C.ar  198  HIS198      0.1154
    110  CE1      -21.0830    6.9730   11.3470 C.ar  198  HIS198      0.1986
    111  NE2      -20.7260    7.3290   10.1190 N.ar  198  HIS198     -0.2212
    112  N        -28.6060    0.8510    0.3660 N.3   208  VAL208     -0.1245
    113  CA       -29.0420    2.2480    0.2880 C.3   208  VAL208      0.1561
    114  C        -30.2100    2.3130   -0.7110 C.2   208  VAL208      0.2260
    115  O        -29.9800    2.2700   -1.9230 O.2   208  VAL208     -0.2867
    116  CB       -27.8720    3.1870   -0.1210 C.3   208  VAL208      0.0252
    117  CG1      -28.3190    4.6430   -0.1950 C.3   208  VAL208      0.0019
    118  CG2      -26.7080    3.0560    0.8740 C.3   208  VAL208      0.0019
    119  N        -32.2280    4.5700   -1.8770 N.3   210  LYS210     -0.1231
    120  CA       -32.3140    5.6600   -2.8520 C.3   210  LYS210      0.1693
    121  C        -31.4200    5.4000   -4.0520 C.2   210  LYS210      0.2591
    122  O        -31.7420    5.8250   -5.1650 O.2   210  LYS210     -0.2718
    123  CB       -32.0250    7.0270   -2.2160 C.3   210  LYS210      0.0285
    124  CG       -30.6060    7.2650   -1.7610 C.3   210  LYS210      0.0035
    125  CD       -30.5680    8.3160   -0.6730 C.3   210  LYS210      0.0206
    126  CE       -29.3620    8.1190    0.2260 C.3   210  LYS210      0.1093
    127  NZ       -29.4040    9.0020    1.4150 N.3   210  LYS210     -0.1314
    128  N        -30.3050    4.7020   -3.8240 N.am  211  GLU211     -0.1979
    129  CA       -29.3360    4.4170   -4.8840 C.3   211  GLU211      0.1602
    130  C        -29.5040    3.0340   -5.4840 C.2   211  GLU211      0.2287
    131  O        -28.8830    2.7320   -6.5080 O.2   211  GLU211     -0.2864
    132  CB       -27.9000    4.5700   -4.3740 C.3   211  GLU211      0.0415
    133  CG       -27.4950    6.0030   -4.0750 C.3   211  GLU211      0.1163
    134  CD       -27.4510    6.8450   -5.3370 C.2   211  GLU211      0.3649
    135  OE1      -26.4140    6.8380   -6.0370 O.co2 211  GLU211     -0.2457
    136  OE2      -28.4670    7.4990   -5.6410 O.co2 211  GLU211     -0.2457
    137  N        -28.2720    0.3400   -4.2750 N.3   213  GLN213     -0.1245
    138  CA       -26.8990   -0.1450   -4.2640 C.3   213  GLN213      0.1566
    139  C        -26.5180   -0.6230   -2.8690 C.2   213  GLN213      0.2260
    140  O        -26.9820   -0.0710   -1.8540 O.2   213  GLN213     -0.2867
    141  CB       -25.9270    0.9610   -4.6830 C.3   213  GLN213      0.0367
    142  CG       -25.8900    1.2200   -6.1870 C.3   213  GLN213      0.0905
    143  CD       -24.6540    1.9680   -6.6270 C.2   213  GLN213      0.2608
    144  OE1      -24.0520    2.7130   -5.8520 O.2   213  GLN213     -0.2717
    145  NE2      -24.2690    1.7820   -7.8910 N.am  213  GLN213     -0.0878
    146  N        -23.3520   -0.6630   -0.3340 N.3   215  VAL215     -0.1245
    147  CA       -22.2210    0.2650   -0.2070 C.3   215  VAL215      0.1561
    148  C        -21.1800   -0.1570    0.8400 C.2   215  VAL215      0.2260
    149  O        -20.2160    0.5810    1.0890 O.2   215  VAL215     -0.2867
    150  CB       -22.6710    1.7220    0.0770 C.3   215  VAL215      0.0252
    151  CG1      -23.6070    2.2440   -1.0280 C.3   215  VAL215      0.0019
    152  CG2      -23.3470    1.8260    1.4410 C.3   215  VAL215      0.0019
    153  N        -23.5820    4.1920   10.1060 N.3   237  GLY237     -0.1210
    154  CA       -23.1720    4.7330    8.8140 C.3   237  GLY237      0.1956
    155  C        -24.3290    4.8540    7.8530 C.2   237  GLY237      0.2612
    156  O        -24.7000    5.9640    7.4410 O.2   237  GLY237     -0.2717
    157  N        -24.8840    3.7010    7.4900 N.am  238  ILE238     -0.1965
    158  CA       -26.0760    3.6520    6.6330 C.3   238  ILE238      0.1727
    159  C        -27.2940    3.6000    7.5430 C.2   238  ILE238      0.2616
    160  O        -27.6370    2.5340    8.0740 O.2   238  ILE238     -0.2715
    161  CB       -25.9980    2.4540    5.6680 C.3   238  ILE238      0.0290
    162  CG1      -24.6990    2.5290    4.8420 C.3   238  ILE238      0.0022
    163  CG2      -27.2420    2.3760    4.7470 C.3   238  ILE238      0.0023
    164  CD1      -24.4760    3.8830    4.0830 C.3   238  ILE238      0.0001
    165  N        -27.9020    4.7630    7.7710 N.am  239  HIS239     -0.1959
    166  CA       -28.9760    4.8530    8.7750 C.3   239  HIS239      0.1787
    167  C        -30.1060    3.8920    8.4510 C.2   239  HIS239      0.2620
    168  O        -30.6980    3.2720    9.3580 O.2   239  HIS239     -0.2715
    169  CB       -29.5410    6.2680    8.8780 C.3   239  HIS239      0.0785
    170  CG       -28.5520    7.3110    9.3120 C.ar  239  HIS239      0.0821
    171  ND1      -28.9250    8.6190    9.5270 N.ar  239  HIS239     -0.2267
    172  CD2      -27.2140    7.2610    9.5560 C.ar  239  HIS239      0.1154
    173  CE1      -27.8660    9.3350    9.8710 C.ar  239  HIS239      0.1986
    174  NE2      -26.8130    8.5350    9.9000 N.ar  239  HIS239     -0.2212
    175  N        -30.4030    3.7790    7.1550 N.am  240  GLU240     -0.1977
    176  CA       -31.4850    2.9050    6.6370 C.3   240  GLU240      0.1602
    177  C        -31.3120    1.4410    7.0110 C.2   240  GLU240      0.2287
    178  O        -32.2720    0.6540    6.9570 O.2   240  GLU240     -0.2864
    179  CB       -31.5720    2.9870    5.0990 C.3   240  GLU240      0.0415
    180  CG       -31.7570    4.3580    4.5090 C.3   240  GLU240      0.1163
    181  CD       -30.4350    5.0150    4.1700 C.2   240  GLU240      0.3649
    182  OE1      -29.6740    5.2690    5.0960 O.co2 240  GLU240     -0.2457
    183  OE2      -30.1540    5.3220    2.9980 O.co2 240  GLU240     -0.2457
    184  N        -32.8980    7.9100    8.1120 N.3   260  VAL260     -0.1245
    185  CA       -32.2800    8.6200    6.9800 C.3   260  VAL260      0.1561
    186  C        -32.6970   10.1090    6.9480 C.2   260  VAL260      0.2260
    187  O        -32.0100   10.9400    6.3460 O.2   260  VAL260     -0.2867
    188  CB       -32.5760    7.9010    5.6250 C.3   260  VAL260      0.0252
    189  CG1      -34.0570    8.0350    5.2630 C.3   260  VAL260      0.0019
    190  CG2      -31.6550    8.4360    4.5010 C.3   260  VAL260      0.0019
    191  N        -32.8890   11.7880    9.7550 N.3   262  PHE262     -0.1241
    192  CA       -32.2180   12.3160   10.9440 C.3   262  PHE262      0.1605
    193  C        -33.1240   12.4450   12.1710 C.2   262  PHE262      0.2264
    194  O        -32.9100   13.3020   13.0300 O.2   262  PHE262     -0.2867
    195  CB       -31.4690   13.6260   10.6120 C.3   262  PHE262      0.0534
    196  CG       -30.1740   13.4040    9.8630 C.ar  262  PHE262     -0.0203
    197  CD1      -30.1790   13.0410    8.5180 C.ar  262  PHE262     -0.0042
    198  CD2      -28.9450   13.5330   10.5110 C.ar  262  PHE262     -0.0042
    199  CE1      -28.9630   12.8200    7.8260 C.ar  262  PHE262     -0.0003
    200  CE2      -27.7380   13.3180    9.8320 C.ar  262  PHE262     -0.0003
    201  CZ       -27.7480   12.9550    8.4910 C.ar  262  PHE262     -0.0000
@<TRIPOS>BOND
     1   145   143   am
     2   143   142    1
     3   143   144    2
     4   131   130    2
     5   142   141    1
     6   135   134   ar
     7   136   134   ar
     8   130   129    1
     9   134   133    1
    10   122   121    2
    11   129   132    1
    12   129   128    1
    13   141   138    1
    14   132   133    1
    15   137   138    1
    16   138   139    1
    17   121   128   am
    18   121   120    1
    19    56    57   ar
    20    56    54   ar
    21    57    55   ar
    22    94    93    2
    23    97    98    1
    24    97    96    1
    25   139   140    2
    26   120   123    1
    27   120   119    1
    28    54    51   ar
    29    95    96    1
    30    95    92    1
    31    98    99    2
    32    55    53   ar
    33   123   124    1
    34    93    92    1
    35   115   114    2
    36    51    53   ar
    37    51    49   ar
    38    91    92    1
    39   124   125    1
    40    61    60    2
    41    53    52   ar
    42    99   101    1
    43    99   100    1
    44    47    46    2
    45    49    48    1
    46    49    50   ar
    47   151   150    1
    48    48    45    1
    49    52    50   ar
    50    66    64   ar
    51    66    68   ar
    52   114   113    1
    53   125   126    1
    54    60    59    1
    55    60    69   am
    56    75    74    2
    57    64    63   ar
    58    46    45    1
    59    46    58   am
    60   146   147    1
    61   147   150    1
    62   147   148    1
    63    59    58    1
    64    59    62    1
    65   117   116    1
    66   116   113    1
    67   116   118    1
    68   150   152    1
    69    45    44    1
    70    70    69    1
    71    70    71    1
    72    70    73    1
    73    68    67   ar
    74   126   127    1
    75   113   112    1
    76    44    39   am
    77    72    71    2
    78    74    73    1
    79    74    76   am
    80    63    62    1
    81    63    65   ar
    82   148   149    2
    83    41    38    1
    84    41    42    1
    85    39    38    1
    86    39    40    2
    87    67    65   ar
    88    38    37    1
    89    42    43    1
    90   183   181   ar
    91    37    43    1
    92    77    78    1
    93    83    85   ar
    94    83    82   ar
    95    85    86   ar
    96   164   162    1
    97   181   180    1
    98   181   182   ar
    99   190   188    1
   100   180   179    1
   101   163   161    1
   102   162   161    1
   103    78    81    1
   104    78    79    1
   105    82    81    1
   106    82    84   ar
   107   179   176    1
   108    80    79    2
   109    86    88   ar
   110    86    84   ar
   111   189   188    1
   112   188   185    1
   113    88    90   ar
   114   161   158    1
   115    84    87   ar
   116   187   186    2
   117   158   157    1
   118   158   159    1
   119   176   177    1
   120   176   175    1
   121    26    24   am
   122    90    89   ar
   123   186   185    1
   124   178   177    2
   125   185   184    1
   126    87    89   ar
   127   175   167   am
   128   156   155    2
   129   157   155   am
   130   159   165   am
   131   159   160    2
   132    24    23    1
   133    24    25    2
   134    23    20    1
   135   165   166    1
   136   199   201   ar
   137   199   197   ar
   138   155   154    1
   139    36    35   ar
   140    36    34   ar
   141   167   166    1
   142   167   168    2
   143   201   200   ar
   144   197   196   ar
   145   166   169    1
   146    35    33   ar
   147   154   153    1
   148   169   170    1
   149    22    21    2
   150    20    21    1
   151    20    19    1
   152    34    32   ar
   153   170   171   ar
   154   170   172   ar
   155    21    27   am
   156   171   173   ar
   157   172   174   ar
   158   191   192    1
   159    33    32   ar
   160   109   111   ar
   161   109   107   ar
   162   200   198   ar
   163   196   198   ar
   164   196   195    1
   165   173   174   ar
   166   111   110   ar
   167    32    31    1
   168    27    28    1
   169   104   105    2
   170   104   103    1
   171    18    16   ar
   172   195   192    1
   173    28    31    1
   174    28    29    1
   175   107   106    1
   176   107   108   ar
   177   192   193    1
   178   106   103    1
   179    17    16   ar
   180   110   108   ar
   181     9    10   ar
   182     9     7   ar
   183    16    15    1
   184   103   102    1
   185    10     8   ar
   186    29    30    2
   187   193   194    2
   188     7     6   ar
   189     8     6   ar
   190    15    12    1
   191     6     5    1
   192    12    11    1
   193    12    13    1
   194     5     2    1
   195    13    14    2
   196     2     1    1
   197     2     3    1
   198     4     3    2
