@<TRIPOS>MOLECULE
tmp/3rl6A01.pdb
 172 160 0 0 0
SMALL
GASTEIGER

@<TRIPOS>ATOM
      1  N        -11.7790   -2.2650    2.9290 N.3    47  ASP47      -0.1239
      2  CA       -12.0820   -1.0230    2.2310 C.3    47  ASP47       0.1674
      3  C        -10.7640   -0.3230    1.8790 C.2    47  ASP47       0.2266
      4  O         -9.9710   -0.0580    2.7700 O.2    47  ASP47      -0.2867
      5  CB       -12.9090   -0.1400    3.1730 C.3    47  ASP47       0.1410
      6  CG       -13.5150    1.0680    2.4750 C.2    47  ASP47       0.3668
      7  OD1      -12.9970    1.4710    1.4070 O.co2  47  ASP47      -0.2456
      8  OD2      -14.5020    1.6210    3.0180 O.co2  47  ASP47      -0.2456
      9  N        -10.4590    2.7430    0.9330 N.3    49  LEU49      -0.1245
     10  CA       -10.5700    4.1410    1.3330 C.3    49  LEU49       0.1561
     11  C         -9.8930    5.0540    0.3190 C.2    49  LEU49       0.2260
     12  O         -9.3690    6.0970    0.6870 O.2    49  LEU49      -0.2867
     13  CB        -9.9690    4.3800    2.7240 C.3    49  LEU49       0.0270
     14  CG       -10.6080    3.5970    3.8670 C.3    49  LEU49       0.0019
     15  CD1       -9.9440    3.9450    5.2030 C.3    49  LEU49       0.0001
     16  CD2      -12.1150    3.8950    3.9060 C.3    49  LEU49       0.0001
     17  N        -10.6560    8.8360   -2.6650 N.3    52  ASP52      -0.1239
     18  CA       -11.5920    9.4590   -1.7430 C.3    52  ASP52       0.1674
     19  C        -11.0480   10.8280   -1.3850 C.2    52  ASP52       0.2266
     20  O         -9.9750   10.9220   -0.7980 O.2    52  ASP52      -0.2867
     21  CB       -11.7450    8.6000   -0.4860 C.3    52  ASP52       0.1410
     22  CG       -12.9270    9.0220    0.3740 C.2    52  ASP52       0.3668
     23  OD1      -13.2790   10.2240    0.3500 O.co2  52  ASP52      -0.2456
     24  OD2      -13.5000    8.1520    1.0790 O.co2  52  ASP52      -0.2456
     25  N        -11.7310   12.7150    0.8660 N.3    54  ALA54      -0.1245
     26  CA       -11.6080   12.9320    2.2960 C.3    54  ALA54       0.1562
     27  C        -10.4000   12.2040    2.8910 C.2    54  ALA54       0.2260
     28  O        -10.1440   12.3060    4.0870 O.2    54  ALA54      -0.2867
     29  CB       -12.8940   12.5150    3.0070 C.3    54  ALA54       0.0290
     30  N         -7.9300    3.0820   11.4810 N.3    99  ARG99      -0.1245
     31  CA        -7.4580    3.8910   10.3610 C.3    99  ARG99       0.1563
     32  C         -6.3110    4.7460   10.8450 C.2    99  ARG99       0.2260
     33  O         -6.5070    5.7090   11.6040 O.2    99  ARG99      -0.2867
     34  CB        -8.5780    4.7610    9.7920 C.3    99  ARG99       0.0307
     35  CG        -9.7010    3.9540    9.1430 C.3    99  ARG99       0.0489
     36  CD       -10.7850    4.8710    8.5840 C.3    99  ARG99       0.2205
     37  NE       -11.9770    4.1170    8.2120 N.pl3  99  ARG99      -0.0865
     38  CZ       -12.9820    4.6240    7.5080 C.cat  99  ARG99       0.5346
     39  NH1      -12.9270    5.8830    7.0780 N.pl3  99  ARG99       0.1354
     40  NH2      -14.0340    3.8760    7.2370 N.pl3  99  ARG99       0.1354
     41  N         -4.4260    7.2640   10.3800 N.3   101  GLU101     -0.1245
     42  CA        -4.2540    8.4920    9.6180 C.3   101  GLU101      0.1567
     43  C         -3.1900    9.3800   10.2650 C.2   101  GLU101      0.2260
     44  O         -2.7900    9.1550   11.4070 O.2   101  GLU101     -0.2867
     45  CB        -5.6030    9.2180    9.4750 C.3   101  GLU101      0.0388
     46  CG        -6.6910    8.2850    8.9020 C.3   101  GLU101      0.1160
     47  CD        -8.0090    8.9620    8.5710 C.2   101  GLU101      0.3649
     48  OE1       -8.0740    9.7150    7.5750 O.co2 101  GLU101     -0.2457
     49  OE2       -9.0040    8.7000    9.2790 O.co2 101  GLU101     -0.2457
     50  N        -12.0930   15.7660   14.9200 N.3   109  ARG109     -0.1231
     51  CA       -13.1730   14.9690   14.3760 C.3   109  ARG109      0.1694
     52  C        -12.7090   13.5300   14.0960 C.2   109  ARG109      0.2592
     53  O        -13.5250   12.6330   13.9060 O.2   109  ARG109     -0.2718
     54  CB       -13.6440   15.6570   13.0880 C.3   109  ARG109      0.0321
     55  CG       -14.8350   15.0510   12.4090 C.3   109  ARG109      0.0489
     56  CD       -15.4380   16.0220   11.3840 C.3   109  ARG109      0.2205
     57  NE       -14.5890   16.2530   10.2130 N.pl3 109  ARG109     -0.0865
     58  CZ       -13.9580   17.3970    9.9480 C.cat 109  ARG109      0.5346
     59  NH1      -14.0590   18.4350   10.7750 N.pl3 109  ARG109      0.1354
     60  NH2      -13.2170   17.5030    8.8500 N.pl3 109  ARG109      0.1354
     61  N        -11.3950   13.3070   14.0850 N.am  110  HIS110     -0.1962
     62  CA       -10.8510   11.9890   13.7530 C.3   110  HIS110      0.1787
     63  C        -10.1770   11.2860   14.9350 C.2   110  HIS110      0.2620
     64  O         -9.4860   11.9130   15.7390 O.2   110  HIS110     -0.2715
     65  CB        -9.7860   12.1030   12.6540 C.3   110  HIS110      0.0785
     66  CG       -10.3180   12.5060   11.3210 C.ar  110  HIS110      0.0821
     67  ND1      -10.6890   13.7980   11.0300 N.ar  110  HIS110     -0.2267
     68  CD2      -10.5030   11.7940   10.1830 C.ar  110  HIS110      0.1154
     69  CE1      -11.0860   13.8660    9.7700 C.ar  110  HIS110      0.1986
     70  NE2      -10.9850   12.6640    9.2350 N.ar  110  HIS110     -0.2212
     71  N        -10.3540    9.9730   15.0100 N.am  111  SER111     -0.1950
     72  CA        -9.5640    9.1300   15.9130 C.3   111  SER111      0.1924
     73  C         -9.1360    7.9000   15.1240 C.2   111  SER111      0.2314
     74  O         -9.8160    7.5160   14.1720 O.2   111  SER111     -0.2863
     75  CB       -10.3500    8.7310   17.1630 C.3   111  SER111      0.2116
     76  OG       -11.5780    8.1480   16.8100 O.3   111  SER111     -0.2180
     77  N        -12.3170    3.8830   15.9480 N.3   114  PHE114     -0.1241
     78  CA       -13.6770    4.3810   16.2200 C.3   114  PHE114      0.1605
     79  C        -14.6890    3.3150   15.7910 C.2   114  PHE114      0.2264
     80  O        -14.3150    2.3450   15.1500 O.2   114  PHE114     -0.2867
     81  CB       -13.9350    5.6750   15.4330 C.3   114  PHE114      0.0534
     82  CG       -13.9020    5.4850   13.9440 C.ar  114  PHE114     -0.0203
     83  CD1      -15.0770    5.3180   13.2220 C.ar  114  PHE114     -0.0042
     84  CD2      -12.6850    5.4450   13.2710 C.ar  114  PHE114     -0.0042
     85  CE1      -15.0430    5.1250   11.8360 C.ar  114  PHE114     -0.0003
     86  CE2      -12.6300    5.2490   11.8930 C.ar  114  PHE114     -0.0003
     87  CZ       -13.8030    5.0910   11.1670 C.ar  114  PHE114     -0.0000
     88  N        -18.4080    2.6710   13.7410 N.3   116  GLN116     -0.1245
     89  CA       -19.4950    3.1970   12.9390 C.3   116  GLN116      0.1566
     90  C        -20.6410    2.2010   12.9450 C.2   116  GLN116      0.2260
     91  O        -20.4310    0.9970   12.8720 O.2   116  GLN116     -0.2867
     92  CB       -19.0560    3.5870   11.5070 C.3   116  GLN116      0.0367
     93  CG       -18.5310    2.4930   10.5970 C.3   116  GLN116      0.0905
     94  CD       -18.3200    2.9920    9.1640 C.2   116  GLN116      0.2608
     95  OE1      -19.2670    3.4040    8.4950 O.2   116  GLN116     -0.2717
     96  NE2      -17.0780    2.9760    8.6980 N.am  116  GLN116     -0.0878
     97  N        -16.7160    0.6690   -4.9320 N.3   194  TYR194     -0.1241
     98  CA       -18.0050    0.1150   -4.5060 C.3   194  TYR194      0.1605
     99  C        -19.2180    1.0650   -4.5640 C.2   194  TYR194      0.2264
    100  O        -20.3430    0.5920   -4.5420 O.2   194  TYR194     -0.2867
    101  CB       -17.9060   -0.5210   -3.1080 C.3   194  TYR194      0.0534
    102  CG       -17.3100    0.3990   -2.0670 C.ar  194  TYR194     -0.0201
    103  CD1      -18.0380    1.4760   -1.5740 C.ar  194  TYR194     -0.0009
    104  CD2      -16.0160    0.1970   -1.5900 C.ar  194  TYR194     -0.0009
    105  CE1      -17.5090    2.3170   -0.6290 C.ar  194  TYR194      0.0417
    106  CE2      -15.4740    1.0370   -0.6370 C.ar  194  TYR194      0.0417
    107  CZ       -16.2340    2.0950   -0.1600 C.ar  194  TYR194      0.1957
    108  OH       -15.7340    2.9480    0.7830 O.3   194  TYR194     -0.2866
    109  N        -18.6260   16.0260    8.7410 N.3   215  GLU215     -0.1231
    110  CA       -19.3050   14.8050    8.3050 C.3   215  GLU215      0.1699
    111  C        -19.5950   13.8810    9.4710 C.2   215  GLU215      0.2592
    112  O        -18.7410   13.6930   10.3370 O.2   215  GLU215     -0.2718
    113  CB       -18.4280   14.0840    7.2640 C.3   215  GLU215      0.0402
    114  CG       -18.9610   12.7550    6.7570 C.3   215  GLU215      0.1161
    115  CD       -17.8400   11.8950    6.1410 C.2   215  GLU215      0.3649
    116  OE1      -16.9030   12.4460    5.5120 O.co2 215  GLU215     -0.2457
    117  OE2      -17.8790   10.6670    6.3210 O.co2 215  GLU215     -0.2457
    118  N        -20.7970   13.3050    9.4950 N.am  216  VAL216     -0.1966
    119  CA       -21.1600   12.3260   10.5230 C.3   216  VAL216      0.1727
    120  C        -21.5960   10.9910    9.9200 C.2   216  VAL216      0.2617
    121  O        -21.6100    9.9670   10.6080 O.2   216  VAL216     -0.2715
    122  CB       -22.2680   12.8510   11.4790 C.3   216  VAL216      0.0290
    123  CG1      -23.6320   13.0000   10.7600 C.3   216  VAL216      0.0023
    124  CG2      -22.3920   11.9500   12.7050 C.3   216  VAL216      0.0023
    125  N        -21.9350   11.0030    8.6330 N.am  217  SER217     -0.1936
    126  CA       -22.3980    9.7930    7.9550 C.3   217  SER217      0.2055
    127  C        -22.0140    9.8250    6.4970 C.2   217  SER217      0.2643
    128  O        -21.9420   10.9010    5.8830 O.2   217  SER217     -0.2714
    129  CB       -23.9280    9.6450    8.0860 C.3   217  SER217      0.2130
    130  OG       -24.4000    8.4190    7.5270 O.3   217  SER217     -0.2179
    131  N        -21.8120    8.6400    5.9210 N.am  218  SER218     -0.1949
    132  CA       -21.4290    8.5130    4.5100 C.3   218  SER218      0.1924
    133  C        -22.0050    7.2170    3.9660 C.2   218  SER218      0.2314
    134  O        -21.9500    6.2060    4.6460 O.2   218  SER218     -0.2863
    135  CB       -19.9070    8.4080    4.4480 C.3   218  SER218      0.2116
    136  OG       -19.3800    8.9280    3.2650 O.3   218  SER218     -0.2180
    137  N        -22.7110    4.3030    6.7640 N.3   262  GLY262     -0.1225
    138  CA       -22.1240    4.1510    8.0810 C.3   262  GLY262      0.1811
    139  C        -22.3410    5.4530    8.8430 C.2   262  GLY262      0.2280
    140  O        -22.2310    6.5290    8.2660 O.2   262  GLY262     -0.2866
    141  N        -20.9950    7.6410   12.1630 N.3   264  GLY264     -0.1225
    142  CA       -19.9560    7.7260   13.1800 C.3   264  GLY264      0.1811
    143  C        -20.5300    7.8820   14.5820 C.2   264  GLY264      0.2280
    144  O        -21.0900    8.9210   14.9110 O.2   264  GLY264     -0.2866
    145  N        -18.9810    7.9600   17.7730 N.3   266  GLU266     -0.1231
    146  CA       -18.2920    8.9590   18.5830 C.3   266  GLU266      0.1699
    147  C        -18.5110   10.3770   18.0450 C.2   266  GLU266      0.2592
    148  O        -18.6260   11.3300   18.8160 O.2   266  GLU266     -0.2718
    149  CB       -16.7860    8.6520   18.6710 C.3   266  GLU266      0.0402
    150  CG       -16.4670    7.3210   19.3390 C.3   266  GLU266      0.1161
    151  CD       -16.3320    6.1570   18.3450 C.2   266  GLU266      0.3649
    152  OE1      -16.8370    6.2430   17.1880 O.co2 266  GLU266     -0.2457
    153  OE2      -15.6980    5.1580   18.7390 O.co2 266  GLU266     -0.2457
    154  N        -18.5430   10.5250   16.7250 N.am  267  ARG267     -0.1980
    155  CA       -18.7800   11.8420   16.1280 C.3   267  ARG267      0.1597
    156  C        -20.1570   12.3540   16.5400 C.2   267  ARG267      0.2287
    157  O        -20.3370   13.5420   16.8290 O.2   267  ARG267     -0.2864
    158  CB       -18.6740   11.7850   14.5990 C.3   267  ARG267      0.0334
    159  CG       -17.2580   11.6130   14.1040 C.3   267  ARG267      0.0492
    160  CD       -17.1070   12.0290   12.6560 C.3   267  ARG267      0.2205
    161  NE       -15.7060   11.9760   12.2350 N.pl3 267  ARG267     -0.0865
    162  CZ       -15.2830   12.2140   10.9980 C.cat 267  ARG267      0.5346
    163  NH1      -16.1510   12.5240   10.0470 N.pl3 267  ARG267      0.1354
    164  NH2      -13.9870   12.1410   10.7140 N.pl3 267  ARG267      0.1354
    165  N        -13.0460   15.1760   19.6610 N.3   278  ILE278     -0.1245
    166  CA       -13.5880   13.8200   19.8090 C.3   278  ILE278      0.1561
    167  C        -12.9150   12.9900   20.9230 C.2   278  ILE278      0.2260
    168  O        -13.5510   12.1450   21.5580 O.2   278  ILE278     -0.2867
    169  CB       -13.5370   13.0560   18.4620 C.3   278  ILE278      0.0252
    170  CG1      -14.3710   11.7880   18.5310 C.3   278  ILE278      0.0019
    171  CG2      -12.1040   12.6990   18.0610 C.3   278  ILE278      0.0019
    172  CD1      -14.5300   11.1270   17.1860 C.3   278  ILE278      0.0001
@<TRIPOS>BOND
     1    97    98    1
     2    99   100    2
     3    99    98    1
     4    98   101    1
     5   101   102    1
     6    17    18    1
     7   102   104   ar
     8   102   103   ar
     9    18    19    1
    10    18    21    1
    11   104   106   ar
    12   103   105   ar
    13    19    20    2
    14   106   107   ar
    15   105   107   ar
    16    21    22    1
    17   107   108    1
    18    11    12    2
    19    11    10    1
    20    23    22   ar
    21    22    24   ar
    22    25    26    1
    23     9    10    1
    24    10    13    1
    25     7     6   ar
    26     3     2    1
    27     3     4    2
    28     2     1    1
    29     2     5    1
    30    26    27    1
    31    26    29    1
    32     6     8   ar
    33     6     5    1
    34    13    14    1
    35    27    28    2
    36   136   135    1
    37    14    16    1
    38    14    15    1
    39   133   132    1
    40   133   134    2
    41   135   132    1
    42   132   131    1
    43   116   115   ar
    44   128   127    2
    45   131   127   am
    46   115   117   ar
    47   115   114    1
    48   127   126    1
    49   114   113    1
    50   137   138    1
    51    39    38    1
    52    40    38    1
    53   113   110    1
    54    38    37    2
    55   130   129    1
    56    48    47   ar
    57   126   129    1
    58   126   125    1
    59   138   139    1
    60    37    36    1
    61   140   139    2
    62   110   109    1
    63   110   111    1
    64    95    94    2
    65    47    46    1
    66    47    49   ar
    67    36    35    1
    68   125   120   am
    69    96    94   am
    70    60    58    1
    71    46    45    1
    72    35    34    1
    73    94    93    1
    74    70    69   ar
    75    70    68   ar
    76   111   118   am
    77   111   112    2
    78    45    42    1
    79   118   119    1
    80    42    43    1
    81    42    41    1
    82    69    67   ar
    83    34    31    1
    84   120   119    1
    85   120   121    2
    86    58    57    2
    87    58    59    1
    88   163   162    1
    89    68    66   ar
    90    57    56    1
    91    43    44    2
    92    31    32    1
    93    31    30    1
    94   119   122    1
    95    93    92    1
    96   164   162    1
    97   123   122    1
    98    32    33    2
    99   162   161    2
   100    67    66   ar
   101    87    85   ar
   102    87    86   ar
   103    66    65    1
   104    56    55    1
   105   122   124    1
   106    92    89    1
   107    85    83   ar
   108    86    84   ar
   109   141   142    1
   110   161   160    1
   111    55    54    1
   112    65    62    1
   113   160   159    1
   114    91    90    2
   115    89    90    1
   116    89    88    1
   117    54    51    1
   118   142   143    1
   119    83    82   ar
   120    84    82   ar
   121    62    61    1
   122    62    63    1
   123    53    52    2
   124    82    81    1
   125    61    52   am
   126    52    51    1
   127   159   158    1
   128    74    73    2
   129    51    50    1
   130   143   144    2
   131   158   155    1
   132    63    71   am
   133    63    64    2
   134    71    72    1
   135    73    72    1
   136    80    79    2
   137    81    78    1
   138    79    78    1
   139    72    75    1
   140    77    78    1
   141   155   156    1
   142   155   154    1
   143   156   157    2
   144   154   147   am
   145    76    75    1
   146   172   170    1
   147   152   151   ar
   148   145   146    1
   149   147   146    1
   150   147   148    2
   151   171   169    1
   152   151   153   ar
   153   151   150    1
   154   169   170    1
   155   169   166    1
   156   146   149    1
   157   149   150    1
   158   165   166    1
   159   166   167    1
   160   167   168    2
