@<TRIPOS>MOLECULE
tmp/3rl7A00.pdb
 77 74 0 0 0
SMALL
GASTEIGER

@<TRIPOS>ATOM
      1  N         37.6110  -24.9620  -12.0770 N.3    18  PHE18      -0.1227
      2  CA        36.5280  -24.4350  -11.2480 C.3    18  PHE18       0.1736
      3  C         36.1670  -22.9910  -11.5790 C.2    18  PHE18       0.2596
      4  O         36.9620  -22.2630  -12.1810 O.2    18  PHE18      -0.2718
      5  CB        36.8410  -24.5900   -9.7460 C.3    18  PHE18       0.0547
      6  CG        38.0390  -23.8030   -9.2760 C.ar   18  PHE18      -0.0202
      7  CD1       37.9110  -22.4710   -8.8810 C.ar   18  PHE18      -0.0042
      8  CD2       39.2930  -24.4030   -9.2020 C.ar   18  PHE18      -0.0042
      9  CE1       39.0160  -21.7480   -8.4350 C.ar   18  PHE18      -0.0003
     10  CE2       40.4050  -23.6880   -8.7530 C.ar   18  PHE18      -0.0003
     11  CZ        40.2680  -22.3580   -8.3710 C.ar   18  PHE18      -0.0000
     12  N         34.9600  -22.5950  -11.1830 N.am   19  SER19      -0.1938
     13  CA        34.5110  -21.2110  -11.2950 C.3    19  SER19       0.2055
     14  C         34.3880  -20.5640   -9.9200 C.2    19  SER19       0.2643
     15  O         34.1800  -21.2490   -8.9170 O.2    19  SER19      -0.2714
     16  CB        33.1790  -21.1320  -12.0420 C.3    19  SER19       0.2130
     17  OG        33.3500  -21.4380  -13.4150 O.3    19  SER19      -0.2179
     18  N         34.5230  -19.2400   -9.8850 N.am   20  ILE20      -0.1963
     19  CA        34.4650  -18.4790   -8.6380 C.3    20  ILE20       0.1727
     20  C         33.4780  -17.3180   -8.7110 C.2    20  ILE20       0.2616
     21  O         33.2360  -16.7620   -9.7830 O.2    20  ILE20      -0.2715
     22  CB        35.8560  -17.9190   -8.2210 C.3    20  ILE20       0.0290
     23  CG1       36.4870  -17.1030   -9.3600 C.3    20  ILE20       0.0022
     24  CG2       36.7760  -19.0450   -7.7540 C.3    20  ILE20       0.0023
     25  CD1       37.4320  -16.0110   -8.8940 C.3    20  ILE20       0.0001
     26  N         32.9120  -16.9660   -7.5610 N.am   21  ALA21      -0.1977
     27  CA        32.1210  -15.7500   -7.4230 C.3    21  ALA21       0.1597
     28  C         32.5880  -14.9750   -6.1970 C.2    21  ALA21       0.2287
     29  O         33.5030  -15.4080   -5.4940 O.2    21  ALA21      -0.2864
     30  CB        30.6370  -16.0770   -7.3240 C.3    21  ALA21       0.0319
     31  N         31.5370   -7.3270   -5.4860 N.3    26  ASN26      -0.1226
     32  CA        30.4550   -8.2050   -5.9150 C.3    26  ASN26       0.1770
     33  C         29.2680   -8.1930   -4.9630 C.2    26  ASN26       0.2439
     34  O         29.4560   -8.1310   -3.7450 O.2    26  ASN26      -0.2733
     35  CB        30.9560   -9.6410   -6.1010 C.3    26  ASN26       0.1168
     36  CG        31.3250   -9.9550   -7.5420 C.2    26  ASN26       0.2627
     37  OD1       31.6020   -9.0590   -8.3410 O.2    26  ASN26      -0.2716
     38  ND2       31.3320  -11.2410   -7.8800 N.am   26  ASN26      -0.0877
     39  N         28.0420   -8.2400   -5.5230 N.am   27  PRO27      -0.2729
     40  CA        26.8050   -8.4110   -4.7730 C.3    27  PRO27       0.1401
     41  C         26.9900   -9.3830   -3.6100 C.2    27  PRO27       0.2269
     42  O         27.3420  -10.5480   -3.8200 O.2    27  PRO27      -0.2865
     43  CB        25.8560   -8.9940   -5.8170 C.3    27  PRO27       0.0296
     44  CG        26.3290   -8.4140   -7.1150 C.3    27  PRO27       0.0237
     45  CD        27.7730   -8.0020   -6.9540 C.3    27  PRO27       0.0939
     46  N         31.8670  -21.7940   -7.1540 N.3    35  THR35      -0.1218
     47  CA        30.4800  -21.9030   -7.6060 C.3    35  THR35       0.1862
     48  C         30.2620  -23.1510   -8.4520 C.2    35  THR35       0.2287
     49  O         29.1520  -23.6890   -8.5070 O.2    35  THR35      -0.2866
     50  CB        30.0540  -20.6720   -8.4280 C.3    35  THR35       0.1770
     51  OG1       30.9560  -20.4930   -9.5300 O.3    35  THR35      -0.2211
     52  CG2       30.0620  -19.4280   -7.5650 C.3    35  THR35       0.0375
     53  N         34.1770  -28.2190  -12.4270 N.3    38  ILE38      -0.1245
     54  CA        33.9810  -28.7790  -13.7650 C.3    38  ILE38       0.1561
     55  C         34.2960  -30.2710  -13.7280 C.2    38  ILE38       0.2260
     56  O         35.1420  -30.7080  -12.9480 O.2    38  ILE38      -0.2867
     57  CB        34.8640  -28.0600  -14.8350 C.3    38  ILE38       0.0252
     58  CG1       34.8850  -26.5330  -14.6280 C.3    38  ILE38       0.0019
     59  CG2       34.4290  -28.4270  -16.2620 C.3    38  ILE38       0.0019
     60  CD1       33.5260  -25.8290  -14.6820 C.3    38  ILE38       0.0001
     61  N         36.9300   -8.9510   -7.2840 N.3    68  HIS68      -0.1241
     62  CA        36.7170  -10.1530   -8.0880 C.3    68  HIS68       0.1621
     63  C         37.8280  -10.3220   -9.1260 C.2    68  HIS68       0.2264
     64  O         38.3900  -11.4090   -9.2690 O.2    68  HIS68      -0.2867
     65  CB        35.3560  -10.0690   -8.7850 C.3    68  HIS68       0.0745
     66  CG        34.9470  -11.3300   -9.4800 C.ar   68  HIS68       0.0817
     67  ND1       34.1430  -12.2770   -8.8850 N.ar   68  HIS68      -0.2268
     68  CD2       35.2260  -11.7970  -10.7200 C.ar   68  HIS68       0.1154
     69  CE1       33.9480  -13.2770   -9.7270 C.ar   68  HIS68       0.1986
     70  NE2       34.5930  -13.0090  -10.8490 N.ar   68  HIS68      -0.2212
     71  N         40.6760  -13.1650   -9.7270 N.3    72  VAL72      -0.1245
     72  CA        40.8150  -13.7800  -11.0510 C.3    72  VAL72       0.1561
     73  C         42.2660  -13.6530  -11.5300 C.2    72  VAL72       0.2260
     74  O         42.8590  -14.6340  -11.9860 O.2    72  VAL72      -0.2867
     75  CB        39.8340  -13.1680  -12.0910 C.3    72  VAL72       0.0252
     76  CG1       40.1220  -13.6980  -13.4950 C.3    72  VAL72       0.0019
     77  CG2       38.3890  -13.4720  -11.7130 C.3    72  VAL72       0.0019
@<TRIPOS>BOND
     1    59    57    1
     2    57    58    1
     3    57    54    1
     4    60    58    1
     5    54    55    1
     6    54    53    1
     7    55    56    2
     8    76    75    1
     9    17    16    1
    10     4     3    2
    11    75    77    1
    12    75    72    1
    13     1     2    1
    14    16    13    1
    15    74    73    2
    16     3     2    1
    17     3    12   am
    18    73    72    1
    19    13    12    1
    20    13    14    1
    21     2     5    1
    22    72    71    1
    23    70    68   ar
    24    70    69   ar
    25    68    66   ar
    26    14    18   am
    27    14    15    2
    28    18    19    1
    29    21    20    2
    30     5     6    1
    31    69    67   ar
    32    51    50    1
    33    66    67   ar
    34    66    65    1
    35    23    25    1
    36    23    22    1
    37     6     8   ar
    38     6     7   ar
    39    64    63    2
    40     8    10   ar
    41    63    62    1
    42     7     9   ar
    43    65    62    1
    44    10    11   ar
    45    20    19    1
    46    20    26   am
    47    19    22    1
    48    49    48    2
    49    48    47    1
    50     9    11   ar
    51    50    47    1
    52    50    52    1
    53    37    36    2
    54    22    24    1
    55    62    61    1
    56    38    36   am
    57    47    46    1
    58    26    27    1
    59    36    35    1
    60    27    30    1
    61    27    28    1
    62    44    45    1
    63    44    43    1
    64    45    39    1
    65    28    29    2
    66    35    32    1
    67    32    31    1
    68    32    33    1
    69    43    40    1
    70    39    33   am
    71    39    40    1
    72    33    34    2
    73    40    41    1
    74    42    41    2
