@<TRIPOS>MOLECULE
tmp/3rl7C00.pdb
 121 116 0 0 0
SMALL
GASTEIGER

@<TRIPOS>ATOM
      1  N          5.3640    3.9690   25.4710 N.3    10  ARG10      -0.1245
      2  CA         6.1360    4.5650   26.5570 C.3    10  ARG10       0.1563
      3  C          6.2210    3.5950   27.7340 C.2    10  ARG10       0.2260
      4  O          5.2060    3.0540   28.1790 O.2    10  ARG10      -0.2867
      5  CB         5.4920    5.8790   27.0020 C.3    10  ARG10       0.0307
      6  CG         6.3880    6.7780   27.8500 C.3    10  ARG10       0.0489
      7  CD         5.6750    8.0780   28.2160 C.3    10  ARG10       0.2205
      8  NE         5.0400    8.6980   27.0520 N.pl3  10  ARG10      -0.0865
      9  CZ         5.6220    9.5910   26.2540 C.cat  10  ARG10       0.5346
     10  NH1        6.8660    9.9970   26.4860 N.pl3  10  ARG10       0.1354
     11  NH2        4.9530   10.0850   25.2220 N.pl3  10  ARG10       0.1354
     12  N         10.1080    6.4950   30.1130 N.3    14  GLY14      -0.1210
     13  CA        10.1120    7.0760   28.7710 C.3    14  GLY14       0.1956
     14  C         10.1250    6.0660   27.6400 C.2    14  GLY14       0.2612
     15  O          9.7750    4.8990   27.8290 O.2    14  GLY14      -0.2717
     16  N         10.5390    6.5270   26.4630 N.am   15  LEU15      -0.1965
     17  CA        10.5600    5.7040   25.2560 C.3    15  LEU15       0.1728
     18  C         11.8610    4.9140   25.1060 C.2    15  LEU15       0.2617
     19  O         11.9570    4.0160   24.2670 O.2    15  LEU15      -0.2715
     20  CB        10.3020    6.5690   24.0150 C.3    15  LEU15       0.0311
     21  CG         8.9310    7.2530   23.9390 C.3    15  LEU15       0.0022
     22  CD1        8.9420    8.4040   22.9450 C.3    15  LEU15       0.0001
     23  CD2        7.8360    6.2490   23.5980 C.3    15  LEU15       0.0001
     24  N         12.8560    5.2580   25.9200 N.am   16  GLY16      -0.1940
     25  CA        14.1090    4.5150   25.9740 C.3    16  GLY16       0.2014
     26  C         15.1380    4.9160   24.9350 C.2    16  GLY16       0.2639
     27  O         15.8490    4.0610   24.4050 O.2    16  GLY16      -0.2714
     28  N         15.2080    6.2140   24.6400 N.am   17  PHE17      -0.1959
     29  CA        16.2480    6.7690   23.7710 C.3    17  PHE17       0.1771
     30  C         16.4860    8.2570   24.0260 C.2    17  PHE17       0.2620
     31  O         15.5860    8.9730   24.4730 O.2    17  PHE17      -0.2715
     32  CB        15.9430    6.5120   22.2820 C.3    17  PHE17       0.0574
     33  CG        14.7670    7.2850   21.7430 C.ar   17  PHE17      -0.0200
     34  CD1       14.9160    8.5990   21.3040 C.ar   17  PHE17      -0.0042
     35  CD2       13.5160    6.6880   21.6470 C.ar   17  PHE17      -0.0042
     36  CE1       13.8280    9.3090   20.7980 C.ar   17  PHE17      -0.0003
     37  CE2       12.4260    7.3910   21.1380 C.ar   17  PHE17      -0.0003
     38  CZ        12.5830    8.7030   20.7130 C.ar   17  PHE17      -0.0000
     39  N         17.7030    8.7120   23.7370 N.am   18  SER18      -0.1936
     40  CA        18.0410   10.1290   23.8260 C.3    18  SER18       0.2055
     41  C         18.1170   10.7530   22.4360 C.2    18  SER18       0.2643
     42  O         18.5190   10.0940   21.4740 O.2    18  SER18      -0.2714
     43  CB        19.3660   10.3200   24.5650 C.3    18  SER18       0.2130
     44  OG        19.2710    9.8560   25.9010 O.3    18  SER18      -0.2179
     45  N         17.7190   12.0200   22.3360 N.am   19  ILE19      -0.1963
     46  CA        17.7780   12.7540   21.0690 C.3    19  ILE19       0.1727
     47  C         18.7420   13.9310   21.1050 C.2    19  ILE19       0.2616
     48  O         19.0380   14.4740   22.1700 O.2    19  ILE19      -0.2715
     49  CB        16.3860   13.2780   20.6020 C.3    19  ILE19       0.0290
     50  CG1       15.8020   14.2790   21.6080 C.3    19  ILE19       0.0022
     51  CG2       15.4430   12.1220   20.3180 C.3    19  ILE19       0.0023
     52  CD1       14.7000   15.1620   21.0460 C.3    19  ILE19       0.0001
     53  N         19.2130   14.3260   19.9250 N.am   20  ALA20      -0.1977
     54  CA        19.9940   15.5450   19.7630 C.3    20  ALA20       0.1597
     55  C         19.4710   16.3360   18.5680 C.2    20  ALA20       0.2287
     56  O         18.5930   15.8680   17.8430 O.2    20  ALA20      -0.2864
     57  CB        21.4680   15.2160   19.5880 C.3    20  ALA20       0.0319
     58  N         20.4230   23.9640   18.1640 N.3    25  ASN25      -0.1226
     59  CA        21.3620   22.9730   18.6770 C.3    25  ASN25       0.1770
     60  C         22.4090   22.5590   17.6390 C.2    25  ASN25       0.2439
     61  O         22.0630   21.9700   16.6120 O.2    25  ASN25      -0.2733
     62  CB        20.5950   21.7510   19.1970 C.3    25  ASN25       0.1168
     63  CG        21.1820   21.1840   20.4820 C.2    25  ASN25       0.2627
     64  OD1       22.1880   21.6730   20.9990 O.2    25  ASN25      -0.2716
     65  ND2       20.5430   20.1440   21.0070 N.am   25  ASN25      -0.0877
     66  N         23.6950   22.8690   17.9110 N.am   26  PRO26      -0.2729
     67  CA        24.8320   22.6070   17.0210 C.3    26  PRO26       0.1401
     68  C         24.9240   21.1400   16.5890 C.2    26  PRO26       0.2269
     69  O         25.9540   20.7170   16.0460 O.2    26  PRO26      -0.2865
     70  CB        26.0460   22.9820   17.8870 C.3    26  PRO26       0.0296
     71  CG        25.5430   22.9590   19.2900 C.3    26  PRO26       0.0237
     72  CD        24.1440   23.4570   19.1840 C.3    26  PRO26       0.0939
     73  N         20.7090    9.5360   19.4330 N.3    33  THR33      -0.1218
     74  CA        22.1060    9.4050   19.8660 C.3    33  THR33       0.1862
     75  C         22.3410    8.2150   20.7940 C.2    33  THR33       0.2287
     76  O         23.4800    7.7670   20.9590 O.2    33  THR33      -0.2866
     77  CB        22.6160   10.6750   20.5740 C.3    33  THR33       0.1770
     78  OG1       21.6950   11.0480   21.6060 O.3    33  THR33      -0.2211
     79  CG2       22.7730   11.8190   19.5860 C.3    33  THR33       0.0375
     80  N         18.4010    2.9960   24.8690 N.3    36  ILE36      -0.1245
     81  CA        18.5010    2.3880   26.1940 C.3    36  ILE36       0.1561
     82  C         18.2450    0.8840   26.1190 C.2    36  ILE36       0.2260
     83  O         17.1610    0.4490   25.7240 O.2    36  ILE36      -0.2867
     84  CB        17.5160    3.0550   27.2080 C.3    36  ILE36       0.0252
     85  CG1       17.9400    4.5010   27.5270 C.3    36  ILE36       0.0019
     86  CG2       17.3680    2.2110   28.4850 C.3    36  ILE36       0.0019
     87  CD1       19.1350    4.6400   28.4780 C.3    36  ILE36       0.0001
     88  N         15.2100   22.3640   20.1180 N.3    66  HIS66      -0.1241
     89  CA        15.4270   21.1010   20.8200 C.3    66  HIS66       0.1621
     90  C         14.2860   20.8090   21.7960 C.2    66  HIS66       0.2264
     91  O         13.6960   19.7260   21.7610 O.2    66  HIS66      -0.2867
     92  CB        16.7800   21.1060   21.5410 C.3    66  HIS66       0.0745
     93  CG        17.1860   19.7670   22.0760 C.ar   66  HIS66       0.0817
     94  ND1       17.4930   18.7000   21.2590 N.ar   66  HIS66      -0.2268
     95  CD2       17.3400   19.3240   23.3460 C.ar   66  HIS66       0.1154
     96  CE1       17.8150   17.6570   22.0020 C.ar   66  HIS66       0.1986
     97  NE2       17.7330   18.0090   23.2720 N.ar   66  HIS66      -0.2212
     98  N         11.4020   17.8260   22.1650 N.3    70  VAL70      -0.1245
     99  CA        11.3640   17.0970   23.4350 C.3    70  VAL70       0.1561
    100  C          9.9420   17.1010   23.9990 C.2    70  VAL70       0.2260
    101  O          9.4330   16.0570   24.4060 O.2    70  VAL70      -0.2867
    102  CB        12.3710   17.6830   24.4690 C.3    70  VAL70       0.0252
    103  CG1       12.1830   17.0520   25.8470 C.3    70  VAL70       0.0019
    104  CG2       13.8030   17.4850   23.9960 C.3    70  VAL70       0.0019
    105  N          7.4570   14.8130   22.0740 N.3    73  LEU73      -0.1231
    106  CA         7.7100   13.4240   22.4470 C.3    73  LEU73       0.1693
    107  C          7.2740   13.1160   23.8810 C.2    73  LEU73       0.2591
    108  O          6.6870   12.0630   24.1400 O.2    73  LEU73      -0.2718
    109  CB         9.1890   13.0900   22.2590 C.3    73  LEU73       0.0284
    110  CG         9.6910   12.7790   20.8480 C.3    73  LEU73       0.0019
    111  CD1       11.1760   13.0910   20.7080 C.3    73  LEU73       0.0001
    112  CD2        9.4160   11.3310   20.5060 C.3    73  LEU73       0.0001
    113  N          7.5670   14.0350   24.8040 N.am   74  LYS74      -0.1980
    114  CA         7.1190   13.9210   26.1940 C.3    74  LYS74       0.1596
    115  C          5.5960   14.0000   26.3120 C.2    74  LYS74       0.2287
    116  O          5.0030   13.3800   27.1980 O.2    74  LYS74      -0.2864
    117  CB         7.7550   15.0070   27.0660 C.3    74  LYS74       0.0298
    118  CG         9.1920   14.7360   27.4760 C.3    74  LYS74       0.0038
    119  CD         9.5680   15.5810   28.6800 C.3    74  LYS74       0.0206
    120  CE        10.9400   15.2140   29.2110 C.3    74  LYS74       0.1093
    121  NZ        11.2080   15.8640   30.5250 N.3    74  LYS74      -0.1314
@<TRIPOS>BOND
     1    69    68    2
     2    68    67    1
     3    61    60    2
     4    67    70    1
     5    67    66    1
     6    60    66   am
     7    60    59    1
     8    56    55    2
     9    70    71    1
    10    66    72    1
    11    58    59    1
    12    55    54    1
    13    59    62    1
    14    72    71    1
    15    62    63    1
    16    73    74    1
    17    79    77    1
    18    57    54    1
    19    54    53    1
    20    74    77    1
    21    74    75    1
    22    53    47   am
    23    88    89    1
    24    51    49    1
    25    63    64    2
    26    63    65   am
    27   112   110    1
    28    77    78    1
    29    49    46    1
    30    49    50    1
    31   111   110    1
    32    38    36   ar
    33    38    37   ar
    34    75    76    2
    35    36    34   ar
    36    89    92    1
    37    89    90    1
    38   110   109    1
    39    52    50    1
    40    46    47    1
    41    46    45    1
    42    47    48    2
    43    37    35   ar
    44    94    96   ar
    45    94    93   ar
    46    34    33   ar
    47    42    41    2
    48    92    93    1
    49    35    33   ar
    50    33    32    1
    51    91    90    2
    52    96    97   ar
    53   105   106    1
    54    93    95   ar
    55    98    99    1
    56   109   106    1
    57    32    29    1
    58    45    41   am
    59    41    40    1
    60   106   107    1
    61    22    21    1
    62    97    95   ar
    63    99   100    1
    64    99   102    1
    65    23    21    1
    66    39    40    1
    67    39    30   am
    68    29    30    1
    69    29    28    1
    70    40    43    1
    71   107   108    2
    72   107   113   am
    73    21    20    1
    74   104   102    1
    75   100   101    2
    76    20    17    1
    77    30    31    2
    78    19    18    2
    79    27    26    2
    80   102   103    1
    81    43    44    1
    82    28    26   am
    83   113   114    1
    84    80    81    1
    85    26    25    1
    86    18    17    1
    87    18    24   am
    88    11     9    1
    89    17    16    1
    90     1     2    1
    91    83    82    2
    92    24    25    1
    93    82    81    1
    94    81    84    1
    95   114   115    1
    96   114   117    1
    97     9    10    1
    98     9     8    2
    99   115   116    2
   100    16    14   am
   101     2     5    1
   102     2     3    1
   103     5     6    1
   104     8     7    1
   105   117   118    1
   106    84    85    1
   107    84    86    1
   108   118   119    1
   109    85    87    1
   110    14    15    2
   111    14    13    1
   112     3     4    2
   113     6     7    1
   114   119   120    1
   115    13    12    1
   116   120   121    1
