@<TRIPOS>MOLECULE
tmp/3rl7B00.pdb
 166 162 0 0 0
SMALL
GASTEIGER

@<TRIPOS>ATOM
      1  N         52.1170  -24.4120   25.6020 N.3    10  ARG10      -0.1245
      2  CA        51.9850  -23.3940   26.6420 C.3    10  ARG10       0.1563
      3  C         52.9140  -23.7070   27.8100 C.2    10  ARG10       0.2260
      4  O         52.9260  -24.8280   28.3210 O.2    10  ARG10      -0.2867
      5  CB        50.5360  -23.2750   27.1300 C.3    10  ARG10       0.0307
      6  CG        50.2670  -22.0280   27.9780 C.3    10  ARG10       0.0489
      7  CD        48.7870  -21.8860   28.3350 C.3    10  ARG10       0.2205
      8  NE        47.9490  -21.7880   27.1390 N.pl3  10  ARG10      -0.0865
      9  CZ        47.6220  -20.6500   26.5320 C.cat  10  ARG10       0.5346
     10  NH1       48.0470  -19.4820   27.0020 N.pl3  10  ARG10       0.1354
     11  NH2       46.8600  -20.6780   25.4470 N.pl3  10  ARG10       0.1354
     12  N         54.5260  -19.7270   32.3830 N.3    13  SER13      -0.1202
     13  CA        54.2240  -18.3060   32.2340 C.3    13  SER13       0.2020
     14  C         53.7330  -17.9840   30.8220 C.2    13  SER13       0.2619
     15  O         54.0640  -16.9360   30.2620 O.2    13  SER13      -0.2717
     16  CB        55.4500  -17.4550   32.5760 C.3    13  SER13       0.2103
     17  OG        56.4120  -17.5120   31.5340 O.3    13  SER13      -0.2182
     18  N         52.9490  -18.8920   30.2470 N.am   14  GLY14      -0.1942
     19  CA        52.3200  -18.6610   28.9490 C.3    14  GLY14       0.2014
     20  C         53.2130  -18.8750   27.7400 C.2    14  GLY14       0.2639
     21  O         54.2570  -19.5260   27.8270 O.2    14  GLY14      -0.2714
     22  N         52.7930  -18.3070   26.6110 N.am   15  LEU15      -0.1963
     23  CA        53.4480  -18.5170   25.3150 C.3    15  LEU15       0.1728
     24  C         54.8030  -17.8220   25.1590 C.2    15  LEU15       0.2617
     25  O         55.5930  -18.1850   24.2850 O.2    15  LEU15      -0.2715
     26  CB        52.5080  -18.1170   24.1690 C.3    15  LEU15       0.0311
     27  CG        51.2480  -18.9690   23.9580 C.3    15  LEU15       0.0022
     28  CD1       50.2900  -18.2930   22.9800 C.3    15  LEU15       0.0001
     29  CD2       51.5930  -20.3840   23.4910 C.3    15  LEU15       0.0001
     30  N         55.0620  -16.8260   26.0010 N.am   16  GLY16      -0.1940
     31  CA        56.3460  -16.1310   26.0100 C.3    16  GLY16       0.2014
     32  C         56.4850  -15.0300   24.9730 C.2    16  GLY16       0.2639
     33  O         57.5930  -14.7450   24.5170 O.2    16  GLY16      -0.2714
     34  N         55.3640  -14.4170   24.5940 N.am   17  PHE17      -0.1959
     35  CA        55.3880  -13.2530   23.7030 C.3    17  PHE17       0.1771
     36  C         54.2790  -12.2370   23.9870 C.2    17  PHE17       0.2620
     37  O         53.3130  -12.5350   24.6920 O.2    17  PHE17      -0.2715
     38  CB        55.4340  -13.6600   22.2140 C.3    17  PHE17       0.0574
     39  CG        54.1640  -14.2920   21.6890 C.ar   17  PHE17      -0.0200
     40  CD1       53.1520  -13.5070   21.1390 C.ar   17  PHE17      -0.0042
     41  CD2       54.0020  -15.6740   21.7010 C.ar   17  PHE17      -0.0042
     42  CE1       51.9900  -14.0890   20.6320 C.ar   17  PHE17      -0.0003
     43  CE2       52.8420  -16.2650   21.1930 C.ar   17  PHE17      -0.0003
     44  CZ        51.8340  -15.4720   20.6610 C.ar   17  PHE17      -0.0000
     45  N         54.4470  -11.0320   23.4480 N.am   18  SER18      -0.1936
     46  CA        53.4730   -9.9620   23.6110 C.3    18  SER18       0.2055
     47  C         52.8990   -9.5380   22.2690 C.2    18  SER18       0.2643
     48  O         53.5830   -9.5890   21.2440 O.2    18  SER18      -0.2714
     49  CB        54.1090   -8.7630   24.3100 C.3    18  SER18       0.2130
     50  OG        54.4600   -9.0820   25.6430 O.3    18  SER18      -0.2179
     51  N         51.6370   -9.1220   22.2840 N.am   19  ILE19      -0.1963
     52  CA        50.9770   -8.6570   21.0730 C.3    19  ILE19       0.1727
     53  C         50.4610   -7.2330   21.2070 C.2    19  ILE19       0.2616
     54  O         49.9250   -6.8450   22.2460 O.2    19  ILE19      -0.2715
     55  CB        49.8310   -9.6020   20.6120 C.3    19  ILE19       0.0290
     56  CG1       48.8020   -9.8250   21.7300 C.3    19  ILE19       0.0022
     57  CG2       50.4000  -10.9250   20.1050 C.3    19  ILE19       0.0023
     58  CD1       47.4240  -10.2210   21.2320 C.3    19  ILE19       0.0001
     59  N         50.6710   -6.4580   20.1490 N.am   20  ALA20      -0.1963
     60  CA        50.0190   -5.1730   19.9660 C.3    20  ALA20       0.1728
     61  C         49.1520   -5.2920   18.7230 C.2    20  ALA20       0.2616
     62  O         49.2360   -6.2860   18.0010 O.2    20  ALA20      -0.2715
     63  CB        51.0460   -4.0710   19.7980 C.3    20  ALA20       0.0334
     64  N         48.3190   -4.2860   18.4740 N.am   21  GLY21      -0.1955
     65  CA        47.4650   -4.2810   17.2910 C.3    21  GLY21       0.1869
     66  C         46.0060   -4.5300   17.6090 C.2    21  GLY21       0.2309
     67  O         45.6040   -4.5300   18.7730 O.2    21  GLY21      -0.2863
     68  N         40.9300   -1.6970   17.1290 N.3    24  ASP24      -0.1225
     69  CA        40.6910   -0.5860   18.0530 C.3    24  ASP24       0.1805
     70  C         41.9810    0.0740   18.5570 C.2    24  ASP24       0.2598
     71  O         41.9370    0.9830   19.3910 O.2    24  ASP24      -0.2718
     72  CB        39.8240   -1.0530   19.2330 C.3    24  ASP24       0.1424
     73  CG        40.3640   -2.3140   19.9100 C.2    24  ASP24       0.3668
     74  OD1       41.3020   -2.9510   19.3780 O.co2  24  ASP24      -0.2456
     75  OD2       39.8330   -2.6740   20.9830 O.co2  24  ASP24      -0.2456
     76  N         43.1200   -0.3800   18.0380 N.am   25  ASN25      -0.1961
     77  CA        44.4260    0.1310   18.4450 C.3    25  ASN25       0.1804
     78  C         45.0660    1.0410   17.4000 C.2    25  ASN25       0.2463
     79  O         44.9390    0.7870   16.2010 O.2    25  ASN25      -0.2730
     80  CB        45.3770   -1.0230   18.7850 C.3    25  ASN25       0.1195
     81  CG        45.2730   -1.4640   20.2370 C.2    25  ASN25       0.2630
     82  OD1       44.3610   -1.0630   20.9640 O.2    25  ASN25      -0.2716
     83  ND2       46.2180   -2.2970   20.6660 N.am   25  ASN25      -0.0877
     84  N         45.7480    2.1110   17.8580 N.am   26  PRO26      -0.2716
     85  CA        46.5080    3.0190   16.9960 C.3    26  PRO26       0.1536
     86  C         47.6180    2.3110   16.2220 C.2    26  PRO26       0.2598
     87  O         48.2540    1.3900   16.7410 O.2    26  PRO26      -0.2715
     88  CB        47.1100    4.0150   17.9870 C.3    26  PRO26       0.0310
     89  CG        46.1620    4.0170   19.1230 C.3    26  PRO26       0.0237
     90  CD        45.7080    2.5980   19.2500 C.3    26  PRO26       0.0939
     91  N         47.8340    2.7600   14.9880 N.am   27  HIS27      -0.1974
     92  CA        48.7720    2.1430   14.0550 C.3    27  HIS27       0.1656
     93  C         48.9890    3.0890   12.8830 C.2    27  HIS27       0.2291
     94  O         48.1490    3.9480   12.6120 O.2    27  HIS27      -0.2864
     95  CB        48.1930    0.8310   13.5220 C.3    27  HIS27       0.0771
     96  CG        46.8630    0.9980   12.8520 C.ar   27  HIS27       0.0820
     97  ND1       45.6730    0.9430   13.5440 N.ar   27  HIS27      -0.2267
     98  CD2       46.5380    1.2490   11.5620 C.ar   27  HIS27       0.1154
     99  CE1       44.6700    1.1410   12.7060 C.ar   27  HIS27       0.1986
    100  NE2       45.1670    1.3280   11.4970 N.ar   27  HIS27      -0.2212
    101  N         50.2600   -7.9870   15.9890 N.3    35  PHE35      -0.1241
    102  CA        51.6680   -8.2800   15.7410 C.3    35  PHE35       0.1605
    103  C         52.5140   -8.4380   17.0060 C.2    35  PHE35       0.2264
    104  O         52.1750   -7.9060   18.0640 O.2    35  PHE35      -0.2867
    105  CB        52.2810   -7.2660   14.7540 C.3    35  PHE35       0.0534
    106  CG        52.6270   -5.9320   15.3590 C.ar   35  PHE35      -0.0203
    107  CD1       53.9550   -5.5900   15.5920 C.ar   35  PHE35      -0.0042
    108  CD2       51.6340   -5.0050   15.6670 C.ar   35  PHE35      -0.0042
    109  CE1       54.2930   -4.3500   16.1370 C.ar   35  PHE35      -0.0003
    110  CE2       51.9600   -3.7620   16.2140 C.ar   35  PHE35      -0.0003
    111  CZ        53.2940   -3.4350   16.4490 C.ar   35  PHE35      -0.0000
    112  N         55.4930   -7.8880   19.5630 N.3    37  THR37      -0.1218
    113  CA        56.2880   -6.7460   20.0020 C.3    37  THR37       0.1862
    114  C         57.4890   -7.1950   20.8200 C.2    37  THR37       0.2287
    115  O         58.5210   -6.5200   20.8510 O.2    37  THR37      -0.2866
    116  CB        55.4540   -5.7730   20.8550 C.3    37  THR37       0.1770
    117  OG1       54.8070   -6.4960   21.9090 O.3    37  THR37      -0.2211
    118  CG2       54.4080   -5.0810   20.0030 C.3    37  THR37       0.0375
    119  N         59.9450  -13.2900   24.9710 N.3    40  ILE40      -0.1245
    120  CA        60.6230  -13.3490   26.2660 C.3    40  ILE40       0.1561
    121  C         61.7190  -14.4100   26.2880 C.2    40  ILE40       0.2260
    122  O         61.4970  -15.5470   25.8670 O.2    40  ILE40      -0.2867
    123  CB        59.5960  -13.6030   27.4150 C.3    40  ILE40       0.0252
    124  CG1       58.6450  -12.4040   27.5840 C.3    40  ILE40       0.0019
    125  CG2       60.2920  -14.0000   28.7360 C.3    40  ILE40       0.0019
    126  CD1       59.2570  -11.1650   28.2270 C.3    40  ILE40       0.0001
    127  N         41.7920   -5.7120   19.9710 N.3    70  HIS70      -0.1226
    128  CA        42.9320   -6.2160   20.7420 C.3    70  HIS70       0.1752
    129  C         42.5210   -7.2750   21.7660 C.2    70  HIS70       0.2596
    130  O         43.2560   -8.2360   21.9980 O.2    70  HIS70      -0.2718
    131  CB        43.6680   -5.0730   21.4460 C.3    70  HIS70       0.0759
    132  CG        44.9980   -5.4720   22.0020 C.ar   70  HIS70       0.0818
    133  ND1       46.1550   -5.4400   21.2540 N.ar   70  HIS70      -0.2268
    134  CD2       45.3520   -5.9340   23.2240 C.ar   70  HIS70       0.1154
    135  CE1       47.1660   -5.8560   21.9950 C.ar   70  HIS70       0.1986
    136  NE2       46.7070   -6.1620   23.1940 N.ar   70  HIS70      -0.2212
    137  N         41.3390   -7.0920   22.3550 N.am   71  SER71      -0.1952
    138  CA        40.8200   -7.9650   23.4110 C.3    71  SER71       0.1924
    139  C         40.3400   -9.3290   22.9080 C.2    71  SER71       0.2314
    140  O         40.4320  -10.3240   23.6330 O.2    71  SER71      -0.2863
    141  CB        39.6920   -7.2540   24.1690 C.3    71  SER71       0.2116
    142  OG        39.0450   -8.1270   25.0840 O.3    71  SER71      -0.2180
    143  N         43.5070  -11.3490   22.2830 N.3    74  VAL74      -0.1245
    144  CA        44.1240  -11.7130   23.5600 C.3    74  VAL74       0.1561
    145  C         43.4290  -12.9520   24.1380 C.2    74  VAL74       0.2260
    146  O         44.0850  -13.9240   24.5220 O.2    74  VAL74      -0.2867
    147  CB        44.0990  -10.5250   24.5560 C.3    74  VAL74       0.0252
    148  CG1       44.3580  -10.9850   25.9790 C.3    74  VAL74       0.0019
    149  CG2       45.1270   -9.4850   24.1550 C.3    74  VAL74       0.0019
    150  N         44.1260  -16.1510   22.1990 N.3    77  LEU77      -0.1231
    151  CA        45.4380  -16.6830   22.5710 C.3    77  LEU77       0.1693
    152  C         45.4550  -17.2810   23.9810 C.2    77  LEU77       0.2591
    153  O         46.2390  -18.1910   24.2580 O.2    77  LEU77      -0.2718
    154  CB        46.5240  -15.6120   22.4270 C.3    77  LEU77       0.0284
    155  CG        47.0310  -15.2920   21.0150 C.3    77  LEU77       0.0019
    156  CD1       47.7560  -13.9610   21.0010 C.3    77  LEU77       0.0001
    157  CD2       47.9380  -16.3950   20.4890 C.3    77  LEU77       0.0001
    158  N         44.5910  -16.7740   24.8610 N.am   78  LYS78      -0.1980
    159  CA        44.4700  -17.2970   26.2270 C.3    78  LYS78       0.1596
    160  C         43.6130  -18.5570   26.3320 C.2    78  LYS78       0.2287
    161  O         43.8570  -19.4030   27.1960 O.2    78  LYS78      -0.2864
    162  CB        43.9230  -16.2350   27.1860 C.3    78  LYS78       0.0298
    163  CG        44.9650  -15.6730   28.1420 C.3    78  LYS78       0.0038
    164  CD        45.4270  -14.2860   27.7330 C.3    78  LYS78       0.0206
    165  CE        44.6310  -13.2140   28.4600 C.3    78  LYS78       0.1093
    166  NZ        45.0790  -13.0150   29.8630 N.3    78  LYS78      -0.1314
@<TRIPOS>BOND
     1   100    98   ar
     2   100    99   ar
     3    98    96   ar
     4    94    93    2
     5    99    97   ar
     6    96    95    1
     7    96    97   ar
     8    93    92    1
     9    95    92    1
    10    92    91    1
    11   105   106    1
    12   105   102    1
    13    91    86   am
    14   106   107   ar
    15   106   108   ar
    16   107   109   ar
    17   108   110   ar
    18   102   101    1
    19   102   103    1
    20   109   111   ar
    21    79    78    2
    22   110   111   ar
    23    86    87    2
    24    86    85    1
    25    85    84    1
    26    85    88    1
    27   103   104    2
    28    68    69    1
    29    65    66    1
    30    65    64    1
    31    78    84   am
    32    78    77    1
    33    66    67    2
    34    84    90    1
    35    88    89    1
    36    62    61    2
    37    76    77    1
    38    76    70   am
    39    69    70    1
    40    69    72    1
    41    77    80    1
    42    64    61   am
    43    70    71    2
    44    61    60    1
    45    80    81    1
    46    89    90    1
    47    72    73    1
    48    74    73   ar
    49   112   113    1
    50    63    60    1
    51    73    75   ar
    52    60    59    1
    53   127   128    1
    54   113   114    1
    55   113   116    1
    56   118   116    1
    57    57    55    1
    58    59    53   am
    59    81    83   am
    60    81    82    2
    61   157   155    1
    62    55    52    1
    63    55    56    1
    64    42    44   ar
    65    42    40   ar
    66    44    43   ar
    67   128   131    1
    68   128   129    1
    69   114   115    2
    70   116   117    1
    71   156   155    1
    72   155   154    1
    73    52    53    1
    74    52    51    1
    75    40    39   ar
    76    43    41   ar
    77    53    54    2
    78    58    56    1
    79    48    47    2
    80   133   135   ar
    81   133   132   ar
    82   131   132    1
    83    39    41   ar
    84    39    38    1
    85   129   130    2
    86   129   137   am
    87   135   136   ar
    88   132   134   ar
    89   150   151    1
    90    38    35    1
    91    47    51   am
    92    47    46    1
    93   143   144    1
    94   137   138    1
    95   154   151    1
    96   151   152    1
    97   139   138    1
    98   139   140    2
    99    28    27    1
   100   136   134   ar
   101   138   141    1
   102    45    46    1
   103    45    36   am
   104    29    27    1
   105   144   145    1
   106   144   147    1
   107    46    49    1
   108    35    36    1
   109    35    34    1
   110    27    26    1
   111   152   153    2
   112   152   158   am
   113    36    37    2
   114   145   146    2
   115   149   147    1
   116   141   142    1
   117    26    23    1
   118    25    24    2
   119    49    50    1
   120    33    32    2
   121   147   148    1
   122    34    32   am
   123   158   159    1
   124   119   120    1
   125    32    31    1
   126    24    23    1
   127    24    30   am
   128    23    22    1
   129    11     9    1
   130     1     2    1
   131   122   121    2
   132    30    31    1
   133   159   160    1
   134   159   162    1
   135   120   121    1
   136   120   123    1
   137   160   161    2
   138     9    10    1
   139     9     8    2
   140    22    20   am
   141     2     5    1
   142     2     3    1
   143     5     6    1
   144     8     7    1
   145   162   163    1
   146   123   124    1
   147   123   125    1
   148   124   126    1
   149   164   163    1
   150   164   165    1
   151    20    21    2
   152    20    19    1
   153     3     4    2
   154     6     7    1
   155   165   166    1
   156    19    18    1
   157    18    14   am
   158    15    14    2
   159    14    13    1
   160    17    16    1
   161    13    12    1
   162    13    16    1
