@<TRIPOS>MOLECULE
tmp/3rl7F00.pdb
 90 86 0 0 0
SMALL
GASTEIGER

@<TRIPOS>ATOM
      1  N         49.7220   14.5250   24.5770 N.3    18  PHE18      -0.1227
      2  CA        49.6060   13.3460   23.7180 C.3    18  PHE18       0.1736
      3  C         50.6670   12.2810   24.0070 C.2    18  PHE18       0.2596
      4  O         51.7400   12.5860   24.5280 O.2    18  PHE18      -0.2718
      5  CB        49.5960   13.7280   22.2240 C.3    18  PHE18       0.0547
      6  CG        50.9010   14.2840   21.7140 C.ar   18  PHE18      -0.0202
      7  CD1       51.8920   13.4380   21.2230 C.ar   18  PHE18      -0.0042
      8  CD2       51.1270   15.6570   21.6950 C.ar   18  PHE18      -0.0042
      9  CE1       53.0960   13.9500   20.7400 C.ar   18  PHE18      -0.0003
     10  CE2       52.3280   16.1770   21.2120 C.ar   18  PHE18      -0.0003
     11  CZ        53.3140   15.3220   20.7350 C.ar   18  PHE18      -0.0000
     12  N         50.3420   11.0320   23.6750 N.am   19  SER19      -0.1938
     13  CA        51.2940    9.9310   23.7730 C.3    19  SER19       0.2055
     14  C         51.7400    9.4850   22.3880 C.2    19  SER19       0.2643
     15  O         51.0020    9.6280   21.4100 O.2    19  SER19      -0.2714
     16  CB        50.7010    8.7530   24.5490 C.3    19  SER19       0.2130
     17  OG        50.4780    9.0960   25.9040 O.3    19  SER19      -0.2179
     18  N         52.9580    8.9540   22.3160 N.am   20  ILE20      -0.1963
     19  CA        53.5390    8.4890   21.0580 C.3    20  ILE20       0.1727
     20  C         54.1160    7.0840   21.1610 C.2    20  ILE20       0.2616
     21  O         54.6180    6.6800   22.2110 O.2    20  ILE20      -0.2715
     22  CB        54.6580    9.4300   20.5360 C.3    20  ILE20       0.0290
     23  CG1       55.6620    9.7630   21.6500 C.3    20  ILE20       0.0022
     24  CG2       54.0580   10.6880   19.9220 C.3    20  ILE20       0.0023
     25  CD1       57.0870    9.9630   21.1680 C.3    20  ILE20       0.0001
     26  N         54.0370    6.3520   20.0550 N.am   21  ALA21      -0.1963
     27  CA        54.7110    5.0710   19.9140 C.3    21  ALA21       0.1728
     28  C         55.7050    5.1780   18.7650 C.2    21  ALA21       0.2616
     29  O         55.9880    6.2790   18.2860 O.2    21  ALA21      -0.2715
     30  CB        53.7030    3.9610   19.6580 C.3    21  ALA21       0.0334
     31  N         56.2350    4.0390   18.3290 N.am   22  GLY22      -0.1955
     32  CA        57.1550    4.0070   17.2010 C.3    22  GLY22       0.1869
     33  C         58.5850    4.3250   17.5870 C.2    22  GLY22       0.2309
     34  O         58.9140    4.4280   18.7670 O.2    22  GLY22      -0.2863
     35  N         61.8660    0.3270   17.9730 N.3    26  ASN26      -0.1226
     36  CA        60.5940   -0.1180   18.5250 C.3    26  ASN26       0.1770
     37  C         59.8320   -1.0520   17.5960 C.2    26  ASN26       0.2439
     38  O         59.9300   -0.9270   16.3730 O.2    26  ASN26      -0.2733
     39  CB        59.7300    1.0770   18.9360 C.3    26  ASN26       0.1168
     40  CG        59.8560    1.4040   20.4140 C.2    26  ASN26       0.2627
     41  OD1       60.8740    1.1150   21.0490 O.2    26  ASN26      -0.2716
     42  ND2       58.8150    2.0080   20.9720 N.am   26  ASN26      -0.0877
     43  N         59.0540   -1.9630   18.1330 N.am   27  PRO27      -0.2729
     44  CA        58.4310   -2.9930   17.3030 C.3    27  PRO27       0.1401
     45  C         57.4660   -2.4210   16.2820 C.2    27  PRO27       0.2269
     46  O         56.4980   -1.8210   16.6570 O.2    27  PRO27      -0.2865
     47  CB        57.6510   -3.7930   18.3270 C.3    27  PRO27       0.0296
     48  CG        58.1640   -3.3810   19.6230 C.3    27  PRO27       0.0237
     49  CD        58.5760   -2.0160   19.5080 C.3    27  PRO27       0.0939
     50  N         49.3940    7.8090   19.5970 N.3    38  THR38      -0.1218
     51  CA        48.4990    6.7440   20.0440 C.3    38  THR38       0.1862
     52  C         47.3870    7.3040   20.9230 C.2    38  THR38       0.2287
     53  O         46.2720    6.7770   20.9400 O.2    38  THR38      -0.2866
     54  CB        49.2490    5.6290   20.8140 C.3    38  THR38       0.1770
     55  OG1       49.7740    6.1470   22.0430 O.3    38  THR38      -0.2211
     56  CG2       50.3830    5.0700   19.9780 C.3    38  THR38       0.0375
     57  N         45.2030   13.4460   24.9840 N.3    41  ILE41      -0.1245
     58  CA        44.5560   13.6880   26.2770 C.3    41  ILE41       0.1561
     59  C         43.4500   14.7310   26.1490 C.2    41  ILE41       0.2260
     60  O         43.7080   15.8800   25.7740 O.2    41  ILE41      -0.2867
     61  CB        45.5650   14.1580   27.3690 C.3    41  ILE41       0.0252
     62  CG1       46.9090   13.4080   27.2840 C.3    41  ILE41       0.0019
     63  CG2       44.9330   14.1020   28.7680 C.3    41  ILE41       0.0019
     64  CD1       46.8410   11.8920   27.5030 C.3    41  ILE41       0.0001
     65  N         63.3990    5.6560   19.7390 N.3    71  HIS71      -0.1241
     66  CA        62.2450    6.1370   20.4860 C.3    71  HIS71       0.1621
     67  C         62.6260    7.1850   21.5330 C.2    71  HIS71       0.2264
     68  O         61.9240    8.1820   21.7090 O.2    71  HIS71      -0.2867
     69  CB        61.5410    4.9630   21.1580 C.3    71  HIS71       0.0745
     70  CG        60.2380    5.3320   21.7850 C.ar   71  HIS71       0.0817
     71  ND1       59.0800    5.4790   21.0540 N.ar   71  HIS71      -0.2268
     72  CD2       59.9100    5.6030   23.0700 C.ar   71  HIS71       0.1154
     73  CE1       58.0910    5.8160   21.8620 C.ar   71  HIS71       0.1986
     74  NE2       58.5680    5.8980   23.0910 N.ar   71  HIS71      -0.2212
     75  N         61.4480   11.0250   22.0920 N.3    75  VAL75      -0.1245
     76  CA        60.8690   11.4210   23.3780 C.3    75  VAL75       0.1561
     77  C         61.6570   12.6070   23.9430 C.2    75  VAL75       0.2260
     78  O         61.0700   13.6030   24.3610 O.2    75  VAL75      -0.2867
     79  CB        60.8250   10.2350   24.3860 C.3    75  VAL75       0.0252
     80  CG1       60.5900   10.7240   25.8190 C.3    75  VAL75       0.0019
     81  CG2       59.7470    9.2350   23.9850 C.3    75  VAL75       0.0019
     82  N         60.5620   16.5640   24.6690 N.3    79  LYS79      -0.1245
     83  CA        60.7320   16.9970   26.0550 C.3    79  LYS79       0.1561
     84  C         61.6310   18.2250   26.1600 C.2    79  LYS79       0.2260
     85  O         61.4570   19.0600   27.0520 O.2    79  LYS79      -0.2867
     86  CB        61.3170   15.8620   26.9040 C.3    79  LYS79       0.0271
     87  CG        60.4550   14.6010   26.9750 C.3    79  LYS79       0.0035
     88  CD        59.2710   14.7450   27.9230 C.3    79  LYS79       0.0206
     89  CE        59.6610   14.4410   29.3630 C.3    79  LYS79       0.1093
     90  NZ        60.1350   13.0380   29.5290 N.3    79  LYS79      -0.1314
@<TRIPOS>BOND
     1    45    46    2
     2    45    44    1
     3    38    37    2
     4    32    33    1
     5    32    31    1
     6    44    43    1
     7    44    47    1
     8    33    34    2
     9    37    43   am
    10    37    36    1
    11    35    36    1
    12    43    49    1
    13    29    28    2
    14    47    48    1
    15    31    28   am
    16    36    39    1
    17    28    27    1
    18    39    40    1
    19    49    48    1
    20    50    51    1
    21    30    27    1
    22    65    66    1
    23    27    26    1
    24    24    22    1
    25    56    54    1
    26    51    54    1
    27    51    52    1
    28    26    20   am
    29    40    42   am
    30    40    41    2
    31    66    69    1
    32    66    67    1
    33    22    19    1
    34    22    23    1
    35    11     9   ar
    36    11    10   ar
    37     9     7   ar
    38    54    55    1
    39    52    53    2
    40    71    70   ar
    41    71    73   ar
    42    19    20    1
    43    19    18    1
    44    69    70    1
    45    20    21    2
    46    25    23    1
    47    10     8   ar
    48     7     6   ar
    49    15    14    2
    50    67    68    2
    51     8     6   ar
    52     6     5    1
    53    70    72   ar
    54    73    74   ar
    55    75    76    1
    56     5     2    1
    57    18    14   am
    58    14    13    1
    59    72    74   ar
    60    76    77    1
    61    76    79    1
    62    12    13    1
    63    12     3   am
    64     2     3    1
    65     2     1    1
    66    13    16    1
    67    77    78    2
    68    81    79    1
    69     3     4    2
    70    79    80    1
    71    16    17    1
    72    82    83    1
    73    57    58    1
    74    60    59    2
    75    83    84    1
    76    83    86    1
    77    59    58    1
    78    84    85    2
    79    58    61    1
    80    86    87    1
    81    87    88    1
    82    62    61    1
    83    62    64    1
    84    61    63    1
    85    88    89    1
    86    89    90    1
