@<TRIPOS>MOLECULE
tmp/3rl7E00.pdb
 125 120 0 0 0
SMALL
GASTEIGER

@<TRIPOS>ATOM
      1  N         46.8070   28.2420  -13.0170 N.3    10  ARG10      -0.1245
      2  CA        45.8740   27.9750  -14.0970 C.3    10  ARG10       0.1563
      3  C         46.5970   27.1740  -15.1730 C.2    10  ARG10       0.2260
      4  O         47.4880   27.6850  -15.8540 O.2    10  ARG10      -0.2867
      5  CB        45.3170   29.2790  -14.6710 C.3    10  ARG10       0.0307
      6  CG        44.0980   29.0910  -15.5660 C.3    10  ARG10       0.0489
      7  CD        43.3370   30.3950  -15.7610 C.3    10  ARG10       0.2205
      8  NE        42.9240   30.9880  -14.4890 N.pl3  10  ARG10      -0.0865
      9  CZ        41.8030   30.6880  -13.8350 C.cat  10  ARG10       0.5346
     10  NH1       40.9490   29.7940  -14.3240 N.pl3  10  ARG10       0.1354
     11  NH2       41.5330   31.2890  -12.6850 N.pl3  10  ARG10       0.1354
     12  N         44.0440   23.7140  -19.5610 N.3    13  SER13      -0.1202
     13  CA        42.5840   23.6480  -19.5900 C.3    13  SER13       0.2020
     14  C         41.9670   24.0550  -18.2490 C.2    13  SER13       0.2619
     15  O         40.8910   23.5810  -17.8750 O.2    13  SER13      -0.2717
     16  CB        42.1220   22.2480  -20.0030 C.3    13  SER13       0.2103
     17  OG        42.9140   21.2460  -19.3850 O.3    13  SER13      -0.2182
     18  N         42.6550   24.9420  -17.5340 N.am   14  GLY14      -0.1942
     19  CA        42.1430   25.4830  -16.2820 C.3    14  GLY14       0.2014
     20  C         42.8080   24.9100  -15.0470 C.2    14  GLY14       0.2639
     21  O         43.9900   24.5720  -15.0640 O.2    14  GLY14      -0.2714
     22  N         42.0340   24.7920  -13.9750 N.am   15  LEU15      -0.1963
     23  CA        42.5660   24.3730  -12.6820 C.3    15  LEU15       0.1728
     24  C         42.5270   22.8580  -12.4790 C.2    15  LEU15       0.2617
     25  O         43.1490   22.3360  -11.5510 O.2    15  LEU15      -0.2715
     26  CB        41.8480   25.1140  -11.5480 C.3    15  LEU15       0.0311
     27  CG        41.9620   26.6450  -11.5690 C.3    15  LEU15       0.0022
     28  CD1       40.9670   27.2830  -10.6130 C.3    15  LEU15       0.0001
     29  CD2       43.3850   27.1060  -11.2590 C.3    15  LEU15       0.0001
     30  N         41.7980   22.1640  -13.3490 N.am   16  GLY16      -0.1940
     31  CA        41.8250   20.7040  -13.4070 C.3    16  GLY16       0.2014
     32  C         40.9580   19.9670  -12.4030 C.2    16  GLY16       0.2639
     33  O         41.3380   18.8990  -11.9220 O.2    16  GLY16      -0.2714
     34  N         39.7950   20.5300  -12.0890 N.am   17  PHE17      -0.1959
     35  CA        38.8080   19.8590  -11.2400 C.3    17  PHE17       0.1771
     36  C         37.3840   20.3000  -11.5720 C.2    17  PHE17       0.2620
     37  O         37.1840   21.2890  -12.2730 O.2    17  PHE17      -0.2715
     38  CB        39.1120   20.0680   -9.7470 C.3    17  PHE17       0.0574
     39  CG        39.0420   21.5060   -9.2950 C.ar   17  PHE17      -0.0200
     40  CD1       37.8480   22.0470   -8.8240 C.ar   17  PHE17      -0.0042
     41  CD2       40.1750   22.3120   -9.3200 C.ar   17  PHE17      -0.0042
     42  CE1       37.7860   23.3720   -8.3970 C.ar   17  PHE17      -0.0003
     43  CE2       40.1200   23.6360   -8.8940 C.ar   17  PHE17      -0.0003
     44  CZ        38.9240   24.1670   -8.4340 C.ar   17  PHE17      -0.0000
     45  N         36.4030   19.5560  -11.0680 N.am   18  SER18      -0.1936
     46  CA        34.9940   19.9010  -11.2410 C.3    18  SER18       0.2055
     47  C         34.3590   20.2240   -9.8920 C.2    18  SER18       0.2643
     48  O         34.7190   19.6270   -8.8760 O.2    18  SER18      -0.2714
     49  CB        34.2410   18.7480  -11.9080 C.3    18  SER18       0.2130
     50  OG        34.8950   18.3290  -13.0920 O.3    18  SER18      -0.2179
     51  N         33.4190   21.1680   -9.8810 N.am   19  ILE19      -0.1963
     52  CA        32.7160   21.5290   -8.6450 C.3    19  ILE19       0.1727
     53  C         31.2040   21.3470   -8.7210 C.2    19  ILE19       0.2616
     54  O         30.6020   21.4530   -9.7910 O.2    19  ILE19      -0.2715
     55  CB        33.0190   22.9820   -8.1660 C.3    19  ILE19       0.0290
     56  CG1       32.7500   24.0030   -9.2810 C.3    19  ILE19       0.0022
     57  CG2       34.4410   23.0840   -7.6200 C.3    19  ILE19       0.0023
     58  CD1       32.3270   25.3740   -8.7830 C.3    19  ILE19       0.0001
     59  N         30.6130   21.0550   -7.5650 N.am   20  ALA20      -0.1963
     60  CA        29.1680   21.0460   -7.3910 C.3    20  ALA20       0.1728
     61  C         28.8190   21.9160   -6.1850 C.2    20  ALA20       0.2616
     62  O         29.7030   22.5320   -5.5810 O.2    20  ALA20      -0.2715
     63  CB        28.6630   19.6210   -7.2000 C.3    20  ALA20       0.0334
     64  N         27.5340   21.9740   -5.8430 N.am   21  GLY21      -0.1955
     65  CA        27.0810   22.7370   -4.6840 C.3    21  GLY21       0.1869
     66  C         26.6850   24.1640   -5.0090 C.2    21  GLY21       0.2309
     67  O         26.7960   24.6070   -6.1540 O.2    21  GLY21      -0.2863
     68  N         34.2280   17.3210   -6.9800 N.3    28  THR28      -0.1203
     69  CA        33.5800   16.0620   -7.3500 C.3    28  THR28       0.1994
     70  C         34.4960   15.1600   -8.1760 C.2    28  THR28       0.2617
     71  O         34.3430   13.9360   -8.1760 O.2    28  THR28      -0.2717
     72  CB        32.2790   16.3080   -8.1440 C.3    28  THR28       0.1784
     73  OG1       32.4790   17.3740   -9.0820 O.3    28  THR28      -0.2211
     74  CG2       31.1370   16.6720   -7.2110 C.3    28  THR28       0.0376
     75  N         35.4430   15.7790   -8.8780 N.am   29  LYS29      -0.1979
     76  CA        36.3270   15.0840   -9.8020 C.3    29  LYS29       0.1596
     77  C         37.5650   15.9360  -10.0450 C.2    29  LYS29       0.2287
     78  O         37.4530   17.1260  -10.3430 O.2    29  LYS29      -0.2864
     79  CB        35.5960   14.8310  -11.1280 C.3    29  LYS29       0.0298
     80  CG        36.3440   13.9710  -12.1360 C.3    29  LYS29       0.0038
     81  CD        35.4870   13.7280  -13.3720 C.3    29  LYS29       0.0206
     82  CE        36.2110   12.8830  -14.4090 C.3    29  LYS29       0.1093
     83  NZ        37.2450   13.6570  -15.1540 N.3    29  LYS29      -0.1314
     84  N         40.6340   16.2440  -12.5580 N.3    31  ILE31      -0.1245
     85  CA        41.0670   15.8290  -13.8910 C.3    31  ILE31       0.1561
     86  C         42.5110   15.3340  -13.8490 C.2    31  ILE31       0.2260
     87  O         43.4460   16.1270  -13.7110 O.2    31  ILE31      -0.2867
     88  CB        40.9380   16.9930  -14.9240 C.3    31  ILE31       0.0252
     89  CG1       39.5730   17.7020  -14.8170 C.3    31  ILE31       0.0019
     90  CG2       41.2440   16.5140  -16.3520 C.3    31  ILE31       0.0019
     91  CD1       38.3590   16.8690  -15.2180 C.3    31  ILE31       0.0001
     92  N         25.9530   28.5800   -7.7860 N.3    61  HIS61      -0.1241
     93  CA        26.9120   27.7740   -8.5360 C.3    61  HIS61       0.1621
     94  C         27.4880   28.5360   -9.7320 C.2    61  HIS61       0.2264
     95  O         28.5320   28.1630  -10.2670 O.2    61  HIS61      -0.2867
     96  CB        26.2740   26.4600   -8.9900 C.3    61  HIS61       0.0745
     97  CG        27.2510   25.4870   -9.5710 C.ar   61  HIS61       0.0817
     98  ND1       28.1860   24.8240   -8.8040 N.ar   61  HIS61      -0.2268
     99  CD2       27.4440   25.0680  -10.8440 C.ar   61  HIS61       0.1154
    100  CE1       28.9100   24.0380   -9.5800 C.ar   61  HIS61       0.1986
    101  NE2       28.4790   24.1650  -10.8220 N.ar   61  HIS61      -0.2212
    102  N         31.5120   29.7250   -9.8500 N.3    65  VAL65      -0.1245
    103  CA        32.1740   29.5140  -11.1340 C.3    65  VAL65       0.1561
    104  C         32.8190   30.8230  -11.5960 C.2    65  VAL65       0.2260
    105  O         33.9610   30.8240  -12.0580 O.2    65  VAL65      -0.2867
    106  CB        31.1890   28.9400  -12.1950 C.3    65  VAL65       0.0252
    107  CG1       31.5810   29.3410  -13.6180 C.3    65  VAL65       0.0019
    108  CG2       31.1010   27.4250  -12.0710 C.3    65  VAL65       0.0019
    109  N         36.0050   31.2220   -9.8650 N.3    68  LEU68      -0.1231
    110  CA        37.0300   30.2550  -10.2700 C.3    68  LEU68       0.1693
    111  C         37.6170   30.4780  -11.6710 C.2    68  LEU68       0.2591
    112  O         38.5960   29.8290  -12.0470 O.2    68  LEU68      -0.2718
    113  CB        36.5040   28.8240  -10.1160 C.3    68  LEU68       0.0284
    114  CG        36.5000   28.2540   -8.6930 C.3    68  LEU68       0.0019
    115  CD1       35.7250   26.9520   -8.6370 C.3    68  LEU68       0.0001
    116  CD2       37.9170   28.0550   -8.1740 C.3    68  LEU68       0.0001
    117  N         37.0210   31.3970  -12.4290 N.am   69  LYS69      -0.1980
    118  CA        37.5390   31.7900  -13.7420 C.3    69  LYS69       0.1596
    119  C         38.1740   33.1830  -13.6810 C.2    69  LYS69       0.2287
    120  O         39.0730   33.4960  -14.4660 O.2    69  LYS69      -0.2864
    121  CB        36.4260   31.7960  -14.7990 C.3    69  LYS69       0.0298
    122  CG        35.4230   30.6490  -14.7180 C.3    69  LYS69       0.0038
    123  CD        35.7680   29.4920  -15.6380 C.3    69  LYS69       0.0206
    124  CE        34.6080   28.5100  -15.7050 C.3    69  LYS69       0.1093
    125  NZ        34.8160   27.4510  -16.7300 N.3    69  LYS69      -0.1314
@<TRIPOS>BOND
     1    16    13    1
     2    16    17    1
     3    13    12    1
     4    13    14    1
     5    14    15    2
     6    14    18   am
     7    18    19    1
     8   125   124    1
     9    90    88    1
    10    19    20    1
    11     4     3    2
    12     7     6    1
    13     7     8    1
    14   124   123    1
    15   123   122    1
    16     6     5    1
    17    91    89    1
    18     3     2    1
    19    83    82    1
    20    21    20    2
    21    20    22   am
    22    88    89    1
    23    88    85    1
    24   121   122    1
    25   121   118    1
    26     5     2    1
    27     8     9    2
    28   120   119    2
    29    82    81    1
    30    10     9    1
    31     2     1    1
    32    22    23    1
    33    85    86    1
    34    85    84    1
    35    86    87    2
    36     9    11    1
    37   118   119    1
    38   118   117    1
    39   107   106    1
    40    31    30    1
    41    31    32    1
    42    81    80    1
    43    30    24   am
    44    50    49    1
    45    23    24    1
    46    23    26    1
    47    24    25    2
    48   117   111   am
    49    32    34   am
    50    32    33    2
    51    37    36    2
    52   106   108    1
    53   106   103    1
    54    80    79    1
    55    34    35    1
    56   105   104    2
    57   112   111    2
    58    49    46    1
    59   111   110    1
    60   104   103    1
    61    36    35    1
    62    36    45   am
    63    27    26    1
    64    27    29    1
    65    27    28    1
    66    46    45    1
    67    46    47    1
    68    35    38    1
    69   103   102    1
    70    79    76    1
    71    99   101   ar
    72    99    97   ar
    73   101   100   ar
    74    78    77    2
    75   110   113    1
    76   110   109    1
    77    95    94    2
    78   113   114    1
    79    77    76    1
    80    47    51   am
    81    47    48    2
    82    51    52    1
    83    76    75    1
    84    54    53    2
    85    38    39    1
    86    94    93    1
    87   100    98   ar
    88    97    96    1
    89    97    98   ar
    90    41    39   ar
    91    41    43   ar
    92    39    40   ar
    93    56    58    1
    94    56    55    1
    95    73    72    1
    96    96    93    1
    97    43    44   ar
    98    75    70   am
    99    40    42   ar
   100    53    52    1
   101    53    59   am
   102   114   115    1
   103   114   116    1
   104    52    55    1
   105    93    92    1
   106    44    42   ar
   107    71    70    2
   108    70    69    1
   109    55    57    1
   110    72    69    1
   111    72    74    1
   112    59    60    1
   113    60    63    1
   114    60    61    1
   115    69    68    1
   116    61    64   am
   117    61    62    2
   118    67    66    2
   119    64    65    1
   120    66    65    1
