@<TRIPOS>MOLECULE
tmp/3rlbA07.pdb
 167 164 0 0 0
SMALL
GASTEIGER

@<TRIPOS>ATOM
      1  N         30.6460  -27.9520   41.6560 N.3    28  TRP28      -0.1241
      2  CA        30.7110  -26.5460   42.1220 C.3    28  TRP28       0.1605
      3  C         30.3250  -25.4820   41.0980 C.2    28  TRP28       0.2264
      4  O         30.5730  -24.3530   41.3020 O.2    28  TRP28      -0.2867
      5  CB        32.0610  -26.2260   42.7560 C.3    28  TRP28       0.0550
      6  CG        32.1010  -26.5210   44.2340 C.ar   28  TRP28       0.0003
      7  CD1       32.7260  -27.5570   44.8460 C.ar   28  TRP28       0.0946
      8  CD2       31.5140  -25.7270   45.2750 C.ar   28  TRP28       0.0152
      9  NE1       32.5400  -27.4870   46.2020 N.ar   28  TRP28      -0.2442
     10  CE2       31.8110  -26.3620   46.4970 C.ar   28  TRP28       0.0810
     11  CE3       30.7620  -24.5440   45.2840 C.ar   28  TRP28       0.0012
     12  CZ2       31.3820  -25.8470   47.7410 C.ar   28  TRP28       0.0191
     13  CZ3       30.3400  -24.0200   46.5070 C.ar   28  TRP28       0.0001
     14  CH2       30.6620  -24.6700   47.7210 C.ar   28  TRP28       0.0015
     15  N         27.5240  -23.4650   39.9660 N.3    30  ILE30      -0.1245
     16  CA        26.3600  -23.0610   40.7320 C.3    30  ILE30       0.1561
     17  C         25.7810  -21.7610   40.2030 C.2    30  ILE30       0.2260
     18  O         26.4340  -21.0570   39.4610 O.2    30  ILE30      -0.2867
     19  CB        26.7060  -22.8870   42.2550 C.3    30  ILE30       0.0252
     20  CG1       27.7750  -21.7850   42.4890 C.3    30  ILE30       0.0019
     21  CG2       27.1030  -24.2550   42.8890 C.3    30  ILE30       0.0019
     22  CD1       27.9320  -21.3660   43.9970 C.3    30  ILE30       0.0001
     23  N         24.4920  -18.4870   41.8630 N.3    32  GLU32      -0.1245
     24  CA        24.4580  -17.9440   43.2250 C.3    32  GLU32       0.1567
     25  C         23.5010  -16.7300   43.3440 C.2    32  GLU32       0.2260
     26  O         23.9530  -15.5700   43.4310 O.2    32  GLU32      -0.2867
     27  CB        25.8620  -17.6410   43.7440 C.3    32  GLU32       0.0388
     28  CG        25.9090  -17.5430   45.3070 C.3    32  GLU32       0.1160
     29  CD        27.2760  -17.0510   45.8800 C.2    32  GLU32       0.3649
     30  OE1       28.0750  -16.4540   45.1340 O.co2  32  GLU32      -0.2457
     31  OE2       27.4730  -17.1830   47.1050 O.co2  32  GLU32      -0.2457
     32  N         31.2160  -23.8820   53.3050 N.3    68  TYR68      -0.1241
     33  CA        32.1390  -25.0100   53.0480 C.3    68  TYR68       0.1605
     34  C         33.5550  -24.5420   53.3100 C.2    68  TYR68       0.2264
     35  O         34.1390  -23.8260   52.4880 O.2    68  TYR68      -0.2867
     36  CB        31.9550  -25.5310   51.6000 C.3    68  TYR68       0.0534
     37  CG        30.5800  -26.1140   51.4250 C.ar   68  TYR68      -0.0201
     38  CD1       30.3090  -27.4110   51.8480 C.ar   68  TYR68      -0.0009
     39  CD2       29.5350  -25.3580   50.9050 C.ar   68  TYR68      -0.0009
     40  CE1       29.0530  -27.9630   51.7330 C.ar   68  TYR68       0.0417
     41  CE2       28.2500  -25.9150   50.7750 C.ar   68  TYR68       0.0417
     42  CZ        28.0340  -27.2120   51.1940 C.ar   68  TYR68       0.1957
     43  OH        26.8000  -27.7790   51.1060 O.3    68  TYR68      -0.2866
     44  N         41.2340  -20.1380   53.5980 N.3    74  GLN74      -0.1245
     45  CA        40.2200  -20.3880   52.6050 C.3    74  GLN74       0.1566
     46  C         38.8940  -19.7430   53.0430 C.2    74  GLN74       0.2260
     47  O         38.2070  -19.1130   52.2360 O.2    74  GLN74      -0.2867
     48  CB        40.0660  -21.8690   52.3320 C.3    74  GLN74       0.0367
     49  CG        38.9070  -22.2290   51.3730 C.3    74  GLN74       0.0905
     50  CD        37.6160  -22.4680   52.1120 C.2    74  GLN74       0.2608
     51  OE1       37.6300  -22.7690   53.3360 O.2    74  GLN74      -0.2717
     52  NE2       36.4820  -22.3480   51.3960 N.am   74  GLN74      -0.0878
     53  N         36.8390  -16.9900   50.8850 N.3    78  GLU78      -0.1231
     54  CA        35.5350  -17.3310   50.2640 C.3    78  GLU78       0.1699
     55  C         34.3000  -16.9080   51.0030 C.2    78  GLU78       0.2592
     56  O         33.2660  -16.7420   50.3590 O.2    78  GLU78      -0.2718
     57  CB        35.4590  -18.8070   49.9850 C.3    78  GLU78       0.0402
     58  CG        36.5900  -19.2300   49.1000 C.3    78  GLU78       0.1161
     59  CD        36.2380  -20.4420   48.3130 C.2    78  GLU78       0.3649
     60  OE1       35.6130  -20.2390   47.2500 O.co2  78  GLU78      -0.2457
     61  OE2       36.5970  -21.5580   48.7470 O.co2  78  GLU78      -0.2457
     62  N         34.3810  -16.7130   52.3280 N.am   79  TYR79      -0.1976
     63  CA        33.2540  -16.2220   53.0910 C.3    79  TYR79       0.1639
     64  C         33.4110  -14.8800   53.8190 C.2    79  TYR79       0.2290
     65  O         32.4540  -14.4460   54.4810 O.2    79  TYR79      -0.2864
     66  CB        32.7460  -17.2940   54.0510 C.3    79  TYR79       0.0560
     67  CG        32.2260  -18.4950   53.3420 C.ar   79  TYR79      -0.0198
     68  CD1       30.9160  -18.5500   52.8770 C.ar   79  TYR79      -0.0009
     69  CD2       33.0570  -19.6020   53.1530 C.ar   79  TYR79      -0.0009
     70  CE1       30.4530  -19.6910   52.1950 C.ar   79  TYR79       0.0417
     71  CE2       32.6280  -20.7230   52.4820 C.ar   79  TYR79       0.0417
     72  CZ        31.3390  -20.7720   52.0030 C.ar   79  TYR79       0.1957
     73  OH        31.0000  -21.9370   51.3800 O.3    79  TYR79      -0.2866
     74  N         33.5890  -11.0480   42.7940 N.3   115  LYS115     -0.1231
     75  CA        33.3500  -12.1480   43.7230 C.3   115  LYS115      0.1693
     76  C         33.9290  -13.4860   43.1600 C.2   115  LYS115      0.2592
     77  O         34.6550  -14.1910   43.8620 O.2   115  LYS115     -0.2718
     78  CB        31.8610  -12.3140   44.0030 C.3   115  LYS115      0.0285
     79  CG        31.6290  -13.2630   45.0950 C.3   115  LYS115      0.0035
     80  CD        30.1980  -13.3400   45.5540 C.3   115  LYS115      0.0206
     81  CE        30.0500  -14.1040   46.8620 C.3   115  LYS115      0.1093
     82  NZ        30.1110  -15.5770   46.7360 N.3   115  LYS115     -0.1314
     83  N         33.5890  -13.8130   41.8970 N.am  116  TYR116     -0.1976
     84  CA        34.0340  -15.0520   41.3170 C.3   116  TYR116      0.1639
     85  C         35.5430  -15.0460   40.9690 C.2   116  TYR116      0.2290
     86  O         36.1930  -16.1080   40.8560 O.2   116  TYR116     -0.2864
     87  CB        33.0490  -15.5220   40.1910 C.3   116  TYR116      0.0560
     88  CG        31.9530  -16.1960   40.8950 C.ar  116  TYR116     -0.0198
     89  CD1       30.9340  -15.4430   41.4910 C.ar  116  TYR116     -0.0009
     90  CD2       32.0070  -17.5740   41.1700 C.ar  116  TYR116     -0.0009
     91  CE1       29.9680  -16.0550   42.2120 C.ar  116  TYR116      0.0417
     92  CE2       31.0190  -18.1960   41.9150 C.ar  116  TYR116      0.0417
     93  CZ        30.0120  -17.4300   42.4470 C.ar  116  TYR116      0.1957
     94  OH        29.0340  -18.0280   43.2390 O.3   116  TYR116     -0.2866
     95  N         36.7370  -16.4690   44.1760 N.3   119  HIS119     -0.1241
     96  CA        36.5060  -17.9080   44.1440 C.3   119  HIS119      0.1621
     97  C         37.4780  -18.6380   43.2130 C.2   119  HIS119      0.2264
     98  O         37.9510  -19.7060   43.5470 O.2   119  HIS119     -0.2867
     99  CB        35.0460  -18.2180   43.8180 C.3   119  HIS119      0.0745
    100  CG        34.1030  -17.7330   44.8520 C.ar  119  HIS119      0.0817
    101  ND1       34.2350  -18.0540   46.1870 N.ar  119  HIS119     -0.2268
    102  CD2       32.9990  -16.9410   44.7470 C.ar  119  HIS119      0.1154
    103  CE1       33.2530  -17.4690   46.8600 C.ar  119  HIS119      0.1986
    104  NE2       32.4970  -16.7880   46.0070 N.ar  119  HIS119     -0.2212
    105  N         39.9700  -21.4740   44.2220 N.3   123  GLY123     -0.1225
    106  CA        39.8520  -22.7660   43.5220 C.3   123  GLY123      0.1811
    107  C         41.2140  -23.3270   43.2270 C.2   123  GLY123      0.2280
    108  O         41.4470  -24.5270   43.3970 O.2   123  GLY123     -0.2866
    109  N         41.1550  -26.2360   46.1080 N.3   127  TRP127     -0.1241
    110  CA        40.1460  -27.1580   45.6090 C.3   127  TRP127      0.1605
    111  C         40.6470  -28.0120   44.5020 C.2   127  TRP127      0.2264
    112  O         39.8580  -28.7510   43.9310 O.2   127  TRP127     -0.2867
    113  CB        38.8690  -26.3690   45.1330 C.3   127  TRP127      0.0550
    114  CG        38.0840  -25.6800   46.2830 C.ar  127  TRP127      0.0003
    115  CD1       38.2670  -24.4180   46.7430 C.ar  127  TRP127      0.0946
    116  CD2       37.0460  -26.2590   47.1130 C.ar  127  TRP127      0.0152
    117  NE1       37.3990  -24.1570   47.7850 N.ar  127  TRP127     -0.2442
    118  CE2       36.6570  -25.2820   48.0380 C.ar  127  TRP127      0.0810
    119  CE3       36.4320  -27.5250   47.1720 C.ar  127  TRP127      0.0012
    120  CZ2       35.6840  -25.5160   49.0030 C.ar  127  TRP127      0.0191
    121  CZ3       35.4600  -27.7630   48.1420 C.ar  127  TRP127      0.0001
    122  CH2       35.0870  -26.7610   49.0320 C.ar  127  TRP127      0.0015
    123  N         40.0000  -31.8270   43.4330 N.3   130  TYR130     -0.1241
    124  CA        38.7630  -32.2180   42.7230 C.3   130  TYR130      0.1605
    125  C         38.8080  -32.0030   41.2190 C.2   130  TYR130      0.2264
    126  O         37.8460  -32.2830   40.5400 O.2   130  TYR130     -0.2867
    127  CB        37.5370  -31.4960   43.3350 C.3   130  TYR130      0.0534
    128  CG        37.4400  -31.7670   44.8370 C.ar  130  TYR130     -0.0201
    129  CD1       37.2050  -33.0740   45.3110 C.ar  130  TYR130     -0.0009
    130  CD2       37.6760  -30.7750   45.7730 C.ar  130  TYR130     -0.0009
    131  CE1       37.1730  -33.3620   46.6720 C.ar  130  TYR130      0.0417
    132  CE2       37.6340  -31.0590   47.1450 C.ar  130  TYR130      0.0417
    133  CZ        37.3820  -32.3610   47.5750 C.ar  130  TYR130      0.1957
    134  OH        37.3390  -32.6780   48.9150 O.3   130  TYR130     -0.2866
    135  N         40.8260  -25.9460   35.6940 N.3   140  TYR140     -0.1227
    136  CA        39.6800  -26.4200   36.4500 C.3   140  TYR140      0.1736
    137  C         38.9860  -25.2650   37.1910 C.2   140  TYR140      0.2596
    138  O         37.7780  -25.1680   37.1020 O.2   140  TYR140     -0.2718
    139  CB        40.0980  -27.5210   37.4250 C.3   140  TYR140      0.0548
    140  CG        39.0060  -27.9690   38.3390 C.ar  140  TYR140     -0.0200
    141  CD1       37.8610  -28.6190   37.8450 C.ar  140  TYR140     -0.0009
    142  CD2       39.1100  -27.7750   39.7200 C.ar  140  TYR140     -0.0009
    143  CE1       36.8390  -29.0420   38.6840 C.ar  140  TYR140      0.0417
    144  CE2       38.0950  -28.2140   40.5600 C.ar  140  TYR140      0.0417
    145  CZ        36.9560  -28.8410   40.0380 C.ar  140  TYR140      0.1957
    146  OH        35.9360  -29.2240   40.9040 O.3   140  TYR140     -0.2866
    147  N         39.7590  -24.4140   37.8920 N.am  141  SER141     -0.1952
    148  CA        39.1840  -23.3270   38.6820 C.3   141  SER141      0.1924
    149  C         38.5650  -22.2820   37.7920 C.2   141  SER141      0.2314
    150  O         37.4940  -21.7750   38.0790 O.2   141  SER141     -0.2863
    151  CB        40.2010  -22.6360   39.5880 C.3   141  SER141      0.2116
    152  OG        39.4940  -21.7940   40.4980 O.3   141  SER141     -0.2180
    153  N         35.1830  -23.8330   36.5100 N.3   144  VAL144     -0.1231
    154  CA        34.1540  -23.9030   37.4870 C.3   144  VAL144      0.1692
    155  C         33.6730  -22.5240   37.9040 C.2   144  VAL144      0.2592
    156  O         32.4850  -22.2540   37.9250 O.2   144  VAL144     -0.2718
    157  CB        34.6090  -24.6960   38.7030 C.3   144  VAL144      0.0266
    158  CG1       33.6500  -24.4790   39.8630 C.3   144  VAL144      0.0020
    159  CG2       34.7490  -26.2200   38.3290 C.3   144  VAL144      0.0020
    160  N         34.5940  -21.6520   38.2670 N.am  145  ASN145     -0.1974
    161  CA        34.2430  -20.3990   38.8170 C.3   145  ASN145      0.1688
    162  C         33.8440  -19.3940   37.7150 C.2   145  ASN145      0.2292
    163  O         33.0520  -18.5380   37.9490 O.2   145  ASN145     -0.2864
    164  CB        35.3840  -19.8760   39.6930 C.3   145  ASN145      0.1181
    165  CG        35.6000  -20.7640   40.9140 C.2   145  ASN145      0.2629
    166  OD1       36.6740  -21.3700   41.1140 O.2   145  ASN145     -0.2716
    167  ND2       34.5400  -20.9250   41.6830 N.am  145  ASN145     -0.0877
@<TRIPOS>BOND
     1   135   136    1
     2   136   137    1
     3   136   139    1
     4   153   154    1
     5   138   137    2
     6   137   147   am
     7   139   140    1
     8   154   155    1
     9   154   157    1
    10   162   163    2
    11   162   161    1
    12   149   150    2
    13   149   148    1
    14   141   140   ar
    15   141   143   ar
    16   147   148    1
    17   155   156    2
    18   155   160   am
    19   160   161    1
    20   159   157    1
    21   140   142   ar
    22   148   151    1
    23   143   145   ar
    24   157   158    1
    25   161   164    1
    26    18    17    2
    27   151   152    1
    28   164   165    1
    29   142   144   ar
    30    15    16    1
    31   145   144   ar
    32   145   146    1
    33    87    88    1
    34    87    84    1
    35    17    16    1
    36   126   125    2
    37    16    19    1
    38    86    85    2
    39    88    90   ar
    40    88    89   ar
    41   165   166    2
    42   165   167   am
    43    85    84    1
    44     3     4    2
    45     3     2    1
    46    90    92   ar
    47   125   124    1
    48    84    83    1
    49    89    91   ar
    50     1     2    1
    51    23    24    1
    52    83    76   am
    53    92    93   ar
    54     2     5    1
    55    91    93   ar
    56    19    20    1
    57    19    21    1
    58    93    94    1
    59    20    22    1
    60   124   127    1
    61   124   123    1
    62     5     6    1
    63    74    75    1
    64    76    75    1
    65    76    77    2
    66    97    98    2
    67    97    96    1
    68    24    25    1
    69    24    27    1
    70   107   108    2
    71   107   106    1
    72   127   128    1
    73    25    26    2
    74   106   105    1
    75    75    78    1
    76    27    28    1
    77    99    96    1
    78    99   100    1
    79   112   111    2
    80    78    79    1
    81    96    95    1
    82     6     7   ar
    83     6     8   ar
    84   111   110    1
    85   102   100   ar
    86   102   104   ar
    87   128   129   ar
    88   128   130   ar
    89     7     9   ar
    90   100   101   ar
    91    79    80    1
    92   113   110    1
    93   113   114    1
    94    30    29   ar
    95     8    11   ar
    96     8    10   ar
    97    11    13   ar
    98    28    29    1
    99   129   131   ar
   100    80    81    1
   101   110   109    1
   102   130   132   ar
   103    29    31   ar
   104   104   103   ar
   105   101   103   ar
   106     9    10   ar
   107   114   115   ar
   108   114   116   ar
   109    10    12   ar
   110    13    14   ar
   111   131   133   ar
   112    82    81    1
   113   115   117   ar
   114   116   119   ar
   115   116   118   ar
   116   132   133   ar
   117   119   121   ar
   118    60    59   ar
   119   133   134    1
   120    14    12   ar
   121   117   118   ar
   122   118   120   ar
   123   121   122   ar
   124    59    61   ar
   125    59    58    1
   126   120   122   ar
   127    58    57    1
   128    57    54    1
   129    54    53    1
   130    54    55    1
   131    56    55    2
   132    41    39   ar
   133    41    42   ar
   134    39    37   ar
   135    55    62   am
   136    43    42    1
   137    42    40   ar
   138    49    50    1
   139    49    48    1
   140    73    72    1
   141    52    50   am
   142    37    36    1
   143    37    38   ar
   144    36    33    1
   145    40    38   ar
   146    72    70   ar
   147    72    71   ar
   148    50    51    2
   149    70    68   ar
   150    47    46    2
   151    62    63    1
   152    48    45    1
   153    71    69   ar
   154    35    34    2
   155    45    46    1
   156    45    44    1
   157    68    67   ar
   158    33    32    1
   159    33    34    1
   160    63    64    1
   161    63    66    1
   162    69    67   ar
   163    67    66    1
   164    64    65    2
