@<TRIPOS>MOLECULE
tmp/3rlcA03.pdb
 107 107 0 0 0
SMALL
GASTEIGER

@<TRIPOS>ATOM
      1  N        -16.6510  -32.5800  -32.2630 N.3    33  PRO33      -0.2102
      2  CA       -17.4500  -31.4400  -32.7350 C.3    33  PRO33       0.1504
      3  C        -16.7610  -30.0720  -32.6530 C.2    33  PRO33       0.2576
      4  O        -17.4060  -29.0700  -32.3130 O.2    33  PRO33      -0.2718
      5  CB       -18.6940  -31.4760  -31.8320 C.3    33  PRO33       0.0282
      6  CG       -18.7700  -32.8840  -31.3520 C.3    33  PRO33       0.0208
      7  CD       -17.3420  -33.3210  -31.1910 C.3    33  PRO33       0.0893
      8  N        -15.4730  -30.0260  -32.9850 N.am   34  TRP34      -0.1963
      9  CA       -14.7470  -28.7660  -33.0240 C.3    34  TRP34       0.1756
     10  C        -13.6940  -28.7710  -34.1210 C.2    34  TRP34       0.2461
     11  O        -13.2610  -29.8420  -34.5720 O.2    34  TRP34      -0.2730
     12  CB       -14.1310  -28.4330  -31.6630 C.3    34  TRP34       0.0590
     13  CG       -13.3180  -29.5320  -31.0890 C.ar   34  TRP34       0.0006
     14  CD1      -12.0190  -29.8460  -31.3960 C.ar   34  TRP34       0.0946
     15  CD2      -13.7390  -30.4880  -30.0990 C.ar   34  TRP34       0.0152
     16  NE1      -11.6090  -30.9450  -30.6620 N.ar   34  TRP34      -0.2442
     17  CE2      -12.6430  -31.3580  -29.8630 C.ar   34  TRP34       0.0810
     18  CE3      -14.9350  -30.6970  -29.3930 C.ar   34  TRP34       0.0012
     19  CZ2      -12.7090  -32.4150  -28.9530 C.ar   34  TRP34       0.0191
     20  CZ3      -14.9960  -31.7500  -28.4860 C.ar   34  TRP34       0.0001
     21  CH2      -13.8860  -32.5960  -28.2760 C.ar   34  TRP34       0.0015
     22  N        -13.3040  -27.5640  -34.5750 N.am   35  PRO35      -0.2727
     23  CA       -12.1950  -27.4210  -35.4960 C.3    35  PRO35       0.1402
     24  C        -10.8810  -27.6590  -34.7830 C.2    35  PRO35       0.2269
     25  O        -10.7510  -27.2740  -33.6190 O.2    35  PRO35      -0.2865
     26  CB       -12.2770  -25.9520  -35.9240 C.3    35  PRO35       0.0296
     27  CG       -13.6120  -25.4770  -35.5020 C.3    35  PRO35       0.0237
     28  CD       -13.9260  -26.2600  -34.2880 C.3    35  PRO35       0.0939
     29  N         -7.3830  -26.1860  -35.2070 N.3    37  TYR37      -0.1241
     30  CA        -6.8530  -24.9990  -35.8890 C.3    37  TYR37       0.1605
     31  C         -5.3760  -25.1350  -36.2440 C.2    37  TYR37       0.2264
     32  O         -4.7160  -26.1120  -35.8680 O.2    37  TYR37      -0.2867
     33  CB        -7.0670  -23.7300  -35.0580 C.3    37  TYR37       0.0534
     34  CG        -8.5020  -23.3050  -34.8940 C.ar   37  TYR37      -0.0201
     35  CD1       -8.9980  -22.2050  -35.5800 C.ar   37  TYR37      -0.0009
     36  CD2       -9.3630  -23.9840  -34.0290 C.ar   37  TYR37      -0.0009
     37  CE1      -10.3370  -21.7820  -35.4210 C.ar   37  TYR37       0.0417
     38  CE2      -10.6940  -23.5710  -33.8610 C.ar   37  TYR37       0.0417
     39  CZ       -11.1720  -22.4690  -34.5660 C.ar   37  TYR37       0.1957
     40  OH       -12.4780  -22.0530  -34.4110 O.3    37  TYR37      -0.2866
     41  N        -13.4090  -28.9150  -23.2990 N.3    94  MET94      -0.1230
     42  CA       -13.5580  -28.3830  -24.6450 C.3    94  MET94       0.1702
     43  C        -15.0250  -28.2850  -25.0670 C.2    94  MET94       0.2592
     44  O        -15.4120  -27.2890  -25.6920 O.2    94  MET94      -0.2718
     45  CB       -12.7310  -29.1840  -25.6500 C.3    94  MET94       0.0401
     46  CG       -12.9620  -28.8160  -27.0990 C.3    94  MET94       0.0596
     47  SD       -11.9100  -27.4960  -27.7190 S.3    94  MET94      -0.1393
     48  CE       -10.2990  -28.1280  -27.2260 C.3    94  MET94       0.0692
     49  N        -15.8270  -29.3030  -24.7350 N.am   95  ARG95      -0.1980
     50  CA       -17.2740  -29.2430  -24.9840 C.3    95  ARG95       0.1597
     51  C        -17.8730  -28.0580  -24.2480 C.2    95  ARG95       0.2287
     52  O        -18.6090  -27.2690  -24.8370 O.2    95  ARG95      -0.2864
     53  CB       -18.0060  -30.5420  -24.5870 C.3    95  ARG95       0.0334
     54  CG       -18.1560  -31.5270  -25.7520 C.3    95  ARG95       0.0492
     55  CD       -18.4500  -32.9740  -25.3200 C.3    95  ARG95       0.2205
     56  NE       -17.6350  -33.9770  -26.0470 N.pl3  95  ARG95      -0.0865
     57  CZ       -17.9460  -34.5290  -27.2300 C.cat  95  ARG95       0.5346
     58  NH1      -19.0740  -34.1980  -27.8640 N.pl3  95  ARG95       0.1354
     59  NH2      -17.1280  -35.4310  -27.7820 N.pl3  95  ARG95       0.1354
     60  N        -16.5210  -25.3380  -23.0450 N.3    97  GLN97      -0.1245
     61  CA       -15.9430  -24.0030  -23.2270 C.3    97  GLN97       0.1566
     62  C        -16.2670  -23.0870  -22.0410 C.2    97  GLN97       0.2260
     63  O        -16.7390  -21.9600  -22.2320 O.2    97  GLN97      -0.2867
     64  CB       -16.4140  -23.3390  -24.5300 C.3    97  GLN97       0.0367
     65  CG       -15.9160  -24.0030  -25.8100 C.3    97  GLN97       0.0905
     66  CD       -14.3840  -24.0650  -25.9400 C.2    97  GLN97       0.2608
     67  OE1      -13.6850  -23.0630  -25.7320 O.2    97  GLN97      -0.2717
     68  NE2      -13.8700  -25.2420  -26.3170 N.am   97  GLN97      -0.0878
     69  N        -12.0650  -20.4470  -22.7330 N.3   100  ASP100     -0.1225
     70  CA       -11.8650  -20.4760  -24.1670 C.3   100  ASP100      0.1805
     71  C        -10.6710  -21.3540  -24.4420 C.2   100  ASP100      0.2598
     72  O         -9.5680  -21.0840  -23.9890 O.2   100  ASP100     -0.2718
     73  CB       -11.7040  -19.0720  -24.7180 C.3   100  ASP100      0.1424
     74  CG       -12.9120  -18.2060  -24.4140 C.2   100  ASP100      0.3668
     75  OD1      -14.0360  -18.6890  -24.6780 O.co2 100  ASP100     -0.2456
     76  OD2      -12.7560  -17.0660  -23.8960 O.co2 100  ASP100     -0.2456
     77  N        -10.9270  -22.4370  -25.1570 N.am  101  ILE101     -0.1966
     78  CA        -9.9630  -23.4790  -25.3940 C.3   101  ILE101      0.1727
     79  C        -10.1600  -23.9150  -26.8430 C.2   101  ILE101      0.2616
     80  O        -11.2490  -24.3600  -27.2170 O.2   101  ILE101     -0.2715
     81  CB       -10.2530  -24.7040  -24.4890 C.3   101  ILE101      0.0290
     82  CG1      -10.3420  -24.3120  -23.0220 C.3   101  ILE101      0.0022
     83  CG2       -9.2060  -25.8210  -24.6940 C.3   101  ILE101      0.0023
     84  CD1      -11.0970  -25.3090  -22.2010 C.3   101  ILE101      0.0001
     85  N         -9.1170  -23.7830  -27.6600 N.am  102  ARG102     -0.1977
     86  CA        -9.1480  -24.3060  -29.0210 C.3   102  ARG102      0.1597
     87  C         -8.1750  -25.4540  -29.1340 C.2   102  ARG102      0.2287
     88  O         -7.1420  -25.4640  -28.4430 O.2   102  ARG102     -0.2864
     89  CB        -8.8070  -23.2170  -30.0250 C.3   102  ARG102      0.0334
     90  CG        -9.9140  -22.1980  -30.1530 C.3   102  ARG102      0.0492
     91  CD        -9.7600  -21.2640  -31.3420 C.3   102  ARG102      0.2205
     92  NE       -10.8840  -20.3260  -31.3540 N.pl3 102  ARG102     -0.0865
     93  CZ       -10.9680  -19.2260  -32.1000 C.cat 102  ARG102      0.5346
     94  NH1       -9.9890  -18.8960  -32.9370 N.pl3 102  ARG102      0.1354
     95  NH2      -12.0400  -18.4470  -32.0080 N.pl3 102  ARG102      0.1354
     96  N         -2.6470  -17.7490  -27.6140 N.3   125  TYR125     -0.1241
     97  CA        -2.9390  -19.0740  -27.0780 C.3   125  TYR125      0.1605
     98  C         -1.6740  -19.7100  -26.5930 C.2   125  TYR125      0.2264
     99  O         -0.5920  -19.4040  -27.0970 O.2   125  TYR125     -0.2867
    100  CB        -3.5260  -19.9710  -28.1410 C.3   125  TYR125      0.0534
    101  CG        -4.9780  -19.7170  -28.4180 C.ar  125  TYR125     -0.0201
    102  CD1       -5.9690  -20.5190  -27.8340 C.ar  125  TYR125     -0.0009
    103  CD2       -5.3750  -18.6790  -29.2740 C.ar  125  TYR125     -0.0009
    104  CE1       -7.3290  -20.2980  -28.0980 C.ar  125  TYR125      0.0417
    105  CE2       -6.7230  -18.4450  -29.5410 C.ar  125  TYR125      0.0417
    106  CZ        -7.6960  -19.2610  -28.9520 C.ar  125  TYR125      0.1957
    107  OH        -9.0270  -19.0230  -29.2090 O.3   125  TYR125     -0.2866
@<TRIPOS>BOND
     1    31    30    1
     2    31    32    2
     3    26    27    1
     4    26    23    1
     5    30    29    1
     6    30    33    1
     7    35    37   ar
     8    35    34   ar
     9    27    28    1
    10    23    24    1
    11    23    22    1
    12    37    39   ar
    13    33    34    1
    14    34    36   ar
    15    24    25    2
    16    22    28    1
    17    22    10   am
    18    11    10    2
    19    39    40    1
    20    39    38   ar
    21    10     9    1
    22    36    38   ar
    23     9     8    1
    24     9    12    1
    25     8     3   am
    26    94    93    1
    27     2     3    1
    28     2     1    1
    29     2     5    1
    30     3     4    2
    31     1     7    1
    32    93    95    1
    33    93    92    2
    34     5     6    1
    35    12    13    1
    36    14    13   ar
    37    14    16   ar
    38    92    91    1
    39     6     7    1
    40    91    90    1
    41    13    15   ar
    42    16    17   ar
    43    90    89    1
    44    15    17   ar
    45    15    18   ar
    46    89    86    1
    47    17    19   ar
    48   105   103   ar
    49   105   106   ar
    50    18    20   ar
    51   103   101   ar
    52   107   106    1
    53    87    86    1
    54    87    88    2
    55    86    85    1
    56    19    21   ar
    57   106   104   ar
    58    20    21   ar
    59   101   100    1
    60   101   102   ar
    61   100    97    1
    62   104   102   ar
    63    58    57    1
    64    59    57    1
    65    47    48    1
    66    47    46    1
    67    85    79   am
    68    96    97    1
    69    57    56    2
    70    80    79    2
    71    46    45    1
    72    99    98    2
    73    97    98    1
    74    79    78    1
    75    68    66   am
    76    56    55    1
    77    66    65    1
    78    66    67    2
    79    65    64    1
    80    54    55    1
    81    54    53    1
    82    44    43    2
    83    45    42    1
    84    78    77    1
    85    78    81    1
    86    77    71   am
    87    43    49   am
    88    43    42    1
    89    50    49    1
    90    50    53    1
    91    50    51    1
    92    52    51    2
    93    73    74    1
    94    73    70    1
    95    83    81    1
    96    75    74   ar
    97    42    41    1
    98    64    61    1
    99    81    82    1
   100    71    70    1
   101    71    72    2
   102    74    76   ar
   103    70    69    1
   104    61    60    1
   105    61    62    1
   106    82    84    1
   107    63    62    2
