@<TRIPOS>MOLECULE
tmp/3rlhA02.pdb
 100 94 0 0 0
SMALL
GASTEIGER

@<TRIPOS>ATOM
      1  N          7.6400    8.1070    9.6990 N.3    11  HIS11      -0.1241
      2  CA         7.2630    7.1460    8.6860 C.3    11  HIS11       0.1621
      3  C          7.8960    7.4530    7.3400 C.2    11  HIS11       0.2264
      4  O          7.8900    8.5680    6.9010 O.2    11  HIS11      -0.2867
      5  CB         5.7680    7.2020    8.5630 C.3    11  HIS11       0.0745
      6  CG         5.1790    6.2880    7.5250 C.ar   11  HIS11       0.0817
      7  ND1        4.3710    6.7580    6.5080 N.ar   11  HIS11      -0.2268
      8  CD2        5.2920    4.9510    7.3380 C.ar   11  HIS11       0.1154
      9  CE1        3.9650    5.7290    5.7720 C.ar   11  HIS11       0.1986
     10  NE2        4.5170    4.6300    6.2520 N.ar   11  HIS11      -0.2212
     11  N         11.2810    4.9090   10.4050 N.3    31  GLU31      -0.1245
     12  CA        10.9830    3.7180    9.6440 C.3    31  GLU31       0.1567
     13  C         11.4420    3.9740    8.1890 C.2    31  GLU31       0.2260
     14  O         11.2240    5.0680    7.6240 O.2    31  GLU31      -0.2867
     15  CB         9.4850    3.4360    9.7520 C.3    31  GLU31       0.0388
     16  CG         9.1380    2.1490    8.9820 C.3    31  GLU31       0.1160
     17  CD         8.5460    2.4000    7.6280 C.2    31  GLU31       0.3649
     18  OE1        8.2200    3.5630    7.3560 O.co2  31  GLU31      -0.2457
     19  OE2        8.3800    1.4650    6.7860 O.co2  31  GLU31      -0.2457
     20  N         11.9830    2.0180    4.1820 N.3    33  ASP33      -0.1239
     21  CA        11.6110    0.8450    3.3660 C.3    33  ASP33       0.1674
     22  C         12.8210    0.2980    2.6650 C.2    33  ASP33       0.2266
     23  O         13.7260    1.1130    2.3370 O.2    33  ASP33      -0.2867
     24  CB        10.5840    1.2920    2.3650 C.3    33  ASP33       0.1410
     25  CG         9.3870    1.9190    3.0570 C.2    33  ASP33       0.3668
     26  OD1        8.6800    1.1380    3.7000 O.co2  33  ASP33      -0.2456
     27  OD2        9.1960    3.1610    3.0190 O.co2  33  ASP33      -0.2456
     28  N          9.9570    3.2720   -1.4150 N.3    47  HIS47      -0.1241
     29  CA         8.6090    2.7390   -1.1770 C.3    47  HIS47       0.1621
     30  C          7.8230    2.5780   -2.5170 C.2    47  HIS47       0.2264
     31  O          7.2660    1.5350   -2.8420 O.2    47  HIS47      -0.2867
     32  CB         7.8740    3.7460   -0.2700 C.3    47  HIS47       0.0745
     33  CG         6.5750    3.2240    0.2740 C.ar   47  HIS47       0.0817
     34  ND1        5.4570    3.0110   -0.5140 N.ar   47  HIS47      -0.2268
     35  CD2        6.2170    2.8590    1.5340 C.ar   47  HIS47       0.1154
     36  CE1        4.4710    2.5300    0.2350 C.ar   47  HIS47       0.1986
     37  NE2        4.8950    2.4690    1.4920 N.ar   47  HIS47      -0.2212
     38  N         11.6310   -1.7000    7.0460 N.3    91  ASP91      -0.1239
     39  CA        10.4370   -2.3200    6.5380 C.3    91  ASP91       0.1674
     40  C         10.8400   -3.1060    5.3140 C.2    91  ASP91       0.2266
     41  O         10.7780   -2.5940    4.1850 O.2    91  ASP91      -0.2867
     42  CB         9.4680   -1.2460    6.1020 C.3    91  ASP91       0.1410
     43  CG         8.1500   -1.7920    5.5700 C.2    91  ASP91       0.3668
     44  OD1        7.9910   -3.0210    5.4260 O.co2  91  ASP91      -0.2456
     45  OD2        7.2840   -0.9330    5.2640 O.co2  91  ASP91      -0.2456
     46  N         10.7620   -4.9970    2.2620 N.3    93  LYS93      -0.1245
     47  CA         9.7160   -5.2280    1.2570 C.3    93  LYS93       0.1561
     48  C         10.0600   -6.5230    0.5370 C.2    93  LYS93       0.2260
     49  O         10.5040   -6.5300   -0.6090 O.2    93  LYS93      -0.2867
     50  CB         9.7080   -4.0260    0.2940 C.3    93  LYS93       0.0271
     51  CG         9.3920   -2.6670    0.9390 C.3    93  LYS93       0.0035
     52  CD         7.9600   -2.6210    1.4920 C.3    93  LYS93       0.0206
     53  CE         7.5690   -1.2720    2.1470 C.3    93  LYS93       0.1093
     54  NZ         6.0450   -1.3430    2.4230 N.3    93  LYS93      -0.1314
     55  N         11.6240   -5.5210   10.3230 N.3   132  SER132     -0.1217
     56  CA        10.1760   -5.7000   10.1670 C.3   132  SER132      0.1889
     57  C          9.8820   -6.5080    8.8580 C.2   132  SER132      0.2288
     58  O         10.1570   -6.0700    7.7320 O.2   132  SER132     -0.2866
     59  CB         9.5140   -4.3340   10.1860 C.3   132  SER132      0.2089
     60  OG         8.0880   -4.5040   10.0320 O.3   132  SER132     -0.2183
     61  N          4.6910   -7.3760   10.2270 N.3   166  SER166     -0.1217
     62  CA         3.8340   -6.1570   10.0130 C.3   166  SER166      0.1889
     63  C          2.5820   -6.3940    9.2370 C.2   166  SER166      0.2288
     64  O          1.8570   -5.4010    8.9490 O.2   166  SER166     -0.2866
     65  CB         4.6420   -5.1020    9.2650 C.3   166  SER166      0.2089
     66  OG         5.0800   -5.6620    8.0100 O.3   166  SER166     -0.2183
     67  N          3.3170   -0.9860   18.5910 N.3   222  TYR222     -0.1241
     68  CA         3.2300    0.3150   17.9350 C.3   222  TYR222      0.1605
     69  C          2.1480    0.3230   16.9360 C.2   222  TYR222      0.2264
     70  O          1.8240   -0.7250   16.3310 O.2   222  TYR222     -0.2867
     71  CB         4.5930    0.6760   17.2940 C.3   222  TYR222      0.0534
     72  CG         4.9620   -0.0280   15.9760 C.ar  222  TYR222     -0.0201
     73  CD1        4.6240    0.5650   14.7400 C.ar  222  TYR222     -0.0009
     74  CD2        5.6940   -1.2340   15.9690 C.ar  222  TYR222     -0.0009
     75  CE1        5.0150   -0.0240   13.4980 C.ar  222  TYR222      0.0417
     76  CE2        6.1390   -1.7820   14.7560 C.ar  222  TYR222      0.0417
     77  CZ         5.7660   -1.1520   13.5410 C.ar  222  TYR222      0.1957
     78  OH         6.0730   -1.7270   12.3320 O.3   222  TYR222     -0.2866
     79  N          0.2820    2.3220   13.6310 N.3   224  TRP224     -0.1241
     80  CA         0.6730    3.1480   12.4570 C.3   224  TRP224      0.1605
     81  C         -0.5610    3.2830   11.5000 C.2   224  TRP224      0.2264
     82  O         -1.4860    2.5110   11.6350 O.2   224  TRP224     -0.2867
     83  CB         1.8160    2.4110   11.6690 C.3   224  TRP224      0.0550
     84  CG         1.4420    1.0280   11.1510 C.ar  224  TRP224      0.0003
     85  CD1        1.5850   -0.1730   11.7940 C.ar  224  TRP224      0.0946
     86  CD2        0.8880    0.7340    9.8610 C.ar  224  TRP224      0.0152
     87  NE1        1.1140   -1.2110   10.9790 N.ar  224  TRP224     -0.2442
     88  CE2        0.6740   -0.6830    9.8030 C.ar  224  TRP224      0.0810
     89  CE3        0.6170    1.5220    8.7240 C.ar  224  TRP224      0.0012
     90  CZ2        0.1860   -1.3490    8.6110 C.ar  224  TRP224      0.0191
     91  CZ3        0.1110    0.8820    7.5530 C.ar  224  TRP224      0.0001
     92  CH2       -0.0830   -0.5550    7.5130 C.ar  224  TRP224      0.0015
     93  N          3.8070    5.4230   14.9520 N.3   244  MET244     -0.1245
     94  CA         4.3990    5.7410   13.6440 C.3   244  MET244      0.1570
     95  C          3.5540    6.7920   12.9730 C.2   244  MET244      0.2261
     96  O          2.3130    6.6760   12.8770 O.2   244  MET244     -0.2867
     97  CB         4.4970    4.4420   12.8080 C.3   244  MET244      0.0387
     98  CG         5.1740    4.6200   11.4290 C.3   244  MET244      0.0595
     99  SD         5.5390    2.9780   10.7020 S.3   244  MET244     -0.1393
    100  CE         6.8320    2.4190   11.8210 C.3   244  MET244      0.0692
@<TRIPOS>BOND
     1    31    30    2
     2    30    29    1
     3    28    29    1
     4    29    32    1
     5    49    48    2
     6    34    36   ar
     7    34    33   ar
     8    32    33    1
     9    36    37   ar
    10    33    35   ar
    11    50    51    1
    12    50    47    1
    13    48    47    1
    14    51    52    1
    15    47    46    1
    16    52    53    1
    17    37    35   ar
    18    53    54    1
    19    23    22    2
    20    24    25    1
    21    24    21    1
    22    22    21    1
    23    27    25   ar
    24    25    26   ar
    25    21    20    1
    26    41    40    2
    27    45    43   ar
    28    40    39    1
    29    44    43   ar
    30    43    42    1
    31     9    10   ar
    32     9     7   ar
    33    42    39    1
    34    10     8   ar
    35     7     6   ar
    36    39    38    1
    37    19    17   ar
    38     4     3    2
    39     8     6   ar
    40     3     2    1
    41    18    17   ar
    42    92    91   ar
    43    92    90   ar
    44     6     5    1
    45    91    89   ar
    46    14    13    2
    47    17    16    1
    48    58    57    2
    49    66    65    1
    50    13    12    1
    51     5     2    1
    52    90    88   ar
    53     2     1    1
    54    89    86   ar
    55    57    56    1
    56    64    63    2
    57    16    15    1
    58    63    62    1
    59    65    62    1
    60    12    15    1
    61    12    11    1
    62    88    86   ar
    63    88    87   ar
    64    86    84   ar
    65    62    61    1
    66    60    59    1
    67    56    59    1
    68    56    55    1
    69    99    98    1
    70    99   100    1
    71    87    85   ar
    72    84    83    1
    73    84    85   ar
    74    98    97    1
    75    81    82    2
    76    81    80    1
    77    83    80    1
    78    78    77    1
    79    80    79    1
    80    97    94    1
    81    96    95    2
    82    95    94    1
    83    75    77   ar
    84    75    73   ar
    85    77    76   ar
    86    94    93    1
    87    73    72   ar
    88    76    74   ar
    89    74    72   ar
    90    72    71    1
    91    70    69    2
    92    69    68    1
    93    71    68    1
    94    68    67    1
