@<TRIPOS>MOLECULE
tmp/3rliA01.pdb
 112 103 0 0 0
SMALL
GASTEIGER

@<TRIPOS>ATOM
      1  N         10.0350    2.4210    5.4890 N.3    28  GLY28      -0.1210
      2  CA         9.8360    3.8640    5.4060 C.3    28  GLY28       0.1956
      3  C          9.3280    4.4110    4.0760 C.2    28  GLY28       0.2612
      4  O          9.1180    3.6780    3.1190 O.2    28  GLY28      -0.2717
      5  N          9.1650    5.7270    4.0490 N.am   29  PHE29      -0.1962
      6  CA         8.6610    6.5030    2.9220 C.3    29  PHE29       0.1771
      7  C          9.6450    6.4440    1.7410 C.2    29  PHE29       0.2620
      8  O         10.8240    6.7630    1.8980 O.2    29  PHE29      -0.2715
      9  CB         8.5150    7.9320    3.4450 C.3    29  PHE29       0.0574
     10  CG         8.0280    8.9470    2.4370 C.ar   29  PHE29      -0.0200
     11  CD1        6.6630    9.1460    2.2360 C.ar   29  PHE29      -0.0042
     12  CD2        8.9230    9.7630    1.7680 C.ar   29  PHE29      -0.0042
     13  CE1        6.2020   10.1120    1.3440 C.ar   29  PHE29      -0.0003
     14  CE2        8.4670   10.7400    0.8570 C.ar   29  PHE29      -0.0003
     15  CZ         7.1060   10.9070    0.6520 C.ar   29  PHE29      -0.0000
     16  N          9.1330    6.0560    0.5700 N.am   30  THR30      -0.1951
     17  CA         9.9160    5.7180   -0.6410 C.3    30  THR30       0.1897
     18  C         10.7430    4.4340   -0.5450 C.2    30  THR30       0.2313
     19  O         11.3590    4.0210   -1.5330 O.2    30  THR30      -0.2863
     20  CB        10.8460    6.8690   -1.1870 C.3    30  THR30       0.1794
     21  OG1       12.0460    6.9590   -0.4080 O.3    30  THR30      -0.2208
     22  CG2       10.1280    8.2220   -1.2380 C.3    30  THR30       0.0378
     23  N         11.8220    5.1680   10.1750 N.3    97  SER97      -0.1202
     24  CA        11.3410    6.4470    9.6450 C.3    97  SER97       0.2020
     25  C          9.8070    6.5310    9.6150 C.2    97  SER97       0.2618
     26  O          9.1720    6.5150   10.6630 O.2    97  SER97      -0.2717
     27  CB        11.9210    6.7200    8.2580 C.3    97  SER97       0.2103
     28  OG        11.8350    8.1130    7.9920 O.3    97  SER97      -0.2182
     29  N          9.2090    6.6250    8.4270 N.am   98  MET98      -0.1979
     30  CA         7.7450    6.6690    8.3680 C.3    98  MET98       0.1605
     31  C          7.1590    5.3640    8.8970 C.2    98  MET98       0.2287
     32  O          6.0200    5.3290    9.3740 O.2    98  MET98      -0.2864
     33  CB         7.2150    6.9540    6.9480 C.3    98  MET98       0.0413
     34  CG         5.6850    7.2130    6.9190 C.3    98  MET98       0.0598
     35  SD         5.0240    7.4600    5.2400 S.3    98  MET98      -0.1393
     36  CE         5.0640    5.7920    4.6300 C.3    98  MET98       0.0692
     37  N          9.6050    9.4750   12.4940 N.3   122  ALA122     -0.1245
     38  CA         9.4380   10.8680   12.0880 C.3   122  ALA122      0.1562
     39  C          8.0780   11.4050   12.5080 C.2   122  ALA122      0.2260
     40  O          7.0590   10.9200   12.0160 O.2   122  ALA122     -0.2867
     41  CB         9.5860   10.9650   10.5900 C.3   122  ALA122      0.0290
     42  N          9.2890   16.9670   10.5120 N.3   125  ILE125     -0.1245
     43  CA        10.4000   17.2310    9.6090 C.3   125  ILE125      0.1561
     44  C         10.2000   18.6350    9.0350 C.2   125  ILE125      0.2260
     45  O          9.5380   18.8020    8.0110 O.2   125  ILE125     -0.2867
     46  CB        10.4670   16.1910    8.4620 C.3   125  ILE125      0.0252
     47  CG1       10.5830   14.7650    9.0250 C.3   125  ILE125      0.0019
     48  CG2       11.6330   16.4970    7.5320 C.3   125  ILE125      0.0019
     49  CD1       10.6030   13.6530    7.9560 C.3   125  ILE125      0.0001
     50  N         10.2570   19.9050    5.1980 N.3   128  ILE128     -0.1245
     51  CA         9.1660   19.7560    4.2340 C.3   128  ILE128      0.1561
     52  C          8.4050   21.0660    4.0200 C.2   128  ILE128      0.2260
     53  O          8.2160   21.5070    2.8880 O.2   128  ILE128     -0.2867
     54  CB         8.1850   18.6410    4.6340 C.3   128  ILE128      0.0252
     55  CG1        8.9200   17.3030    4.7430 C.3   128  ILE128      0.0019
     56  CG2        7.0470   18.5520    3.6160 C.3   128  ILE128      0.0019
     57  CD1        8.0450   16.1480    5.2310 C.3   128  ILE128      0.0001
     58  N         17.1650   12.0760   -2.3920 N.3   139  ILE139     -0.1245
     59  CA        18.4840   12.2320   -1.7990 C.3   139  ILE139      0.1561
     60  C         19.0830   10.8420   -1.6750 C.2   139  ILE139      0.2260
     61  O         18.3490    9.8680   -1.4990 O.2   139  ILE139     -0.2867
     62  CB        18.4660   12.9440   -0.4270 C.3   139  ILE139      0.0252
     63  CG1       17.0390   13.1030    0.1010 C.3   139  ILE139      0.0019
     64  CG2       19.1690   14.3020   -0.5300 C.3   139  ILE139      0.0019
     65  CD1       16.4650   14.5080   -0.0650 C.3   139  ILE139      0.0001
     66  N         11.1860   11.3160   -5.6530 N.3   156  THR156     -0.1218
     67  CA        10.1600   11.4440   -4.6280 C.3   156  THR156      0.1862
     68  C          9.0870   12.3910   -5.1520 C.2   156  THR156      0.2287
     69  O          9.3950   13.5260   -5.5230 O.2   156  THR156     -0.2866
     70  CB        10.7620   12.0300   -3.3470 C.3   156  THR156      0.1770
     71  OG1       11.8270   11.1790   -2.8920 O.3   156  THR156     -0.2211
     72  CG2        9.7010   12.1750   -2.2550 C.3   156  THR156      0.0375
     73  N          5.0530   13.9180   -0.3130 N.3   161  LEU161     -0.1245
     74  CA         5.6170   14.6250    0.8390 C.3   161  LEU161      0.1561
     75  C          4.5260   15.2910    1.6540 C.2   161  LEU161      0.2260
     76  O          4.6220   15.3910    2.8820 O.2   161  LEU161     -0.2867
     77  CB         6.6280   15.6830    0.3990 C.3   161  LEU161      0.0270
     78  CG         8.0090   15.1590    0.0550 C.3   161  LEU161      0.0019
     79  CD1        8.8770   16.2640   -0.5270 C.3   161  LEU161      0.0001
     80  CD2        8.6540   14.5540    1.2890 C.3   161  LEU161      0.0001
     81  N          2.8930   12.6320    3.7030 N.3   164  LEU164     -0.1245
     82  CA         3.7680   12.3440    4.8400 C.3   164  LEU164      0.1561
     83  C          3.6050   13.4110    5.9140 C.2   164  LEU164      0.2260
     84  O          3.4820   13.0920    7.0950 O.2   164  LEU164     -0.2867
     85  CB         5.2320   12.2360    4.3950 C.3   164  LEU164      0.0270
     86  CG         6.2740   12.0390    5.5050 C.3   164  LEU164      0.0019
     87  CD1        5.9900   10.7580    6.3310 C.3   164  LEU164      0.0001
     88  CD2        7.6980   12.0370    4.9380 C.3   164  LEU164      0.0001
     89  N         18.5290   12.9200    7.8160 N.3   192  VAL192     -0.1231
     90  CA        17.2100   12.9900    7.1540 C.3   192  VAL192      0.1692
     91  C         16.0930   13.4100    8.1170 C.2   192  VAL192      0.2591
     92  O         15.3820   14.4020    7.8870 O.2   192  VAL192     -0.2718
     93  CB        16.8280   11.6210    6.5220 C.3   192  VAL192      0.0266
     94  CG1       15.4740   11.7020    5.7820 C.3   192  VAL192      0.0020
     95  CG2       17.9040   11.1650    5.5770 C.3   192  VAL192      0.0020
     96  N         15.9270   12.6340    9.1820 N.am  193  VAL193     -0.1980
     97  CA        14.9610   12.9440   10.2350 C.3   193  VAL193      0.1595
     98  C         15.7050   13.5510   11.4280 C.2   193  VAL193      0.2287
     99  O         16.5390   12.8880   12.0420 O.2   193  VAL193     -0.2864
    100  CB        14.2020   11.6610   10.6910 C.3   193  VAL193      0.0276
    101  CG1       13.2310   11.9710   11.8350 C.3   193  VAL193      0.0022
    102  CG2       13.4410   11.0400    9.5220 C.3   193  VAL193      0.0022
    103  N         20.7560    7.6950    8.8280 N.3   220  HIS220     -0.1241
    104  CA        19.3090    7.4810    8.8930 C.3   220  HIS220      0.1621
    105  C         18.8620    6.0200    8.7620 C.2   220  HIS220      0.2264
    106  O         18.0200    5.5370    9.5250 O.2   220  HIS220     -0.2867
    107  CB        18.5630    8.3140    7.8450 C.3   220  HIS220      0.0745
    108  CG        17.0830    8.0920    7.8830 C.ar  220  HIS220      0.0817
    109  ND1       16.3210    8.3640    9.0040 N.ar  220  HIS220     -0.2268
    110  CD2       16.2300    7.5680    6.9710 C.ar  220  HIS220      0.1154
    111  CE1       15.0630    8.0520    8.7650 C.ar  220  HIS220      0.1986
    112  NE2       14.9820    7.5600    7.5370 N.ar  220  HIS220     -0.2212
@<TRIPOS>BOND
     1    66    67    1
     2    69    68    2
     3    68    67    1
     4    67    70    1
     5    70    71    1
     6    70    72    1
     7    58    59    1
     8    59    60    1
     9    59    62    1
    10    60    61    2
    11    19    18    2
    12    22    20    1
    13    20    17    1
    14    20    21    1
    15    17    18    1
    16    17    16    1
    17    64    62    1
    18    79    78    1
    19    62    63    1
    20    73    74    1
    21    65    63    1
    22    78    77    1
    23    78    80    1
    24    77    74    1
    25    16     7   am
    26    15    14   ar
    27    15    13   ar
    28    74    75    1
    29    14    12   ar
    30    13    11   ar
    31    75    76    2
    32     7     8    2
    33     7     6    1
    34    12    10   ar
    35    11    10   ar
    36    10     9    1
    37    53    52    2
    38     6     9    1
    39     6     5    1
    40     4     3    2
    41    56    54    1
    42    81    82    1
    43    52    51    1
    44     5     3   am
    45     3     2    1
    46    51    54    1
    47    51    50    1
    48    85    82    1
    49    85    86    1
    50    36    35    1
    51    54    55    1
    52    55    57    1
    53    82    83    1
    54    88    86    1
    55    35    34    1
    56     2     1    1
    57    86    87    1
    58    95    93    1
    59    94    93    1
    60    83    84    2
    61    93    90    1
    62    34    33    1
    63    33    30    1
    64   110   112   ar
    65   110   108   ar
    66    90    89    1
    67    90    91    1
    68    48    46    1
    69   112   111   ar
    70   107   108    1
    71   107   104    1
    72   108   109   ar
    73    92    91    2
    74    49    47    1
    75    28    27    1
    76    45    44    2
    77    91    96   am
    78    27    24    1
    79    30    29    1
    80    30    31    1
    81    29    25   am
    82    46    47    1
    83    46    43    1
    84   105   104    1
    85   105   106    2
    86   111   109   ar
    87   103   104    1
    88    31    32    2
    89    44    43    1
    90    96    97    1
    91   102   100    1
    92    43    42    1
    93    25    24    1
    94    25    26    2
    95    24    23    1
    96    97   100    1
    97    97    98    1
    98    41    38    1
    99   100   101    1
   100    98    99    2
   101    40    39    2
   102    38    37    1
   103    38    39    1
