@<TRIPOS>MOLECULE
tmp/3rllA00.pdb
 221 208 0 0 0
SMALL
GASTEIGER

@<TRIPOS>ATOM
      1  N         32.2610    0.1090   -3.7130 N.3    30  LEU30      -0.1245
      2  CA        32.4180   -0.2160   -2.2970 C.3    30  LEU30       0.1561
      3  C         33.4960    0.6210   -1.6020 C.2    30  LEU30       0.2260
      4  O         33.3650    0.9560   -0.4210 O.2    30  LEU30      -0.2867
      5  CB        32.6930   -1.7130   -2.1130 C.3    30  LEU30       0.0270
      6  CG        31.4370   -2.5740   -1.8800 C.3    30  LEU30       0.0019
      7  CD1       30.7460   -2.1310   -0.5950 C.3    30  LEU30       0.0001
      8  CD2       30.4760   -2.4420   -3.0580 C.3    30  LEU30       0.0001
      9  N         31.6750    3.7870   -0.8800 N.3    33  LEU33      -0.1231
     10  CA        30.6950    3.6560    0.2000 C.3    33  LEU33       0.1693
     11  C         31.4410    3.6390    1.5370 C.2    33  LEU33       0.2592
     12  O         30.9950    4.2560    2.5060 O.2    33  LEU33      -0.2718
     13  CB        29.8670    2.3650    0.0460 C.3    33  LEU33       0.0284
     14  CG        28.7500    2.3780   -1.0080 C.3    33  LEU33       0.0019
     15  CD1       28.2180    0.9620   -1.2160 C.3    33  LEU33       0.0001
     16  CD2       27.6310    3.3210   -0.5680 C.3    33  LEU33       0.0001
     17  N         32.5790    2.9420    1.5840 N.am   34  ASN34      -0.1974
     18  CA        33.3740    2.8750    2.8080 C.3    34  ASN34       0.1688
     19  C         33.9070    4.2510    3.1920 C.2    34  ASN34       0.2292
     20  O         33.8180    4.6660    4.3550 O.2    34  ASN34      -0.2864
     21  CB        34.5570    1.9140    2.6470 C.3    34  ASN34       0.1181
     22  CG        34.1300    0.4610    2.6060 C.2    34  ASN34       0.2629
     23  OD1       32.9920    0.1220    2.9460 O.2    34  ASN34      -0.2716
     24  ND2       35.0500   -0.4130    2.2080 N.am   34  ASN34      -0.0877
     25  N         32.7650    7.1680    2.2390 N.3    36  LEU36      -0.1231
     26  CA        31.6290    8.0050    2.6000 C.3    36  LEU36       0.1693
     27  C         31.2250    7.7350    4.0560 C.2    36  LEU36       0.2592
     28  O         31.0110    8.6620    4.8380 O.2    36  LEU36      -0.2718
     29  CB        30.4410    7.7170    1.6740 C.3    36  LEU36       0.0284
     30  CG        29.1430    8.4510    2.0330 C.3    36  LEU36       0.0019
     31  CD1       29.3730    9.9570    2.0110 C.3    36  LEU36       0.0001
     32  CD2       28.0450    8.0630    1.0490 C.3    36  LEU36       0.0001
     33  N         31.1060    6.4620    4.4130 N.am   37  GLY37      -0.1957
     34  CA        30.7450    6.1320    5.7800 C.3    37  GLY37       0.1869
     35  C         31.7270    6.7130    6.7880 C.2    37  GLY37       0.2309
     36  O         31.3170    7.2670    7.8080 O.2    37  GLY37      -0.2863
     37  N         31.1930   10.4070    7.0310 N.3    40  GLN40      -0.1245
     38  CA        29.9610   10.6530    7.7650 C.3    40  GLN40       0.1566
     39  C         30.1420   10.4870    9.2830 C.2    40  GLN40       0.2260
     40  O         29.6390   11.2920   10.0590 O.2    40  GLN40      -0.2867
     41  CB        28.8530    9.7230    7.2560 C.3    40  GLN40       0.0367
     42  CG        28.2380   10.1790    5.9270 C.3    40  GLN40       0.0905
     43  CD        27.2760    9.1640    5.3370 C.2    40  GLN40       0.2608
     44  OE1       26.4220    9.5040    4.5030 O.2    40  GLN40      -0.2717
     45  NE2       27.4110    7.9080    5.7580 N.am   40  GLN40      -0.0878
     46  N         28.5450    4.5110   18.0960 N.3    67  GLN67      -0.1245
     47  CA        29.0060    3.4180   17.2580 C.3    67  GLN67       0.1566
     48  C         27.9130    2.3730   16.9950 C.2    67  GLN67       0.2260
     49  O         27.7800    1.8900   15.8700 O.2    67  GLN67      -0.2867
     50  CB        30.2490    2.7840   17.8880 C.3    67  GLN67       0.0367
     51  CG        31.4150    3.7640   17.9590 C.3    67  GLN67       0.0905
     52  CD        32.6460    3.1920   18.6390 C.2    67  GLN67       0.2608
     53  OE1       32.5610    2.2350   19.4050 O.2    67  GLN67      -0.2717
     54  NE2       33.7980    3.8010   18.3770 N.am   67  GLN67      -0.0878
     55  N         25.2650    4.1950   14.6470 N.3    70  TRP70      -0.1227
     56  CA        25.8040    4.7410   13.4040 C.3    70  TRP70       0.1737
     57  C         25.1330    4.2620   12.1100 C.2    70  TRP70       0.2595
     58  O         24.7150    5.0840   11.2850 O.2    70  TRP70      -0.2718
     59  CB        27.3160    4.4750   13.3980 C.3    70  TRP70       0.0564
     60  CG        28.0910    4.9450   12.2050 C.ar   70  TRP70       0.0003
     61  CD1       27.8270    6.0250   11.4100 C.ar   70  TRP70       0.0946
     62  CD2       29.3120    4.3760   11.7210 C.ar   70  TRP70       0.0152
     63  NE1       28.8160    6.1610   10.4550 N.ar   70  TRP70      -0.2442
     64  CE2       29.7370    5.1620   10.6250 C.ar   70  TRP70       0.0810
     65  CE3       30.0880    3.2740   12.1070 C.ar   70  TRP70       0.0012
     66  CZ2       30.9080    4.8800    9.9100 C.ar   70  TRP70       0.0191
     67  CZ3       31.2540    2.9920   11.3940 C.ar   70  TRP70       0.0001
     68  CH2       31.6500    3.7950   10.3070 C.ar   70  TRP70       0.0015
     69  N         25.0180    2.9500   11.9230 N.am   71  MET71      -0.1979
     70  CA        24.3860    2.4170   10.7180 C.3    71  MET71       0.1605
     71  C         22.9210    2.8590   10.6300 C.2    71  MET71       0.2287
     72  O         22.4870    3.3900    9.6130 O.2    71  MET71      -0.2864
     73  CB        24.4580    0.8840   10.7120 C.3    71  MET71       0.0413
     74  CG        23.9300    0.2530    9.4300 C.3    71  MET71       0.0598
     75  SD        24.9560    0.6650    8.0080 S.3    71  MET71      -0.1393
     76  CE        26.2230   -0.5620    8.1910 C.3    71  MET71       0.0692
     77  N         22.4400    6.5250    9.6200 N.3    74  MET74      -0.1230
     78  CA        22.7100    6.8090    8.2250 C.3    74  MET74       0.1702
     79  C         21.6340    6.2270    7.3060 C.2    74  MET74       0.2592
     80  O         21.2660    6.8510    6.3210 O.2    74  MET74      -0.2718
     81  CB        24.1060    6.3030    7.8670 C.3    74  MET74       0.0401
     82  CG        25.2030    6.9730    8.6860 C.3    74  MET74       0.0596
     83  SD        25.3240    8.7620    8.3980 S.3    74  MET74      -0.1393
     84  CE        24.3220    9.4180    9.7380 C.3    74  MET74       0.0692
     85  N         21.1070    5.0510    7.6390 N.am   75  VAL75      -0.1980
     86  CA        20.0510    4.4600    6.8240 C.3    75  VAL75       0.1595
     87  C         18.8570    5.4170    6.8220 C.2    75  VAL75       0.2287
     88  O         18.3000    5.7300    5.7710 O.2    75  VAL75      -0.2864
     89  CB        19.6030    3.0860    7.3890 C.3    75  VAL75       0.0276
     90  CG1       18.2500    2.6820    6.8000 C.3    75  VAL75       0.0022
     91  CG2       20.6500    2.0270    7.0610 C.3    75  VAL75       0.0022
     92  N         19.6960    8.7000    4.9750 N.3    78  MET78      -0.1245
     93  CA        19.7860    8.4430    3.5440 C.3    78  MET78       0.1570
     94  C         18.3940    8.2620    2.9350 C.2    78  MET78       0.2261
     95  O         18.1110    8.7720    1.8490 O.2    78  MET78      -0.2867
     96  CB        20.6670    7.2110    3.2890 C.3    78  MET78       0.0387
     97  CG        21.1370    7.0860    1.8530 C.3    78  MET78       0.0595
     98  SD        19.8860    6.3210    0.8030 S.3    78  MET78      -0.1393
     99  CE        20.2310    4.5640    1.0720 C.3    78  MET78       0.0692
    100  N         16.8870   11.7370    2.4800 N.3    81  ARG81      -0.1245
    101  CA        17.5060   12.4710    1.3800 C.3    81  ARG81       0.1563
    102  C         16.9720   11.9600    0.0460 C.2    81  ARG81       0.2260
    103  O         16.7060   12.7370   -0.8710 O.2    81  ARG81      -0.2867
    104  CB        19.0290   12.2850    1.3770 C.3    81  ARG81       0.0307
    105  CG        19.7950   13.0390    2.4450 C.3    81  ARG81       0.0489
    106  CD        21.2880   13.0850    2.0950 C.3    81  ARG81       0.2205
    107  NE        21.9530   11.7780    2.1230 N.pl3  81  ARG81      -0.0865
    108  CZ        22.3690   11.1640    3.2310 C.cat  81  ARG81       0.5346
    109  NH1       22.1870   11.7300    4.4180 N.pl3  81  ARG81       0.1354
    110  NH2       23.0040    9.9980    3.1520 N.pl3  81  ARG81       0.1354
    111  N         22.9120    8.3590   -1.5350 N.3    93  PHE93      -0.1241
    112  CA        23.9060    8.1750   -0.4790 C.3    93  PHE93       0.1605
    113  C         24.6530    9.4870   -0.2640 C.2    93  PHE93       0.2264
    114  O         24.9350    9.8820    0.8680 O.2    93  PHE93      -0.2867
    115  CB        24.8990    7.0710   -0.8460 C.3    93  PHE93       0.0534
    116  CG        24.3190    5.6820   -0.7970 C.ar   93  PHE93      -0.0203
    117  CD1       23.7910    5.0900   -1.9400 C.ar   93  PHE93      -0.0042
    118  CD2       24.3380    4.9490    0.3910 C.ar   93  PHE93      -0.0042
    119  CE1       23.2900    3.7740   -1.9100 C.ar   93  PHE93      -0.0003
    120  CE2       23.8420    3.6380    0.4360 C.ar   93  PHE93      -0.0003
    121  CZ        23.3180    3.0510   -0.7190 C.ar   93  PHE93      -0.0000
    122  N         24.6350   -5.2570   -2.9830 N.3   109  MET109     -0.1245
    123  CA        23.8540   -4.8690   -1.8090 C.3   109  MET109      0.1570
    124  C         22.4190   -4.6230   -2.2450 C.2   109  MET109      0.2261
    125  O         21.6960   -3.8440   -1.6250 O.2   109  MET109     -0.2867
    126  CB        24.4060   -3.5730   -1.2040 C.3   109  MET109      0.0387
    127  CG        25.8480   -3.6400   -0.7640 C.3   109  MET109      0.0595
    128  SD        26.4950   -2.0110   -0.3360 S.3   109  MET109     -0.1393
    129  CE        25.8170   -1.7890    1.2800 C.3   109  MET109      0.0692
    130  N         15.8590   -0.0670    1.7240 N.3   116  MET116     -0.1245
    131  CA        16.0690    1.3440    2.0430 C.3   116  MET116      0.1570
    132  C         15.2550    2.2300    1.0990 C.2   116  MET116      0.2261
    133  O         14.8710    3.3430    1.4590 O.2   116  MET116     -0.2867
    134  CB        17.5610    1.7130    1.9640 C.3   116  MET116      0.0387
    135  CG        18.4110    1.0750    3.0640 C.3   116  MET116      0.0595
    136  SD        20.1110    1.6910    3.1490 S.3   116  MET116     -0.1393
    137  CE        20.8690    0.7370    1.8460 C.3   116  MET116      0.0692
    138  N         22.6840   -4.5660    6.8340 N.3   194  LEU194     -0.1231
    139  CA        23.8650   -3.8260    6.4190 C.3   194  LEU194      0.1693
    140  C         25.0480   -4.1510    7.3240 C.2   194  LEU194      0.2592
    141  O         26.1840   -4.2220    6.8690 O.2   194  LEU194     -0.2718
    142  CB        23.5610   -2.3280    6.4150 C.3   194  LEU194      0.0284
    143  CG        22.7000   -1.9060    5.2150 C.3   194  LEU194      0.0019
    144  CD1       22.0790   -0.5520    5.4470 C.3   194  LEU194      0.0001
    145  CD2       23.5610   -1.8980    3.9660 C.3   194  LEU194      0.0001
    146  N         24.7750   -4.3460    8.6090 N.am  195  HIS195     -0.1976
    147  CA        25.8260   -4.7070    9.5520 C.3   195  HIS195      0.1656
    148  C         26.4400   -6.0300    9.0880 C.2   195  HIS195      0.2291
    149  O         27.6620   -6.1700    8.9990 O.2   195  HIS195     -0.2864
    150  CB        25.2330   -4.8860   10.9490 C.3   195  HIS195      0.0771
    151  CG        25.0610   -3.6050   11.7060 C.ar  195  HIS195      0.0820
    152  ND1       24.0100   -3.3890   12.5720 N.ar  195  HIS195     -0.2267
    153  CD2       25.8270   -2.4870   11.7550 C.ar  195  HIS195      0.1154
    154  CE1       24.1340   -2.1940   13.1210 C.ar  195  HIS195      0.1986
    155  NE2       25.2290   -1.6270   12.6430 N.ar  195  HIS195     -0.2212
    156  N         26.3410   -7.3890    6.1310 N.3   197  PHE197     -0.1227
    157  CA        27.0560   -7.1860    4.8820 C.3   197  PHE197      0.1736
    158  C         28.4370   -6.6100    5.1560 C.2   197  PHE197      0.2595
    159  O         29.4340   -7.1260    4.6580 O.2   197  PHE197     -0.2718
    160  CB        26.2610   -6.2580    3.9550 C.3   197  PHE197      0.0547
    161  CG        26.9420   -5.9880    2.6350 C.ar  197  PHE197     -0.0202
    162  CD1       27.7770   -4.8850    2.4780 C.ar  197  PHE197     -0.0042
    163  CD2       26.7710   -6.8570    1.5600 C.ar  197  PHE197     -0.0042
    164  CE1       28.4350   -4.6520    1.2630 C.ar  197  PHE197     -0.0003
    165  CE2       27.4210   -6.6370    0.3440 C.ar  197  PHE197     -0.0003
    166  CZ        28.2570   -5.5310    0.1970 C.ar  197  PHE197     -0.0000
    167  N         28.4950   -5.5520    5.9590 N.am  198  ALA198     -0.1980
    168  CA        29.7690   -4.9100    6.2860 C.3   198  ALA198      0.1597
    169  C         30.7390   -5.8930    6.9410 C.2   198  ALA198      0.2287
    170  O         31.9280   -5.9250    6.6100 O.2   198  ALA198     -0.2864
    171  CB        29.5320   -3.7110    7.2060 C.3   198  ALA198      0.0319
    172  N         31.9990   -8.4760    4.3900 N.3   201  LEU201     -0.1245
    173  CA        32.9320   -7.8340    3.4690 C.3   201  LEU201      0.1561
    174  C         34.3030   -7.5990    4.1050 C.2   201  LEU201      0.2260
    175  O         35.3330   -7.8600    3.4820 O.2   201  LEU201     -0.2867
    176  CB        32.3570   -6.5080    2.9560 C.3   201  LEU201      0.0270
    177  CG        33.1680   -5.7970    1.8640 C.3   201  LEU201      0.0019
    178  CD1       33.4140   -6.7420    0.7010 C.3   201  LEU201      0.0001
    179  CD2       32.4090   -4.5630    1.3850 C.3   201  LEU201      0.0001
    180  N         39.1880   -0.8500    3.6700 N.3   212  PHE212     -0.1241
    181  CA        38.4340   -0.3270    4.8010 C.3   212  PHE212      0.1605
    182  C         39.1530    0.7420    5.6060 C.2   212  PHE212      0.2264
    183  O         40.2800    0.5460    6.0670 O.2   212  PHE212     -0.2867
    184  CB        37.9870   -1.4570    5.7360 C.3   212  PHE212      0.0534
    185  CG        36.7770   -2.2000    5.2420 C.ar  212  PHE212     -0.0203
    186  CD1       36.9080   -3.2400    4.3300 C.ar  212  PHE212     -0.0042
    187  CD2       35.5000   -1.8250    5.6560 C.ar  212  PHE212     -0.0042
    188  CE1       35.7820   -3.9030    3.8290 C.ar  212  PHE212     -0.0003
    189  CE2       34.3710   -2.4770    5.1630 C.ar  212  PHE212     -0.0003
    190  CZ        34.5120   -3.5200    4.2480 C.ar  212  PHE212     -0.0000
    191  N         36.1120    2.6900   10.5990 N.3   216  MET216     -0.1245
    192  CA        35.1320    1.6980   10.1700 C.3   216  MET216      0.1570
    193  C         35.6050    0.2730   10.4620 C.2   216  MET216      0.2261
    194  O         34.8500   -0.5360   10.9990 O.2   216  MET216     -0.2867
    195  CB        34.8390    1.8560    8.6760 C.3   216  MET216      0.0387
    196  CG        33.7330    0.9390    8.1700 C.3   216  MET216      0.0595
    197  SD        33.3540    1.2400    6.4310 S.3   216  MET216     -0.1393
    198  CE        32.4010    2.7510    6.5670 C.3   216  MET216      0.0692
    199  N         35.3120   -0.4380   14.2590 N.3   219  ILE219     -0.1231
    200  CA        33.9200   -0.5850   14.6600 C.3   219  ILE219      0.1692
    201  C         33.3030   -1.8920   14.1630 C.2   219  ILE219      0.2591
    202  O         32.5730   -2.5540   14.8980 O.2   219  ILE219     -0.2718
    203  CB        33.0890    0.6240   14.1600 C.3   219  ILE219      0.0266
    204  CG1       33.4800    1.8720   14.9630 C.3   219  ILE219      0.0019
    205  CG2       31.5900    0.3380   14.2880 C.3   219  ILE219      0.0020
    206  CD1       32.8050    3.1540   14.4890 C.3   219  ILE219      0.0001
    207  N         33.5940   -2.2630   12.9190 N.am  220  ILE220     -0.1980
    208  CA        33.0610   -3.4970   12.3550 C.3   220  ILE220      0.1595
    209  C         33.5950   -4.7460   13.0600 C.2   220  ILE220      0.2287
    210  O         32.8830   -5.7480   13.1920 O.2   220  ILE220     -0.2864
    211  CB        33.3910   -3.6160   10.8440 C.3   220  ILE220      0.0276
    212  CG1       32.6570   -2.5240   10.0570 C.3   220  ILE220      0.0022
    213  CG2       32.9930   -5.0050   10.3280 C.3   220  ILE220      0.0022
    214  CD1       33.0220   -2.4660    8.5670 C.3   220  ILE220      0.0001
    215  N         30.2550   -4.1740   15.8220 N.3   224  VAL224     -0.1245
    216  CA        29.2530   -4.8910   15.0370 C.3   224  VAL224      0.1561
    217  C         29.0590   -6.3530   15.4580 C.2   224  VAL224      0.2260
    218  O         27.9250   -6.8370   15.5170 O.2   224  VAL224     -0.2867
    219  CB        29.5740   -4.7990   13.5260 C.3   224  VAL224      0.0252
    220  CG1       28.6250   -5.6860   12.7140 C.3   224  VAL224      0.0019
    221  CG2       29.4470   -3.3520   13.0740 C.3   224  VAL224      0.0019
@<TRIPOS>BOND
     1     1     2    1
     2     8     6    1
     3   122   123    1
     4     2     5    1
     5     2     3    1
     6   124   123    1
     7   124   125    2
     8     5     6    1
     9   117   119   ar
    10   117   116   ar
    11   119   121   ar
    12     6     7    1
    13   123   126    1
    14     3     4    2
    15   111   112    1
    16    15    14    1
    17   126   127    1
    18    14    16    1
    19    14    13    1
    20     9    10    1
    21   103   102    2
    22   115   116    1
    23   115   112    1
    24   116   118   ar
    25   127   128    1
    26   121   120   ar
    27   112   113    1
    28   128   129    1
    29   113   114    2
    30   102   101    1
    31    13    10    1
    32   166   165   ar
    33   166   164   ar
    34    10    11    1
    35   165   163   ar
    36   118   120   ar
    37   178   177    1
    38    98    99    1
    39    98    97    1
    40    32    30    1
    41   132   133    2
    42   132   131    1
    43   164   162   ar
    44   104   101    1
    45   104   105    1
    46   101   100    1
    47   179   177    1
    48    11    17   am
    49    11    12    2
    50   163   161   ar
    51    17    18    1
    52    29    30    1
    53    29    26    1
    54   130   131    1
    55   137   136    1
    56    95    94    2
    57    97    96    1
    58   177   176    1
    59   134   131    1
    60   134   135    1
    61    31    30    1
    62   106   107    1
    63   106   105    1
    64   107   108    2
    65    24    22   am
    66    25    26    1
    67   162   161   ar
    68    26    27    1
    69    22    21    1
    70    22    23    2
    71   161   160    1
    72    21    18    1
    73    18    19    1
    74    94    93    1
    75   176   173    1
    76   135   136    1
    77   110   108    1
    78    19    20    2
    79   108   109    1
    80    96    93    1
    81   173   174    1
    82   173   172    1
    83   175   174    2
    84    93    92    1
    85   180   181    1
    86   188   190   ar
    87   188   186   ar
    88   160   157    1
    89   145   143    1
    90    27    33   am
    91    27    28    2
    92   190   189   ar
    93   186   185   ar
    94    33    34    1
    95    44    43    2
    96   159   158    2
    97   181   182    1
    98   181   184    1
    99   157   158    1
   100   157   156    1
   101   158   167   am
   102   189   187   ar
   103   143   144    1
   104   143   142    1
   105   185   187   ar
   106   185   184    1
   107    43    45   am
   108    43    42    1
   109   182   183    2
   110    88    87    2
   111    34    35    1
   112    42    41    1
   113   167   168    1
   114   168   169    1
   115   168   171    1
   116    80    79    2
   117   142   139    1
   118   139   138    1
   119   139   140    1
   120   197   198    1
   121   197   196    1
   122   170   169    2
   123    35    36    2
   124    90    89    1
   125    87    86    1
   126    86    89    1
   127    86    85    1
   128   141   140    2
   129    37    38    1
   130    91    89    1
   131    41    38    1
   132    79    85   am
   133    79    78    1
   134   140   146   am
   135    38    39    1
   136    81    78    1
   137    81    82    1
   138    75    76    1
   139    75    74    1
   140   196   195    1
   141    78    77    1
   142    83    82    1
   143    83    84    1
   144   214   212    1
   145   146   147    1
   146   195   192    1
   147   149   148    2
   148   148   147    1
   149    39    40    2
   150    74    73    1
   151   147   150    1
   152    72    71    2
   153    66    68   ar
   154    66    64   ar
   155   212   211    1
   156   192   193    1
   157   192   191    1
   158    68    67   ar
   159   213   211    1
   160    63    64   ar
   161    63    61   ar
   162   193   194    2
   163    64    62   ar
   164    71    70    1
   165    73    70    1
   166    70    69    1
   167   211   208    1
   168   150   151    1
   169    58    57    2
   170    67    65   ar
   171    61    60   ar
   172   151   153   ar
   173   151   152   ar
   174    62    65   ar
   175    62    60   ar
   176   153   155   ar
   177    69    57   am
   178    57    56    1
   179    60    59    1
   180   208   207    1
   181   208   209    1
   182   152   154   ar
   183   155   154   ar
   184   220   219    1
   185   207   201   am
   186   209   210    2
   187   221   219    1
   188    59    56    1
   189    56    55    1
   190   219   216    1
   191   203   205    1
   192   203   200    1
   193   203   204    1
   194   201   200    1
   195   201   202    2
   196   199   200    1
   197   206   204    1
   198   216   217    1
   199   216   215    1
   200   217   218    2
   201    49    48    2
   202    48    47    1
   203    47    50    1
   204    47    46    1
   205    50    51    1
   206    51    52    1
   207    54    52   am
   208    52    53    2
