@<TRIPOS>MOLECULE
tmp/3rlpB00.pdb
 135 125 0 0 0
SMALL
GASTEIGER

@<TRIPOS>ATOM
      1  N         14.9250   47.3020   41.8760 N.3    40  LEU40      -0.1245
      2  CA        15.1580   46.3370   40.8100 C.3    40  LEU40       0.1561
      3  C         16.6440   46.0090   40.6770 C.2    40  LEU40       0.2260
      4  O         17.0090   44.8550   40.4680 O.2    40  LEU40      -0.2867
      5  CB        14.6150   46.8650   39.4770 C.3    40  LEU40       0.0270
      6  CG        13.0970   47.0800   39.4250 C.3    40  LEU40       0.0019
      7  CD1       12.6930   47.5910   38.0420 C.3    40  LEU40       0.0001
      8  CD2       12.3750   45.7730   39.7350 C.3    40  LEU40       0.0001
      9  N         17.5010   43.6430   43.4240 N.3    43  ASN43      -0.1225
     10  CA        17.0970   42.2730   43.1080 C.3    43  ASN43       0.1785
     11  C         18.0800   41.6280   42.1330 C.2    43  ASN43       0.2597
     12  O         18.4170   40.4470   42.2660 O.2    43  ASN43      -0.2718
     13  CB        15.6870   42.2530   42.5100 C.3    43  ASN43       0.1169
     14  CG        14.5980   42.4510   43.5560 C.2    43  ASN43       0.2627
     15  OD1       14.8560   42.3950   44.7630 O.2    43  ASN43      -0.2716
     16  ND2       13.3710   42.6780   43.0950 N.am   43  ASN43      -0.0877
     17  N         18.5490   42.4030   41.1570 N.am   44  SER44      -0.1952
     18  CA        19.5210   41.8920   40.1980 C.3    44  SER44       0.1924
     19  C         20.8320   41.5370   40.8950 C.2    44  SER44       0.2314
     20  O         21.4450   40.5110   40.6070 O.2    44  SER44      -0.2863
     21  CB        19.7860   42.9280   39.0980 C.3    44  SER44       0.2116
     22  OG        18.6500   43.0840   38.2640 O.3    44  SER44      -0.2180
     23  N         20.4690   38.3200   42.7010 N.3    47  ALA47      -0.1245
     24  CA        20.4230   37.2030   41.7570 C.3    47  ALA47       0.1562
     25  C         21.8130   36.8700   41.2200 C.2    47  ALA47       0.2260
     26  O         22.1360   35.7010   40.9840 O.2    47  ALA47      -0.2867
     27  CB        19.4750   37.5370   40.5990 C.3    47  ALA47       0.0290
     28  N         23.7050   35.0540   43.9300 N.3    50  LYS50      -0.1245
     29  CA        23.2820   33.6600   44.0410 C.3    50  LYS50       0.1561
     30  C         24.0240   32.7610   43.0570 C.2    50  LYS50       0.2260
     31  O         24.5390   31.7070   43.4400 O.2    50  LYS50      -0.2867
     32  CB        21.7730   33.5390   43.8070 C.3    50  LYS50       0.0271
     33  CG        20.9150   34.1140   44.9250 C.3    50  LYS50       0.0035
     34  CD        19.4370   33.8480   44.6630 C.3    50  LYS50       0.0206
     35  CE        18.5830   34.2830   45.8400 C.3    50  LYS50       0.1093
     36  NZ        19.0610   33.6510   47.1010 N.3    50  LYS50      -0.1314
     37  N         19.7840   41.4750   33.9450 N.3    85  ASP85      -0.1239
     38  CA        20.9440   40.9350   34.6470 C.3    85  ASP85       0.1674
     39  C         21.2690   39.5250   34.1770 C.2    85  ASP85       0.2266
     40  O         20.4490   38.8690   33.5340 O.2    85  ASP85      -0.2867
     41  CB        20.7200   40.9450   36.1680 C.3    85  ASP85       0.1410
     42  CG        19.6030   40.0080   36.6120 C.2    85  ASP85       0.3668
     43  OD1       19.7600   38.7740   36.4920 O.co2  85  ASP85      -0.2456
     44  OD2       18.5680   40.5130   37.0870 O.co2  85  ASP85      -0.2456
     45  N         20.9830   34.4420   38.5380 N.3    88  ILE88      -0.1231
     46  CA        20.6120   33.0340   38.5650 C.3    88  ILE88       0.1692
     47  C         19.3260   32.7380   37.7790 C.2    88  ILE88       0.2593
     48  O         19.1120   31.6110   37.3220 O.2    88  ILE88      -0.2718
     49  CB        20.4630   32.5590   40.0300 C.3    88  ILE88       0.0266
     50  CG1       20.2330   31.0490   40.0760 C.3    88  ILE88       0.0019
     51  CG2       19.3030   33.2810   40.7020 C.3    88  ILE88       0.0020
     52  CD1       20.6020   30.4370   41.4140 C.3    88  ILE88       0.0001
     53  N         18.4820   33.7500   37.6090 N.am   89  GLY89      -0.1942
     54  CA        17.2240   33.5470   36.9130 C.3    89  GLY89       0.2014
     55  C         16.2270   32.7590   37.7420 C.2    89  GLY89       0.2638
     56  O         16.5130   32.4050   38.8850 O.2    89  GLY89      -0.2714
     57  N         15.0610   32.4890   37.1610 N.am   90  MET90      -0.1976
     58  CA        13.9680   31.8120   37.8660 C.3    90  MET90       0.1605
     59  C         13.3860   30.6520   37.0610 C.2    90  MET90       0.2287
     60  O         13.1870   30.7640   35.8520 O.2    90  MET90      -0.2864
     61  CB        12.8410   32.8030   38.1680 C.3    90  MET90       0.0413
     62  CG        13.1210   33.7560   39.3170 C.3    90  MET90       0.0598
     63  SD        11.7680   34.9250   39.5490 S.3    90  MET90      -0.1393
     64  CE        12.1460   36.1260   38.2560 C.3    90  MET90       0.0692
     65  N          6.9920   33.2060   43.6500 N.3    98  ASN98      -0.1225
     66  CA         7.6470   34.3910   44.1810 C.3    98  ASN98       0.1785
     67  C          7.1000   35.6970   43.6100 C.2    98  ASN98       0.2597
     68  O          7.3120   36.7610   44.1900 O.2    98  ASN98      -0.2718
     69  CB         9.1560   34.3060   43.9370 C.3    98  ASN98       0.1169
     70  CG         9.7810   33.0750   44.5780 C.2    98  ASN98       0.2627
     71  OD1        9.1530   32.3960   45.3960 O.2    98  ASN98      -0.2716
     72  ND2       11.0220   32.7800   44.2070 N.am   98  ASN98      -0.0877
     73  N          6.3970   35.6210   42.4830 N.am   99  LEU99      -0.1980
     74  CA         5.8250   36.8210   41.8720 C.3    99  LEU99       0.1596
     75  C          4.2980   36.8460   41.8440 C.2    99  LEU99       0.2287
     76  O          3.7040   37.1870   40.8210 O.2    99  LEU99      -0.2864
     77  CB         6.3470   37.0050   40.4390 C.3    99  LEU99       0.0297
     78  CG         7.7520   37.5880   40.2520 C.3    99  LEU99       0.0022
     79  CD1        8.7980   36.5430   40.6180 C.3    99  LEU99       0.0001
     80  CD2        7.9360   38.0350   38.8090 C.3    99  LEU99       0.0001
     81  N         10.7180   42.4920   51.2420 N.3   123  GLY123     -0.1210
     82  CA        10.8940   41.4870   50.2100 C.3   123  GLY123      0.1956
     83  C          9.9810   41.6570   49.0110 C.2   123  GLY123      0.2611
     84  O          9.8800   40.7620   48.1720 O.2   123  GLY123     -0.2717
     85  N          9.3140   42.8050   48.9280 N.am  124  VAL124     -0.1979
     86  CA         8.3910   43.0670   47.8310 C.3   124  VAL124      0.1595
     87  C          8.7350   44.3450   47.0670 C.2   124  VAL124      0.2287
     88  O          7.8620   44.9710   46.4660 O.2   124  VAL124     -0.2864
     89  CB         6.9260   43.1510   48.3430 C.3   124  VAL124      0.0276
     90  CG1        6.4930   41.7940   48.8730 C.3   124  VAL124      0.0022
     91  CG2        6.8020   44.2030   49.4380 C.3   124  VAL124      0.0022
     92  N         10.0630   44.6860   44.3120 N.3   126  PHE126     -0.1227
     93  CA         9.7800   44.5550   42.8900 C.3   126  PHE126      0.1736
     94  C          8.5230   45.3180   42.5100 C.2   126  PHE126      0.2595
     95  O          8.4520   45.9280   41.4520 O.2   126  PHE126     -0.2718
     96  CB         9.6100   43.0820   42.5240 C.3   126  PHE126      0.0547
     97  CG         8.9680   42.8560   41.1840 C.ar  126  PHE126     -0.0202
     98  CD1        9.7180   42.8940   40.0200 C.ar  126  PHE126     -0.0042
     99  CD2        7.6150   42.5750   41.0920 C.ar  126  PHE126     -0.0042
    100  CE1        9.1310   42.6540   38.7910 C.ar  126  PHE126     -0.0003
    101  CE2        7.0220   42.3360   39.8710 C.ar  126  PHE126     -0.0003
    102  CZ         7.7790   42.3750   38.7170 C.ar  126  PHE126     -0.0000
    103  N          7.5240   45.2870   43.3810 N.am  127  TYR127     -0.1976
    104  CA         6.2390   45.8560   43.0250 C.3   127  TYR127      0.1639
    105  C          6.2660   47.3780   42.9980 C.2   127  TYR127      0.2290
    106  O          5.3230   48.0040   42.5150 O.2   127  TYR127     -0.2864
    107  CB         5.1600   45.3480   43.9780 C.3   127  TYR127      0.0560
    108  CG         4.9340   43.8580   43.8490 C.ar  127  TYR127     -0.0198
    109  CD1        4.2190   43.3340   42.7810 C.ar  127  TYR127     -0.0009
    110  CD2        5.4460   42.9780   44.7880 C.ar  127  TYR127     -0.0009
    111  CE1        4.0220   41.9680   42.6550 C.ar  127  TYR127      0.0417
    112  CE2        5.2550   41.6130   44.6720 C.ar  127  TYR127      0.0417
    113  CZ         4.5420   41.1160   43.6070 C.ar  127  TYR127      0.1957
    114  OH         4.3370   39.7590   43.5090 O.3   127  TYR127     -0.2866
    115  N          8.3540   40.2990   32.8580 N.3   138  VAL138     -0.1245
    116  CA         9.6040   39.7280   33.3420 C.3   138  VAL138      0.1561
    117  C          9.9580   38.5140   32.4910 C.2   138  VAL138      0.2260
    118  O          9.1970   37.5510   32.4220 O.2   138  VAL138     -0.2867
    119  CB         9.4900   39.2970   34.8310 C.3   138  VAL138      0.0252
    120  CG1       10.7860   38.6210   35.2880 C.3   138  VAL138      0.0019
    121  CG2        9.2010   40.5140   35.7100 C.3   138  VAL138      0.0019
    122  N         17.6390   37.4870   34.2380 N.3   172  THR172     -0.1218
    123  CA        16.2930   38.0220   34.2750 C.3   172  THR172      0.1862
    124  C         16.2580   39.3990   33.6440 C.2   172  THR172      0.2287
    125  O         17.1550   40.2140   33.8490 O.2   172  THR172     -0.2866
    126  CB        15.7840   38.1130   35.7220 C.3   172  THR172      0.1770
    127  OG1       15.7520   36.7980   36.2900 O.3   172  THR172     -0.2211
    128  CG2       14.3840   38.7110   35.7660 C.3   172  THR172      0.0375
    129  N         13.6760   42.6780   33.2880 N.3   174  VAL174     -0.1245
    130  CA        12.4340   43.2950   33.7370 C.3   174  VAL174      0.1561
    131  C         12.1180   44.4580   32.8180 C.2   174  VAL174      0.2260
    132  O         12.8900   45.4120   32.7320 O.2   174  VAL174     -0.2867
    133  CB        12.5560   43.8100   35.1860 C.3   174  VAL174      0.0252
    134  CG1       11.3020   44.5920   35.5680 C.3   174  VAL174      0.0019
    135  CG2       12.7630   42.6350   36.1330 C.3   174  VAL174      0.0019
@<TRIPOS>BOND
     1   118   117    2
     2   117   116    1
     3   132   131    2
     4   131   130    1
     5   115   116    1
     6   129   130    1
     7   116   119    1
     8    40    39    2
     9   124   125    2
    10   124   123    1
    11   130   133    1
    12    37    38    1
    13    39    38    1
    14   122   123    1
    15   123   126    1
    16    38    41    1
    17   119   120    1
    18   119   121    1
    19   133   134    1
    20   133   135    1
    21   126   128    1
    22   126   127    1
    23    60    59    2
    24    41    42    1
    25    43    42   ar
    26    42    44   ar
    27    54    53    1
    28    54    55    1
    29    59    58    1
    30    57    55   am
    31    57    58    1
    32    48    47    2
    33    53    47   am
    34    55    56    2
    35    47    46    1
    36    58    61    1
    37     7     6    1
    38    61    62    1
    39    64    63    1
    40    22    21    1
    41    45    46    1
    42    46    49    1
    43   102   100   ar
    44   102   101   ar
    45   100    98   ar
    46    80    78    1
    47    21    18    1
    48    62    63    1
    49     6     5    1
    50     6     8    1
    51     5     2    1
    52   101    99   ar
    53    98    97   ar
    54    49    50    1
    55    49    51    1
    56    50    52    1
    57    18    19    1
    58    18    17    1
    59    78    77    1
    60    78    79    1
    61    77    74    1
    62     4     3    2
    63    27    24    1
    64    20    19    2
    65     3     2    1
    66     2     1    1
    67    76    75    2
    68    26    25    2
    69    99    97   ar
    70    17    11   am
    71    97    96    1
    72    25    24    1
    73    95    94    2
    74    24    23    1
    75    75    74    1
    76    74    73    1
    77    11    12    2
    78    11    10    1
    79    73    67   am
    80    94    93    1
    81    94   103   am
    82    13    10    1
    83    13    14    1
    84   106   105    2
    85    96    93    1
    86   111   109   ar
    87   111   113   ar
    88   109   108   ar
    89    93    92    1
    90   105   104    1
    91   104   103    1
    92   104   107    1
    93    30    31    2
    94    30    29    1
    95    16    14   am
    96    10     9    1
    97   114   113    1
    98    14    15    2
    99   113   112   ar
   100    67    66    1
   101    67    68    2
   102    65    66    1
   103    32    29    1
   104    32    33    1
   105   108   107    1
   106   108   110   ar
   107    28    29    1
   108    69    66    1
   109    69    70    1
   110    72    70   am
   111    70    71    2
   112    34    33    1
   113    34    35    1
   114   112   110   ar
   115    35    36    1
   116    88    87    2
   117    87    86    1
   118    86    89    1
   119    86    85    1
   120    84    83    2
   121    89    90    1
   122    89    91    1
   123    85    83   am
   124    83    82    1
   125    82    81    1
