@<TRIPOS>MOLECULE
tmp/3rlrA00.pdb
 151 140 0 0 0
SMALL
GASTEIGER

@<TRIPOS>ATOM
      1  N         14.9470    7.3020   52.3900 N.3    40  LEU40      -0.1245
      2  CA        15.2830    6.3830   51.3090 C.3    40  LEU40       0.1561
      3  C         16.7890    6.1690   51.2600 C.2    40  LEU40       0.2260
      4  O         17.2580    5.0450   51.0930 O.2    40  LEU40      -0.2867
      5  CB        14.7860    6.9230   49.9640 C.3    40  LEU40       0.0270
      6  CG        13.2650    7.0390   49.8410 C.3    40  LEU40       0.0019
      7  CD1       12.8960    7.5510   48.4530 C.3    40  LEU40       0.0001
      8  CD2       12.6290    5.6840   50.0970 C.3    40  LEU40       0.0001
      9  N         17.8120    3.8040   53.9580 N.3    43  ASN43      -0.1225
     10  CA        17.5680    2.4080   53.6150 C.3    43  ASN43       0.1785
     11  C         18.6100    1.8820   52.6220 C.2    43  ASN43       0.2597
     12  O         19.0020    0.7170   52.6900 O.2    43  ASN43      -0.2718
     13  CB        16.1610    2.2290   53.0420 C.3    43  ASN43       0.1169
     14  CG        15.0860    2.2260   54.1170 C.2    43  ASN43       0.2627
     15  OD1       15.3850    2.1660   55.3100 O.2    43  ASN43      -0.2716
     16  ND2       13.8260    2.2880   53.6970 N.am   43  ASN43      -0.0877
     17  N         19.0690    2.7350   51.7110 N.am   44  SER44      -0.1952
     18  CA        20.1500    2.3430   50.8060 C.3    44  SER44       0.1924
     19  C         21.4020    2.0060   51.6060 C.2    44  SER44       0.2314
     20  O         22.0500    0.9820   51.3740 O.2    44  SER44      -0.2863
     21  CB        20.4770    3.4740   49.8280 C.3    44  SER44       0.2116
     22  OG        19.5840    3.4870   48.7290 O.3    44  SER44      -0.2180
     23  N         21.7100    1.0720   54.7020 N.3    46  ASP46      -0.1225
     24  CA        21.5250   -0.1940   55.4010 C.3    46  ASP46       0.1805
     25  C         21.7350   -1.3830   54.4590 C.2    46  ASP46       0.2597
     26  O         22.3450   -2.3820   54.8380 O.2    46  ASP46      -0.2718
     27  CB        20.1190   -0.2740   56.0050 C.3    46  ASP46       0.1424
     28  CG        19.9320    0.6530   57.1900 C.2    46  ASP46       0.3668
     29  OD1       20.9260    1.2530   57.6570 O.co2  46  ASP46      -0.2456
     30  OD2       18.7780    0.7800   57.6620 O.co2  46  ASP46      -0.2456
     31  N         21.2180   -1.2770   53.2380 N.am   47  ALA47      -0.1979
     32  CA        21.3160   -2.3680   52.2710 C.3    47  ALA47       0.1597
     33  C         22.7630   -2.5570   51.8260 C.2    47  ALA47       0.2287
     34  O         23.2100   -3.6780   51.5880 O.2    47  ALA47      -0.2864
     35  CB        20.4300   -2.0750   51.0590 C.3    47  ALA47       0.0319
     36  N         24.6610   -4.3640   54.4530 N.3    50  LYS50      -0.1245
     37  CA        24.3710   -5.7930   54.4560 C.3    50  LYS50       0.1561
     38  C         25.2210   -6.5640   53.4530 C.2    50  LYS50       0.2260
     39  O         25.7950   -7.6010   53.7950 O.2    50  LYS50      -0.2867
     40  CB        22.8840   -6.0400   54.1820 C.3    50  LYS50       0.0271
     41  CG        21.9740   -5.6600   55.3430 C.3    50  LYS50       0.0035
     42  CD        20.5610   -6.1990   55.1520 C.3    50  LYS50       0.0206
     43  CE        20.5150   -7.7160   55.2990 C.3    50  LYS50       0.1093
     44  NZ        20.6060   -8.1420   56.7280 N.3    50  LYS50      -0.1314
     45  N         16.0120    6.7110   43.3680 N.3    83  ILE83      -0.1245
     46  CA        17.1660    6.4260   44.2120 C.3    83  ILE83       0.1561
     47  C         17.6320    5.0090   43.8960 C.2    83  ILE83       0.2260
     48  O         16.8390    4.0660   43.9290 O.2    83  ILE83      -0.2867
     49  CB        16.8050    6.5280   45.7190 C.3    83  ILE83       0.0252
     50  CG1       16.3830    7.9630   46.0740 C.3    83  ILE83       0.0019
     51  CG2       18.0210    6.1500   46.5730 C.3    83  ILE83       0.0019
     52  CD1       15.0250    8.3690   45.5440 C.3    83  ILE83       0.0001
     53  N         20.7130    2.0240   44.6340 N.3    85  ASP85      -0.1239
     54  CA        21.9300    1.5750   45.3000 C.3    85  ASP85       0.1674
     55  C         22.3990    0.2330   44.7610 C.2    85  ASP85       0.2266
     56  O         21.6600   -0.4640   44.0630 O.2    85  ASP85      -0.2867
     57  CB        21.7220    1.4730   46.8170 C.3    85  ASP85       0.1410
     58  CG        20.6210    0.5050   47.1920 C.2    85  ASP85       0.3668
     59  OD1       20.7760   -0.7060   46.9340 O.co2  85  ASP85      -0.2456
     60  OD2       19.5970    0.9540   47.7460 O.co2  85  ASP85      -0.2456
     61  N         22.3220   -4.9960   48.9570 N.3    88  ILE88      -0.1231
     62  CA        22.0740   -6.4330   48.9540 C.3    88  ILE88       0.1692
     63  C         20.9410   -6.8490   48.0150 C.2    88  ILE88       0.2593
     64  O         20.9350   -7.9630   47.4920 O.2    88  ILE88      -0.2718
     65  CB        21.7480   -6.9310   50.3850 C.3    88  ILE88       0.0266
     66  CG1       21.6540   -8.4580   50.4020 C.3    88  ILE88       0.0019
     67  CG2       20.4510   -6.3160   50.8710 C.3    88  ILE88       0.0020
     68  CD1       22.9890   -9.1420   50.2970 C.3    88  ILE88       0.0001
     69  N         19.9830   -5.9560   47.7970 N.am   89  GLY89      -0.1942
     70  CA        18.8570   -6.2980   46.9500 C.3    89  GLY89       0.2014
     71  C         17.8820   -7.2300   47.6440 C.2    89  GLY89       0.2638
     72  O         18.0900   -7.6180   48.7960 O.2    89  GLY89      -0.2714
     73  N         16.8160   -7.5930   46.9390 N.am   90  MET90      -0.1976
     74  CA        15.7440   -8.3960   47.5180 C.3    90  MET90       0.1605
     75  C         15.2780   -9.5000   46.5730 C.2    90  MET90       0.2287
     76  O         15.2500   -9.3200   45.3550 O.2    90  MET90      -0.2864
     77  CB        14.5520   -7.5030   47.8690 C.3    90  MET90       0.0413
     78  CG        14.7640   -6.6380   49.0890 C.3    90  MET90       0.0598
     79  SD        13.3810   -5.5180   49.3790 S.3    90  MET90      -0.1393
     80  CE        13.7600   -4.2220   48.2100 C.3    90  MET90       0.0692
     81  N          8.3630   -8.1390   52.9330 N.3    98  ASN98      -0.1225
     82  CA         8.8700   -6.9580   53.6160 C.3    98  ASN98       0.1785
     83  C          8.3110   -5.6490   53.0740 C.2    98  ASN98       0.2597
     84  O          8.4870   -4.6010   53.6910 O.2    98  ASN98      -0.2718
     85  CB        10.3970   -6.9360   53.5510 C.3    98  ASN98       0.1169
     86  CG        11.0160   -8.1550   54.2030 C.2    98  ASN98       0.2627
     87  OD1       10.4150   -8.7710   55.0840 O.2    98  ASN98      -0.2716
     88  ND2       12.2180   -8.5140   53.7720 N.am   98  ASN98      -0.0877
     89  N          7.6420   -5.7070   51.9250 N.am   99  LEU99      -0.1980
     90  CA         6.9770   -4.5260   51.3830 C.3    99  LEU99       0.1596
     91  C          5.4710   -4.6970   51.2170 C.2    99  LEU99       0.2287
     92  O          4.9010   -4.2390   50.2250 O.2    99  LEU99      -0.2864
     93  CB         7.5740   -4.1300   50.0270 C.3    99  LEU99       0.0297
     94  CG         8.8510   -3.2880   50.0210 C.3    99  LEU99       0.0022
     95  CD1       10.0390   -4.1490   50.4430 C.3    99  LEU99       0.0001
     96  CD2        9.0820   -2.7230   48.6280 C.3    99  LEU99       0.0001
     97  N         11.3030    1.6010   61.3600 N.3   127  GLY127     -0.1210
     98  CA        11.5960    0.6600   60.2920 C.3   127  GLY127      0.1956
     99  C         10.6700    0.7390   59.0890 C.2   127  GLY127      0.2611
    100  O         10.6890   -0.1450   58.2330 O.2   127  GLY127     -0.2717
    101  N          9.8590    1.7890   59.0120 N.am  128  VAL128     -0.1979
    102  CA         8.9250    1.9340   57.9020 C.3   128  VAL128      0.1595
    103  C          9.1320    3.2340   57.1280 C.2   128  VAL128      0.2287
    104  O          8.2020    3.7430   56.5040 O.2   128  VAL128     -0.2864
    105  CB         7.4470    1.8750   58.3820 C.3   128  VAL128      0.0276
    106  CG1        7.1210    0.4780   58.8950 C.3   128  VAL128      0.0022
    107  CG2        7.2080    2.9030   59.4820 C.3   128  VAL128      0.0022
    108  N         10.4320    3.7910   54.3730 N.3   130  PHE130     -0.1227
    109  CA        10.1390    3.6470   52.9500 C.3   130  PHE130      0.1736
    110  C          8.8160    4.3160   52.5740 C.2   130  PHE130      0.2595
    111  O          8.7050    4.9880   51.5450 O.2   130  PHE130     -0.2718
    112  CB        10.0730    2.1660   52.5850 C.3   130  PHE130      0.0547
    113  CG         9.4040    1.8920   51.2690 C.ar  130  PHE130     -0.0202
    114  CD1       10.0650    2.1400   50.0770 C.ar  130  PHE130     -0.0042
    115  CD2        8.1280    1.3550   51.2240 C.ar  130  PHE130     -0.0042
    116  CE1        9.4670    1.8540   48.8630 C.ar  130  PHE130     -0.0003
    117  CE2        7.5180    1.0660   50.0100 C.ar  130  PHE130     -0.0003
    118  CZ         8.1890    1.3140   48.8260 C.ar  130  PHE130     -0.0000
    119  N          7.8030    4.1190   53.4070 N.am  131  TYR131     -0.1976
    120  CA         6.4710    4.5740   53.0510 C.3   131  TYR131      0.1639
    121  C          6.3570    6.0970   53.0590 C.2   131  TYR131      0.2290
    122  O          5.3770    6.6450   52.5500 O.2   131  TYR131     -0.2864
    123  CB         5.4430    3.9290   53.9910 C.3   131  TYR131      0.0560
    124  CG         5.3790    2.4270   53.8120 C.ar  131  TYR131     -0.0198
    125  CD1        4.7130    1.8700   52.7280 C.ar  131  TYR131     -0.0009
    126  CD2        6.0240    1.5710   54.6970 C.ar  131  TYR131     -0.0009
    127  CE1        4.6920    0.5040   52.5260 C.ar  131  TYR131      0.0417
    128  CE2        6.0090    0.1940   54.5010 C.ar  131  TYR131      0.0417
    129  CZ         5.3430   -0.3280   53.4140 C.ar  131  TYR131      0.1957
    130  OH         5.3280   -1.6860   53.1990 O.3   131  TYR131     -0.2866
    131  N          9.5320   -0.2570   42.8130 N.3   142  VAL142     -0.1245
    132  CA        10.7960   -0.7320   43.3610 C.3   142  VAL142      0.1561
    133  C         11.3210   -1.8520   42.4780 C.2   142  VAL142      0.2260
    134  O         10.6910   -2.8980   42.3500 O.2   142  VAL142     -0.2867
    135  CB        10.6290   -1.2660   44.8060 C.3   142  VAL142      0.0252
    136  CG1       11.9710   -1.7680   45.3330 C.3   142  VAL142      0.0019
    137  CG2       10.0860   -0.1680   45.7170 C.3   142  VAL142      0.0019
    138  N         19.0000   -2.0980   44.4570 N.3   176  THR176     -0.1218
    139  CA        17.5990   -1.7130   44.4750 C.3   176  THR176      0.1862
    140  C         17.4280   -0.3090   43.9130 C.2   176  THR176      0.2287
    141  O         18.2310    0.5890   44.1840 O.2   176  THR176     -0.2866
    142  CB        17.0410   -1.7760   45.9140 C.3   176  THR176      0.1770
    143  OG1       17.1470   -3.1230   46.4010 O.3   176  THR176     -0.2211
    144  CG2       15.5740   -1.3420   45.9520 C.3   176  THR176      0.0375
    145  N         14.4960    2.6400   43.6260 N.3   178  VAL178     -0.1245
    146  CA        13.1750    3.0950   44.0480 C.3   178  VAL178      0.1561
    147  C         12.7820    4.3090   43.2150 C.2   178  VAL178      0.2260
    148  O         13.4280    5.3550   43.2780 O.2   178  VAL178     -0.2867
    149  CB        13.1550    3.4770   45.5440 C.3   178  VAL178      0.0252
    150  CG1       11.7660    3.9830   45.9320 C.3   178  VAL178      0.0019
    151  CG2       13.5350    2.2740   46.3980 C.3   178  VAL178      0.0019
@<TRIPOS>BOND
     1   134   133    2
     2   133   132    1
     3   131   132    1
     4   147   148    2
     5   147   146    1
     6   132   135    1
     7    45    46    1
     8   145   146    1
     9    47    48    2
    10    47    46    1
    11   140   141    2
    12   140   139    1
    13   146   149    1
    14    56    55    2
    15    46    49    1
    16   138   139    1
    17   139   142    1
    18    53    54    1
    19    55    54    1
    20   135   136    1
    21   135   137    1
    22    54    57    1
    23    76    75    2
    24   149   150    1
    25   149   151    1
    26    52    50    1
    27    49    50    1
    28    49    51    1
    29   142   144    1
    30   142   143    1
    31    75    74    1
    32    57    58    1
    33    59    58   ar
    34    73    74    1
    35    73    71   am
    36    70    71    1
    37    70    69    1
    38    58    60   ar
    39    64    63    2
    40    74    77    1
    41    71    72    2
    42    69    63   am
    43    77    78    1
    44    63    62    1
    45    80    79    1
    46     7     6    1
    47    96    94    1
    48    22    21    1
    49   118   116   ar
    50   118   117   ar
    51   116   114   ar
    52    62    61    1
    53    62    65    1
    54    78    79    1
    55    21    18    1
    56     6     5    1
    57     6     8    1
    58     5     2    1
    59   117   115   ar
    60    94    93    1
    61    94    95    1
    62    93    90    1
    63   114   113   ar
    64    92    91    2
    65    68    66    1
    66    65    66    1
    67    65    67    1
    68    18    19    1
    69    18    17    1
    70    35    32    1
    71     4     3    2
    72    91    90    1
    73   115   113   ar
    74     3     2    1
    75   113   112    1
    76     2     1    1
    77    20    19    2
    78    90    89    1
    79   111   110    2
    80    34    33    2
    81    17    11   am
    82    33    32    1
    83    89    83   am
    84    32    31    1
    85   127   125   ar
    86   127   129   ar
    87   122   121    2
    88   110   109    1
    89   110   119   am
    90   112   109    1
    91    11    12    2
    92    11    10    1
    93   125   124   ar
    94    81    82    1
    95   109   108    1
    96    13    10    1
    97    13    14    1
    98   120   121    1
    99   120   119    1
   100   120   123    1
   101    83    82    1
   102    83    84    2
   103   130   129    1
   104    31    25   am
   105   129   128   ar
   106    38    39    2
   107    38    37    1
   108    85    82    1
   109    85    86    1
   110    10     9    1
   111    16    14   am
   112    88    86   am
   113   124   123    1
   114   124   126   ar
   115    14    15    2
   116    40    37    1
   117    40    41    1
   118    86    87    2
   119    36    37    1
   120    25    26    2
   121    25    24    1
   122   128   126   ar
   123    23    24    1
   124    42    43    1
   125    42    41    1
   126    43    44    1
   127    24    27    1
   128    27    28    1
   129   104   103    2
   130   103   102    1
   131    28    29   ar
   132    28    30   ar
   133   102   105    1
   134   102   101    1
   135   100    99    2
   136   105   106    1
   137   105   107    1
   138   101    99   am
   139    99    98    1
   140    98    97    1
