@<TRIPOS>MOLECULE
tmp/3rlyB03.pdb
 137 138 0 0 0
SMALL
GASTEIGER

@<TRIPOS>ATOM
      1  N         25.9270  -10.8940   15.2040 N.3    47  TYR47      -0.1241
      2  CA        25.7190  -12.0140   16.1180 C.3    47  TYR47       0.1605
      3  C         26.4140  -13.2560   15.5710 C.2    47  TYR47       0.2264
      4  O         25.8060  -14.1050   14.9170 O.2    47  TYR47      -0.2867
      5  CB        24.2310  -12.2610   16.4260 C.3    47  TYR47       0.0534
      6  CG        24.0680  -13.1860   17.6100 C.ar   47  TYR47      -0.0201
      7  CD1       24.4980  -12.8010   18.8760 C.ar   47  TYR47      -0.0009
      8  CD2       23.5310  -14.4590   17.4570 C.ar   47  TYR47      -0.0009
      9  CE1       24.3900  -13.6680   19.9710 C.ar   47  TYR47       0.0417
     10  CE2       23.4080  -15.3160   18.5330 C.ar   47  TYR47       0.0417
     11  CZ        23.8400  -14.9190   19.7870 C.ar   47  TYR47       0.1957
     12  OH        23.7200  -15.7940   20.8500 O.3    47  TYR47      -0.2866
     13  N         25.2450  -17.0400   15.1820 N.3    50  TRP50      -0.1241
     14  CA        24.3110  -17.3530   14.1020 C.3    50  TRP50       0.1605
     15  C         24.8070  -16.8560   12.7470 C.2    50  TRP50       0.2264
     16  O         24.0110  -16.7000   11.8040 O.2    50  TRP50      -0.2867
     17  CB        22.9320  -16.7460   14.3740 C.3    50  TRP50       0.0550
     18  CG        22.2270  -17.2920   15.5940 C.ar   50  TRP50       0.0003
     19  CD1       22.5680  -18.3930   16.3190 C.ar   50  TRP50       0.0946
     20  CD2       21.0560  -16.7450   16.2190 C.ar   50  TRP50       0.0152
     21  NE1       21.6820  -18.5670   17.3630 N.ar   50  TRP50      -0.2442
     22  CE2       20.7430  -17.5700   17.3170 C.ar   50  TRP50       0.0810
     23  CE3       20.2420  -15.6380   15.9520 C.ar   50  TRP50       0.0012
     24  CZ2       19.6520  -17.3200   18.1540 C.ar   50  TRP50       0.0191
     25  CZ3       19.1580  -15.3900   16.7880 C.ar   50  TRP50       0.0001
     26  CH2       18.8730  -16.2290   17.8700 C.ar   50  TRP50       0.0015
     27  N         28.2940  -10.0710   22.7340 N.3    92  TRP92      -0.1227
     28  CA        27.5740  -11.1080   22.0070 C.3    92  TRP92       0.1737
     29  C         27.9810  -12.5040   22.4580 C.2    92  TRP92       0.2595
     30  O         27.2900  -13.4760   22.1730 O.2    92  TRP92      -0.2718
     31  CB        27.7690  -10.9700   20.4940 C.3    92  TRP92       0.0564
     32  CG        29.2040  -10.9000   20.0450 C.ar   92  TRP92       0.0003
     33  CD1       29.9250   -9.7690   19.7840 C.ar   92  TRP92       0.0946
     34  CD2       30.0820  -12.0060   19.7830 C.ar   92  TRP92       0.0152
     35  NE1       31.2020  -10.1020   19.3880 N.ar   92  TRP92      -0.2442
     36  CE2       31.3150  -11.4710   19.3680 C.ar   92  TRP92       0.0810
     37  CE3       29.9330  -13.3960   19.8380 C.ar   92  TRP92       0.0012
     38  CZ2       32.4020  -12.2740   19.0260 C.ar   92  TRP92       0.0191
     39  CZ3       31.0190  -14.1950   19.4990 C.ar   92  TRP92       0.0001
     40  CH2       32.2320  -13.6310   19.1030 C.ar   92  TRP92       0.0015
     41  N         29.0980  -12.6100   23.1610 N.am   93  ARG93      -0.1966
     42  CA        29.5950  -13.9190   23.5720 C.3    93  ARG93       0.1729
     43  C         28.7460  -14.5480   24.6730 C.2    93  ARG93       0.2616
     44  O         28.5380  -15.7670   24.6850 O.2    93  ARG93      -0.2715
     45  CB        31.0510  -13.8280   24.0360 C.3    93  ARG93       0.0348
     46  CG        32.0160  -13.3050   22.9780 C.3    93  ARG93       0.0492
     47  CD        33.4580  -13.5210   23.3950 C.3    93  ARG93       0.2205
     48  NE        33.7220  -14.9340   23.6300 N.pl3  93  ARG93      -0.0865
     49  CZ        34.1220  -15.7790   22.6860 C.cat  93  ARG93       0.5346
     50  NH1       34.3220  -17.0500   22.9790 N.pl3  93  ARG93       0.1354
     51  NH2       34.3290  -15.3480   21.4490 N.pl3  93  ARG93       0.1354
     52  N         28.2660  -13.7190   25.5970 N.am   94  GLU94      -0.1963
     53  CA        27.5840  -14.2300   26.7860 C.3    94  GLU94       0.1733
     54  C         26.0920  -13.9440   26.8940 C.2    94  GLU94       0.2616
     55  O         25.2810  -14.8680   26.8710 O.2    94  GLU94      -0.2715
     56  CB        28.2450  -13.7280   28.0700 C.3    94  GLU94       0.0429
     57  CG        27.5180  -14.2530   29.3060 C.3    94  GLU94       0.1163
     58  CD        28.0100  -13.6700   30.6080 C.2    94  GLU94       0.3649
     59  OE1       28.9460  -12.8400   30.5890 O.co2  94  GLU94      -0.2457
     60  OE2       27.4480  -14.0550   31.6590 O.co2  94  GLU94      -0.2457
     61  N         25.7340  -12.6710   27.0640 N.am   95  ASN95      -0.1958
     62  CA        24.3740  -12.3280   27.4780 C.3    95  ASN95       0.1819
     63  C         23.7830  -11.0990   26.7980 C.2    95  ASN95       0.2621
     64  O         22.7620  -10.5760   27.2500 O.2    95  ASN95      -0.2715
     65  CB        24.3450  -12.1190   28.9960 C.3    95  ASN95       0.1195
     66  CG        25.2750  -11.0080   29.4360 C.2    95  ASN95       0.2630
     67  OD1       25.9750  -10.4220   28.6080 O.2    95  ASN95      -0.2716
     68  ND2       25.2760  -10.6910   30.7330 N.am   95  ASN95      -0.0877
     69  N         24.4040  -10.6480   25.7060 N.am   96  LEU96      -0.1977
     70  CA        23.9500   -9.4640   24.9610 C.3    96  LEU96       0.1596
     71  C         24.0250   -8.1870   25.7960 C.2    96  LEU96       0.2287
     72  O         23.2530   -7.2510   25.5820 O.2    96  LEU96      -0.2864
     73  CB        22.5210   -9.6290   24.4260 C.3    96  LEU96       0.0297
     74  CG        22.2370  -10.7100   23.3890 C.3    96  LEU96       0.0022
     75  CD1       20.9060  -10.4300   22.6980 C.3    96  LEU96       0.0001
     76  CD2       23.3650  -10.8780   22.3770 C.3    96  LEU96       0.0001
     77  N         18.2560  -18.1530   33.9440 N.3   171  ARG171     -0.1231
     78  CA        19.5970  -18.5720   34.3380 C.3   171  ARG171      0.1694
     79  C         20.6730  -17.6520   33.7680 C.2   171  ARG171      0.2591
     80  O         21.8400  -17.7310   34.1680 O.2   171  ARG171     -0.2718
     81  CB        19.8600  -20.0030   33.8830 C.3   171  ARG171      0.0321
     82  CG        18.9370  -21.0340   34.5290 C.3   171  ARG171      0.0489
     83  CD        19.1450  -22.4300   33.9590 C.3   171  ARG171      0.2205
     84  NE        20.4590  -22.9660   34.2910 N.pl3 171  ARG171     -0.0865
     85  CZ        20.8190  -24.2340   34.1120 C.cat 171  ARG171      0.5346
     86  NH1       19.9610  -25.1040   33.6040 N.pl3 171  ARG171      0.1354
     87  NH2       22.0350  -24.6330   34.4540 N.pl3 171  ARG171      0.1354
     88  N         20.2860  -16.7900   32.8330 N.am  172  ILE172     -0.1980
     89  CA        21.2190  -15.8660   32.2010 C.3   172  ILE172      0.1595
     90  C         21.6010  -14.7540   33.1840 C.2   172  ILE172      0.2287
     91  O         20.7700  -14.2930   33.9780 O.2   172  ILE172     -0.2864
     92  CB        20.5960  -15.3030   30.8940 C.3   172  ILE172      0.0276
     93  CG1       20.4030  -16.4480   29.8930 C.3   172  ILE172      0.0022
     94  CG2       21.4500  -14.1810   30.2900 C.3   172  ILE172      0.0022
     95  CD1       19.4150  -16.1360   28.7900 C.3   172  ILE172      0.0001
     96  N         16.2410   -9.3370   24.1280 N.3   220  TRP220     -0.1227
     97  CA        16.1910  -10.7980   24.1940 C.3   220  TRP220      0.1737
     98  C         15.0720  -11.3210   25.0760 C.2   220  TRP220      0.2596
     99  O         14.4290  -10.5650   25.8020 O.2   220  TRP220     -0.2718
    100  CB        17.5550  -11.3770   24.6150 C.3   220  TRP220      0.0564
    101  CG        18.0320  -11.0020   26.0030 C.ar  220  TRP220      0.0003
    102  CD1       18.7410   -9.8930   26.3590 C.ar  220  TRP220      0.0946
    103  CD2       17.8700  -11.7710   27.2010 C.ar  220  TRP220      0.0152
    104  NE1       19.0200   -9.9150   27.7060 N.ar  220  TRP220     -0.2442
    105  CE2       18.5090  -11.0680   28.2400 C.ar  220  TRP220      0.0810
    106  CE3       17.2630  -13.0020   27.4880 C.ar  220  TRP220      0.0012
    107  CZ2       18.5340  -11.5360   29.5590 C.ar  220  TRP220      0.0191
    108  CZ3       17.2870  -13.4610   28.7860 C.ar  220  TRP220      0.0001
    109  CH2       17.9180  -12.7340   29.8040 C.ar  220  TRP220      0.0015
    110  N         14.8200  -12.6200   24.9790 N.am  221  GLY221     -0.1942
    111  CA        13.7840  -13.2530   25.7650 C.3   221  GLY221      0.2014
    112  C         13.8260  -14.7470   25.5100 C.2   221  GLY221      0.2639
    113  O         14.2260  -15.1860   24.4420 O.2   221  GLY221     -0.2714
    114  N         13.4090  -15.5210   26.4970 N.am  222  GLU222     -0.1963
    115  CA        13.3970  -16.9670   26.3670 C.3   222  GLU222      0.1733
    116  C         12.0360  -17.4010   25.8200 C.2   222  GLU222      0.2616
    117  O         11.0450  -17.4580   26.5410 O.2   222  GLU222     -0.2715
    118  CB        13.7370  -17.5890   27.7160 C.3   222  GLU222      0.0429
    119  CG        15.1690  -17.2430   28.1250 C.3   222  GLU222      0.1163
    120  CD        15.4850  -17.4910   29.5910 C.2   222  GLU222      0.3649
    121  OE1       14.5770  -17.3840   30.4400 O.co2 222  GLU222     -0.2457
    122  OE2       16.6600  -17.7770   29.8900 O.co2 222  GLU222     -0.2457
    123  N         11.9870  -17.6630   24.5180 N.am  223  GLY223     -0.1955
    124  CA        10.7050  -17.8430   23.8540 C.3   223  GLY223      0.1869
    125  C          9.9780  -16.5060   23.7680 C.2   223  GLY223      0.2309
    126  O         10.6110  -15.4440   23.7940 O.2   223  GLY223     -0.2863
    127  N          5.9280  -16.4800   27.3300 N.3   226  ARG226     -0.1245
    128  CA         5.8320  -17.6360   28.2060 C.3   226  ARG226      0.1563
    129  C          5.5160  -17.2080   29.6270 C.2   226  ARG226      0.2260
    130  O          6.0260  -16.1950   30.1160 O.2   226  ARG226     -0.2867
    131  CB         7.1300  -18.4470   28.2090 C.3   226  ARG226      0.0307
    132  CG         7.5090  -19.0600   26.8800 C.3   226  ARG226      0.0489
    133  CD         8.7050  -19.9800   27.0710 C.3   226  ARG226      0.2205
    134  NE         9.2490  -20.4520   25.8050 N.pl3 226  ARG226     -0.0865
    135  CZ        10.4340  -21.0420   25.6810 C.cat 226  ARG226      0.5346
    136  NH1       11.1960  -21.2380   26.7540 N.pl3 226  ARG226      0.1354
    137  NH2       10.8580  -21.4370   24.4900 N.pl3 226  ARG226      0.1354
@<TRIPOS>BOND
     1    16    15    2
     2    15    14    1
     3    14    17    1
     4    14    13    1
     5    17    18    1
     6     4     3    2
     7     1     2    1
     8     3     2    1
     9    18    20   ar
    10    18    19   ar
    11    23    20   ar
    12    23    25   ar
    13     2     5    1
    14    20    22   ar
    15    19    21   ar
    16     5     6    1
    17    25    26   ar
    18    22    21   ar
    19    22    24   ar
    20     8     6   ar
    21     8    10   ar
    22     6     7   ar
    23    26    24   ar
    24    10    11   ar
    25     7     9   ar
    26    38    40   ar
    27    38    36   ar
    28    40    39   ar
    29    36    35   ar
    30    36    34   ar
    31    35    33   ar
    32    39    37   ar
    33    34    37   ar
    34    34    32   ar
    35    33    32   ar
    36    11     9   ar
    37    11    12    1
    38    32    31    1
    39    31    28    1
    40    51    49    1
    41    28    29    1
    42    28    27    1
    43    30    29    2
    44    76    74    1
    45    29    41   am
    46    49    50    1
    47    49    48    2
    48    75    74    1
    49    46    47    1
    50    46    45    1
    51    41    42    1
    52    74    73    1
    53    47    48    1
    54    42    45    1
    55    42    43    1
    56   125   126    2
    57   125   124    1
    58   124   123    1
    59    96    97    1
    60    97   100    1
    61    97    98    1
    62    73    70    1
    63   113   112    2
    64   137   135    1
    65   123   116   am
    66   100   101    1
    67    43    44    2
    68    43    52   am
    69    70    69    1
    70    70    71    1
    71   110    98   am
    72   110   111    1
    73    98    99    2
    74   112   111    1
    75   112   114   am
    76    72    71    2
    77    52    53    1
    78   135   134    2
    79   135   136    1
    80    69    63   am
    81   134   133    1
    82   116   115    1
    83   116   117    2
    84   101   102   ar
    85   101   103   ar
    86   102   104   ar
    87   115   114    1
    88   115   118    1
    89    53    54    1
    90    53    56    1
    91    63    64    2
    92    63    62    1
    93    55    54    2
    94   132   133    1
    95   132   131    1
    96    54    61   am
    97    61    62    1
    98   103   106   ar
    99   103   105   ar
   100   127   128    1
   101    62    65    1
   102   106   108   ar
   103   104   105   ar
   104   118   119    1
   105    56    57    1
   106   119   120    1
   107   128   131    1
   108   128   129    1
   109   105   107   ar
   110    67    66    2
   111   108   109   ar
   112    95    93    1
   113    65    66    1
   114    57    58    1
   115    66    68   am
   116   107   109   ar
   117   120   122   ar
   118   120   121   ar
   119   129   130    2
   120    93    92    1
   121    94    92    1
   122    59    58   ar
   123    58    60   ar
   124    92    89    1
   125    89    88    1
   126    89    90    1
   127    88    79   am
   128    90    91    2
   129    86    85    1
   130    79    80    2
   131    79    78    1
   132    81    78    1
   133    81    82    1
   134    77    78    1
   135    83    84    1
   136    83    82    1
   137    85    84    2
   138    85    87    1
