@<TRIPOS>MOLECULE
tmp/3rm1A00.pdb
 159 154 0 0 0
SMALL
GASTEIGER

@<TRIPOS>ATOM
      1  N          3.5810  -14.9670   -1.6170 N.3    37  ILE37      -0.1245
      2  CA         3.6300  -14.6850   -3.0400 C.3    37  ILE37       0.1561
      3  C          2.4570  -15.3260   -3.7850 C.2    37  ILE37       0.2260
      4  O          1.8120  -14.6950   -4.6640 O.2    37  ILE37      -0.2867
      5  CB         4.9820  -15.1310   -3.6120 C.3    37  ILE37       0.0252
      6  CG1        6.0950  -14.2330   -3.0660 C.3    37  ILE37       0.0019
      7  CG2        4.9460  -15.1410   -5.1370 C.3    37  ILE37       0.0019
      8  CD1        7.4970  -14.7340   -3.3080 C.3    37  ILE37       0.0001
      9  N         -1.4240  -11.4850   -9.1870 N.3    43  HIS43      -0.1226
     10  CA        -1.5600  -10.6860  -10.4090 C.3    43  HIS43       0.1752
     11  C         -0.2520  -10.1610  -10.9410 C.2    43  HIS43       0.2596
     12  O         -0.2020   -9.7390  -12.1000 O.2    43  HIS43      -0.2718
     13  CB        -2.5680   -9.6180  -10.2040 C.3    43  HIS43       0.0759
     14  CG        -3.8730  -10.1790   -9.7750 C.ar   43  HIS43       0.0818
     15  ND1       -4.8530  -10.6220  -10.6420 N.ar   43  HIS43      -0.2268
     16  CD2       -4.3220  -10.4340   -8.5310 C.ar   43  HIS43       0.1154
     17  CE1       -5.8690  -11.0890   -9.9340 C.ar   43  HIS43       0.1986
     18  NE2       -5.5670  -10.9930   -8.6520 N.ar   43  HIS43      -0.2212
     19  N          0.7900  -10.1810  -10.1320 N.am   44  PHE44      -0.1962
     20  CA         2.0680   -9.6270  -10.5350 C.3    44  PHE44       0.1771
     21  C          3.1400  -10.6650  -10.7880 C.2    44  PHE44       0.2619
     22  O          4.1280  -10.3570  -11.4550 O.2    44  PHE44      -0.2715
     23  CB         2.6090   -8.6620   -9.4780 C.3    44  PHE44       0.0574
     24  CG         1.7700   -7.4180   -9.3020 C.ar   44  PHE44      -0.0200
     25  CD1        1.2530   -6.7460  -10.3810 C.ar   44  PHE44      -0.0042
     26  CD2        1.5110   -6.8880   -8.0650 C.ar   44  PHE44      -0.0042
     27  CE1        0.4710   -5.5700  -10.1930 C.ar   44  PHE44      -0.0003
     28  CE2        0.7230   -5.7420   -7.9090 C.ar   44  PHE44      -0.0003
     29  CZ         0.2140   -5.1010   -8.9440 C.ar   44  PHE44      -0.0000
     30  N          2.9910  -11.8620  -10.2030 N.am   45  LEU45      -0.1963
     31  CA         4.0370  -12.9080  -10.2510 C.3    45  LEU45       0.1728
     32  C          3.4030  -14.2580  -10.5080 C.2    45  LEU45       0.2616
     33  O          2.3670  -14.5930   -9.9500 O.2    45  LEU45      -0.2715
     34  CB         4.8460  -12.9590   -8.9480 C.3    45  LEU45       0.0311
     35  CG         5.6230  -11.6790   -8.5930 C.3    45  LEU45       0.0022
     36  CD1        6.1080  -11.7170   -7.1560 C.3    45  LEU45       0.0001
     37  CD2        6.7960  -11.4440   -9.5520 C.3    45  LEU45       0.0001
     38  N          4.0490  -15.0410  -11.3590 N.am   46  GLU46      -0.1963
     39  CA         3.5870  -16.4040  -11.5990 C.3    46  GLU46       0.1733
     40  C          3.6670  -17.2340  -10.3110 C.2    46  GLU46       0.2616
     41  O          4.6030  -17.1010   -9.5390 O.2    46  GLU46      -0.2715
     42  CB         4.4090  -17.0660  -12.7000 C.3    46  GLU46       0.0429
     43  CG         3.8590  -18.3910  -13.1940 C.3    46  GLU46       0.1163
     44  CD         2.4110  -18.2890  -13.6560 C.2    46  GLU46       0.3649
     45  OE1        2.0600  -17.3190  -14.3810 O.co2  46  GLU46      -0.2457
     46  OE2        1.6210  -19.1770  -13.2910 O.co2  46  GLU46      -0.2457
     47  N          2.6680  -18.0710  -10.1030 N.am   47  GLU47      -0.1963
     48  CA         2.6510  -19.0130   -9.0010 C.3    47  GLU47       0.1733
     49  C          3.9600  -19.8020   -8.8950 C.2    47  GLU47       0.2616
     50  O          4.4980  -20.3100   -9.8830 O.2    47  GLU47      -0.2715
     51  CB         1.4660  -19.9640   -9.1610 C.3    47  GLU47       0.0429
     52  CG         1.2860  -20.8840   -7.9600 C.3    47  GLU47       0.1163
     53  CD         0.1700  -21.8730   -8.1120 C.2    47  GLU47       0.3649
     54  OE1       -0.6100  -21.7350   -9.0670 O.co2  47  GLU47      -0.2457
     55  OE2        0.0820  -22.7790   -7.2630 O.co2  47  GLU47      -0.2457
     56  N          4.4610  -19.9170   -7.6830 N.am   48  ILE48      -0.1977
     57  CA         5.6770  -20.7000   -7.4240 C.3    48  ILE48       0.1596
     58  C          5.2820  -22.1320   -7.1480 C.2    48  ILE48       0.2287
     59  O          4.4930  -22.3820   -6.2120 O.2    48  ILE48      -0.2864
     60  CB         6.4230  -20.1340   -6.2290 C.3    48  ILE48       0.0276
     61  CG1        6.8540  -18.6890   -6.4890 C.3    48  ILE48       0.0022
     62  CG2        7.6410  -21.0300   -5.9190 C.3    48  ILE48       0.0022
     63  CD1        7.4800  -18.0130   -5.2760 C.3    48  ILE48       0.0001
     64  N         12.6290  -22.4640   -7.2990 N.3    53  VAL53      -0.1245
     65  CA        12.1900  -21.1020   -7.4050 C.3    53  VAL53       0.1561
     66  C         12.0220  -20.5040   -6.0080 C.2    53  VAL53       0.2260
     67  O         12.4280  -19.3680   -5.7920 O.2    53  VAL53      -0.2867
     68  CB        10.9210  -20.9790   -8.2480 C.3    53  VAL53       0.0252
     69  CG1       10.4210  -19.5580   -8.2250 C.3    53  VAL53       0.0019
     70  CG2       11.2270  -21.4120   -9.6720 C.3    53  VAL53       0.0019
     71  N         15.5170  -19.7260   -4.8960 N.3    56  LYS56      -0.1231
     72  CA        16.1080  -18.5700   -5.5400 C.3    56  LYS56       0.1693
     73  C         15.4850  -17.2640   -5.0840 C.2    56  LYS56       0.2591
     74  O         16.1820  -16.2750   -4.9130 O.2    56  LYS56      -0.2718
     75  CB        16.0180  -18.6900   -7.0610 C.3    56  LYS56       0.0285
     76  CG        16.7670  -17.5530   -7.8010 C.3    56  LYS56       0.0035
     77  CD        18.2560  -17.5340   -7.4960 C.3    56  LYS56       0.0206
     78  CE        18.9050  -18.8230   -7.9940 C.3    56  LYS56       0.1093
     79  NZ        20.3200  -18.7580   -7.6740 N.3    56  LYS56      -0.1314
     80  N         14.1800  -17.2500   -4.8740 N.am   57  VAL57      -0.1980
     81  CA        13.5490  -16.0240   -4.4060 C.3    57  VAL57       0.1595
     82  C         14.0670  -15.6850   -3.0170 C.2    57  VAL57       0.2287
     83  O         14.4240  -14.5280   -2.7670 O.2    57  VAL57      -0.2864
     84  CB        11.9900  -16.1100   -4.4170 C.3    57  VAL57       0.0276
     85  CG1       11.3900  -14.8430   -3.8680 C.3    57  VAL57       0.0022
     86  CG2       11.4400  -16.3880   -5.8390 C.3    57  VAL57       0.0022
     87  N         17.5590  -14.3570   -3.1990 N.3    60  THR60      -0.1203
     88  CA        17.5530  -13.0030   -3.7540 C.3    60  THR60       0.1994
     89  C         17.1680  -11.9640   -2.6900 C.2    60  THR60       0.2617
     90  O         17.7790  -10.8960   -2.5830 O.2    60  THR60      -0.2717
     91  CB        16.6060  -12.9290   -4.9510 C.3    60  THR60       0.1784
     92  OG1       17.0670  -13.8380   -5.9630 O.3    60  THR60      -0.2211
     93  CG2       16.5220  -11.5180   -5.5150 C.3    60  THR60       0.0376
     94  N         16.1550  -12.2820   -1.8950 N.am   61  LEU61      -0.1979
     95  CA        15.6370  -11.3320   -0.9070 C.3    61  LEU61       0.1596
     96  C         16.3990  -11.3000    0.4110 C.2    61  LEU61       0.2287
     97  O         16.3490  -10.2950    1.1040 O.2    61  LEU61      -0.2864
     98  CB        14.1580  -11.6000   -0.6420 C.3    61  LEU61       0.0297
     99  CG        13.2230  -11.5530   -1.8500 C.3    61  LEU61       0.0022
    100  CD1       11.7880  -11.7630   -1.3820 C.3    61  LEU61       0.0001
    101  CD2       13.4050  -10.2270   -2.6210 C.3    61  LEU61       0.0001
    102  N         11.6630   -6.0450   -1.3590 N.3    77  PHE77      -0.1241
    103  CA        10.8740   -6.8070   -2.3370 C.3    77  PHE77       0.1605
    104  C          9.6900   -6.0320   -2.8830 C.2    77  PHE77       0.2264
    105  O          9.4790   -6.0000   -4.0780 O.2    77  PHE77      -0.2867
    106  CB        10.4260   -8.1090   -1.6590 C.3    77  PHE77       0.0534
    107  CG         9.6430   -9.0820   -2.5420 C.ar   77  PHE77      -0.0203
    108  CD1       10.0110   -9.3750   -3.8670 C.ar   77  PHE77      -0.0042
    109  CD2        8.5700   -9.7580   -1.9950 C.ar   77  PHE77      -0.0042
    110  CE1        9.3070  -10.3230   -4.6050 C.ar   77  PHE77      -0.0003
    111  CE2        7.8940  -10.7210   -2.7230 C.ar   77  PHE77      -0.0003
    112  CZ         8.2600  -10.9850   -4.0350 C.ar   77  PHE77      -0.0000
    113  N         10.8700   -3.6030   -5.3720 N.3    80  MET80      -0.1230
    114  CA        11.1580   -4.2620   -6.6530 C.3    80  MET80       0.1702
    115  C          9.8870   -4.4430   -7.4740 C.2    80  MET80       0.2592
    116  O          9.8450   -4.1780   -8.6760 O.2    80  MET80      -0.2718
    117  CB        11.7690   -5.6440   -6.4160 C.3    80  MET80       0.0401
    118  CG        13.1640   -5.6870   -5.8970 C.3    80  MET80       0.0596
    119  SD        13.5970   -7.3480   -5.3130 S.3    80  MET80      -0.1393
    120  CE        15.3440   -7.0780   -5.1650 C.3    80  MET80       0.0692
    121  N          8.8240   -4.8910   -6.8140 N.am   81  ILE81      -0.1980
    122  CA         7.5590   -5.1160   -7.4800 C.3    81  ILE81       0.1595
    123  C          6.9440   -3.8090   -7.9720 C.2    81  ILE81       0.2287
    124  O          6.5020   -3.6950   -9.1280 O.2    81  ILE81      -0.2864
    125  CB         6.5840   -5.8270   -6.5520 C.3    81  ILE81       0.0276
    126  CG1        7.1080   -7.2320   -6.2510 C.3    81  ILE81       0.0022
    127  CG2        5.1810   -5.8820   -7.1830 C.3    81  ILE81       0.0022
    128  CD1        6.4990   -7.8600   -5.1010 C.3    81  ILE81       0.0001
    129  N          8.8410   -2.5150  -10.9550 N.3    84  ALA84      -0.1231
    130  CA         8.5970   -3.2910  -12.1800 C.3    84  ALA84       0.1694
    131  C          7.2240   -2.9910  -12.7870 C.2    84  ALA84       0.2592
    132  O          7.0620   -2.9940  -14.0030 O.2    84  ALA84      -0.2718
    133  CB         8.7270   -4.7720  -11.9070 C.3    84  ALA84       0.0304
    134  N          6.2420   -2.6870  -11.9500 N.am   85  CYS85      -0.1970
    135  CA         4.9310   -2.3150  -12.4760 C.3    85  CYS85       0.1712
    136  C          4.9360   -1.1150  -13.4110 C.2    85  CYS85       0.2296
    137  O          3.9730   -0.9490  -14.1430 O.2    85  CYS85      -0.2864
    138  CB         3.9130   -2.1060  -11.3700 C.3    85  CYS85       0.0983
    139  SG         3.4380   -3.5750  -10.5700 S.3    85  CYS85      -0.0798
    140  N          6.4370   -0.8200  -16.1880 N.3    87  GLU87      -0.1231
    141  CA         6.2930   -1.3700  -17.5460 C.3    87  GLU87       0.1699
    142  C          4.8540   -1.3610  -18.0680 C.2    87  GLU87       0.2592
    143  O          4.6370   -1.3810  -19.2980 O.2    87  GLU87      -0.2718
    144  CB         6.9000   -2.7740  -17.6610 C.3    87  GLU87       0.0402
    145  CG         8.3760   -2.8420  -17.5370 C.3    87  GLU87       0.1161
    146  CD         8.9300   -4.2430  -17.3660 C.2    87  GLU87       0.3649
    147  OE1        8.1550   -5.2200  -17.2190 O.co2  87  GLU87      -0.2457
    148  OE2       10.1240   -4.4180  -17.2700 O.co2  87  GLU87      -0.2457
    149  N          3.8750   -1.3550  -17.1540 N.am   88  PHE88      -0.1976
    150  CA         2.4560   -1.4670  -17.5300 C.3    88  PHE88       0.1639
    151  C          1.7140   -0.1510  -17.7840 C.2    88  PHE88       0.2290
    152  O          0.5520   -0.1800  -18.2640 O.2    88  PHE88      -0.2864
    153  CB         1.6980   -2.3690  -16.5390 C.3    88  PHE88       0.0560
    154  CG         2.4320   -3.6640  -16.2150 C.ar   88  PHE88      -0.0200
    155  CD1        2.8760   -3.9210  -14.9260 C.ar   88  PHE88      -0.0042
    156  CD2        2.7340   -4.5910  -17.2150 C.ar   88  PHE88      -0.0042
    157  CE1        3.5790   -5.1070  -14.6120 C.ar   88  PHE88      -0.0003
    158  CE2        3.4290   -5.7850  -16.9170 C.ar   88  PHE88      -0.0003
    159  CZ         3.8490   -6.0360  -15.6090 C.ar   88  PHE88      -0.0000
@<TRIPOS>BOND
     1   143   142    2
     2   152   151    2
     3   142   141    1
     4   142   149   am
     5   151   150    1
     6   144   141    1
     7   144   145    1
     8   141   140    1
     9   145   146    1
    10   150   149    1
    11   150   153    1
    12   146   148   ar
    13   146   147   ar
    14   156   158   ar
    15   156   154   ar
    16   158   159   ar
    17   153   154    1
    18   154   155   ar
    19   159   157   ar
    20   155   157   ar
    21    45    44   ar
    22   137   136    2
    23   132   131    2
    24    44    46   ar
    25    44    43    1
    26   136   135    1
    27    43    42    1
    28   131   130    1
    29   131   134   am
    30    42    39    1
    31   135   134    1
    32   135   138    1
    33   130   133    1
    34   130   129    1
    35    12    11    2
    36    39    38    1
    37    39    40    1
    38    22    21    2
    39   138   139    1
    40    38    32   am
    41    11    10    1
    42    11    19   am
    43    21    20    1
    44    21    30   am
    45    15    17   ar
    46    15    14   ar
    47    20    19    1
    48    20    23    1
    49    32    31    1
    50    32    33    2
    51    10    13    1
    52    10     9    1
    53    25    27   ar
    54    25    24   ar
    55    40    47   am
    56    40    41    2
    57    31    30    1
    58    31    34    1
    59    13    14    1
    60    27    29   ar
    61    47    48    1
    62    17    18   ar
    63    50    49    2
    64    14    16   ar
    65    70    68    1
    66    37    35    1
    67    23    24    1
    68    24    26   ar
    69    51    48    1
    70    51    52    1
    71   124   123    2
    72    54    53   ar
    73    48    49    1
    74    34    35    1
    75    29    28   ar
    76    49    56   am
    77   116   115    2
    78    18    16   ar
    79    35    36    1
    80    68    69    1
    81    68    65    1
    82    53    52    1
    83    53    55   ar
    84    26    28   ar
    85    78    79    1
    86    78    77    1
    87   123   122    1
    88    76    77    1
    89    76    75    1
    90    56    57    1
    91   122   121    1
    92   122   125    1
    93   115   121   am
    94   115   114    1
    95    57    58    1
    96    57    60    1
    97    65    64    1
    98    65    66    1
    99   127   125    1
   100    58    59    2
   101    75    72    1
   102   114   117    1
   103   114   113    1
   104   125   126    1
   105    61    60    1
   106    61    63    1
   107   117   118    1
   108   126   128    1
   109    60    62    1
   110    66    67    2
   111    92    91    1
   112   118   119    1
   113    86    84    1
   114    72    73    1
   115    72    71    1
   116    93    91    1
   117   119   120    1
   118     7     5    1
   119    73    74    2
   120    73    80   am
   121    91    88    1
   122    80    81    1
   123     4     3    2
   124   110   112   ar
   125   110   108   ar
   126    84    81    1
   127    84    85    1
   128    81    82    1
   129   105   104    2
   130   112   111   ar
   131   108   107   ar
   132     3     2    1
   133    88    87    1
   134    88    89    1
   135     5     6    1
   136     5     2    1
   137     8     6    1
   138     2     1    1
   139    82    83    2
   140   104   103    1
   141   111   109   ar
   142    89    90    2
   143    89    94   am
   144   101    99    1
   145   107   109   ar
   146   107   106    1
   147   103   106    1
   148   103   102    1
   149    94    95    1
   150    99   100    1
   151    99    98    1
   152    95    98    1
   153    95    96    1
   154    96    97    2
