@<TRIPOS>MOLECULE
tmp/3rm2B02.pdb
 226 226 0 0 0
SMALL
GASTEIGER

@<TRIPOS>ATOM
      1  N         22.4900   -6.2240   18.0880 N.3    43  HIS43      -0.1241
      2  CA        22.3170   -7.5890   17.5720 C.3    43  HIS43       0.1621
      3  C         21.5560   -7.6320   16.2450 C.2    43  HIS43       0.2264
      4  O         21.5670   -8.6590   15.5710 O.2    43  HIS43      -0.2867
      5  CB        21.6630   -8.5250   18.6020 C.3    43  HIS43       0.0745
      6  CG        20.1720   -8.4110   18.6710 C.ar   43  HIS43       0.0817
      7  ND1       19.5240   -7.6450   19.6160 N.ar   43  HIS43      -0.2268
      8  CD2       19.2000   -8.9430   17.8880 C.ar   43  HIS43       0.1154
      9  CE1       18.2180   -7.7220   19.4200 C.ar   43  HIS43       0.1986
     10  NE2       17.9950   -8.4990   18.3750 N.ar   43  HIS43      -0.2212
     11  N         25.7790  -10.3290   15.1400 N.3    47  TYR47      -0.1241
     12  CA        25.5550  -11.4310   16.0640 C.3    47  TYR47       0.1605
     13  C         26.2620  -12.6670   15.5130 C.2    47  TYR47       0.2264
     14  O         25.6680  -13.4920   14.8200 O.2    47  TYR47      -0.2867
     15  CB        24.0600  -11.6800   16.3250 C.3    47  TYR47       0.0534
     16  CG        23.8670  -12.5820   17.5140 C.ar   47  TYR47      -0.0201
     17  CD1       24.2830  -12.1830   18.7820 C.ar   47  TYR47      -0.0009
     18  CD2       23.3080  -13.8490   17.3730 C.ar   47  TYR47      -0.0009
     19  CE1       24.1540  -13.0260   19.8760 C.ar   47  TYR47       0.0417
     20  CE2       23.1660  -14.6900   18.4590 C.ar   47  TYR47       0.0417
     21  CZ        23.5920  -14.2760   19.7090 C.ar   47  TYR47       0.1957
     22  OH        23.4490  -15.1280   20.7790 O.3    47  TYR47      -0.2866
     23  N         25.1220  -16.4480   15.1110 N.3    50  TRP50      -0.1241
     24  CA        24.1900  -16.7660   14.0310 C.3    50  TRP50       0.1605
     25  C         24.7130  -16.2960   12.6780 C.2    50  TRP50       0.2264
     26  O         23.9430  -16.1490   11.7230 O.2    50  TRP50      -0.2867
     27  CB        22.8330  -16.1190   14.2850 C.3    50  TRP50       0.0550
     28  CG        22.0850  -16.6570   15.4640 C.ar   50  TRP50       0.0003
     29  CD1       22.4240  -17.7250   16.2380 C.ar   50  TRP50       0.0946
     30  CD2       20.8600  -16.1430   16.0020 C.ar   50  TRP50       0.0152
     31  NE1       21.4890  -17.9060   17.2320 N.ar   50  TRP50      -0.2442
     32  CE2       20.5150  -16.9510   17.1040 C.ar   50  TRP50       0.0810
     33  CE3       20.0230  -15.0770   15.6590 C.ar   50  TRP50       0.0012
     34  CZ2       19.3710  -16.7250   17.8670 C.ar   50  TRP50       0.0191
     35  CZ3       18.8880  -14.8530   16.4200 C.ar   50  TRP50       0.0001
     36  CH2       18.5710  -15.6740   17.5080 C.ar   50  TRP50       0.0015
     37  N         28.1620   -9.4970   22.6620 N.3    92  TRP92      -0.1241
     38  CA        27.4290  -10.5360   21.9530 C.3    92  TRP92       0.1605
     39  C         27.8460  -11.9280   22.4070 C.2    92  TRP92       0.2264
     40  O         27.1710  -12.9040   22.1150 O.2    92  TRP92      -0.2867
     41  CB        27.6140  -10.4020   20.4410 C.3    92  TRP92       0.0550
     42  CG        29.0450  -10.3280   19.9790 C.ar   92  TRP92       0.0003
     43  CD1       29.7590   -9.1930   19.7130 C.ar   92  TRP92       0.0946
     44  CD2       29.9330  -11.4270   19.7320 C.ar   92  TRP92       0.0152
     45  NE1       31.0360   -9.5160   19.3120 N.ar   92  TRP92      -0.2442
     46  CE2       31.1650  -10.8820   19.3080 C.ar   92  TRP92       0.0810
     47  CE3       29.7980  -12.8190   19.7950 C.ar   92  TRP92       0.0012
     48  CZ2       32.2550  -11.6780   18.9610 C.ar   92  TRP92       0.0191
     49  CZ3       30.8910  -13.6110   19.4550 C.ar   92  TRP92       0.0001
     50  CH2       32.1000  -13.0350   19.0440 C.ar   92  TRP92       0.0015
     51  N         28.1820  -13.1060   25.5640 N.3    94  GLU94      -0.1231
     52  CA        27.5800  -13.6180   26.7860 C.3    94  GLU94       0.1699
     53  C         26.0950  -13.3150   26.9560 C.2    94  GLU94       0.2592
     54  O         25.2770  -14.2350   27.0230 O.2    94  GLU94      -0.2718
     55  CB        28.3150  -13.0970   28.0170 C.3    94  GLU94       0.0402
     56  CG        27.7290  -13.6830   29.2860 C.3    94  GLU94       0.1161
     57  CD        28.1350  -12.9560   30.5430 C.2    94  GLU94       0.3649
     58  OE1       29.0690  -12.1230   30.4950 O.co2  94  GLU94      -0.2457
     59  OE2       27.5100  -13.2320   31.5910 O.co2  94  GLU94      -0.2457
     60  N         25.7410  -12.0310   27.0430 N.am   95  ASN95      -0.1960
     61  CA        24.4120  -11.6570   27.5180 C.3    95  ASN95       0.1819
     62  C         23.7980  -10.4470   26.8270 C.2    95  ASN95       0.2621
     63  O         22.8290   -9.8770   27.3320 O.2    95  ASN95      -0.2715
     64  CB        24.4560  -11.3790   29.0240 C.3    95  ASN95       0.1195
     65  CG        25.4170  -10.2620   29.3780 C.2    95  ASN95       0.2630
     66  OD1       26.1350   -9.7460   28.5140 O.2    95  ASN95      -0.2716
     67  ND2       25.4550   -9.8930   30.6550 N.am   95  ASN95      -0.0877
     68  N         24.3500  -10.0530   25.6780 N.am   96  LEU96      -0.1977
     69  CA        23.8650   -8.8870   24.9370 C.3    96  LEU96       0.1596
     70  C         23.9650   -7.5840   25.7490 C.2    96  LEU96       0.2287
     71  O         23.2180   -6.6350   25.5210 O.2    96  LEU96      -0.2864
     72  CB        22.4370   -9.1070   24.4210 C.3    96  LEU96       0.0297
     73  CG        22.2640  -10.2510   23.4170 C.3    96  LEU96       0.0022
     74  CD1       20.8060  -10.3220   22.9820 C.3    96  LEU96       0.0001
     75  CD2       23.1750  -10.1300   22.2080 C.3    96  LEU96       0.0001
     76  N          5.1950  -16.6880   19.3970 N.3   146  GLU146     -0.1245
     77  CA         6.5430  -17.2280   19.5230 C.3   146  GLU146      0.1567
     78  C          6.9180  -18.1380   18.3550 C.2   146  GLU146      0.2260
     79  O          8.0070  -18.0230   17.7890 O.2   146  GLU146     -0.2867
     80  CB         6.6880  -17.9750   20.8490 C.3   146  GLU146      0.0388
     81  CG         8.0540  -18.5900   21.0550 C.3   146  GLU146      0.1160
     82  CD         8.1990  -19.2500   22.4100 C.2   146  GLU146      0.3649
     83  OE1        7.7580  -18.6610   23.4230 O.co2 146  GLU146     -0.2457
     84  OE2        8.7550  -20.3660   22.4570 O.co2 146  GLU146     -0.2457
     85  N         20.2620  -15.8730   32.5610 N.3   172  ILE172     -0.1245
     86  CA        21.1700  -14.9070   31.9600 C.3   172  ILE172      0.1561
     87  C         21.6130  -13.8930   33.0090 C.2   172  ILE172      0.2260
     88  O         20.8260  -13.4860   33.8710 O.2   172  ILE172     -0.2867
     89  CB        20.4790  -14.1690   30.7900 C.3   172  ILE172      0.0252
     90  CG1       20.0450  -15.1710   29.7110 C.3   172  ILE172      0.0019
     91  CG2       21.3930  -13.1010   30.1980 C.3   172  ILE172      0.0019
     92  CD1       21.1940  -15.8960   29.0300 C.3   172  ILE172      0.0001
     93  N          4.0550   -8.9840   24.8740 N.3   192  ASP192     -0.1225
     94  CA         5.5090   -8.9990   24.8420 C.3   192  ASP192      0.1805
     95  C          5.9570   -8.5950   23.4540 C.2   192  ASP192      0.2598
     96  O          5.1860   -8.6630   22.4950 O.2   192  ASP192     -0.2718
     97  CB         5.9960  -10.4270   25.1560 C.3   192  ASP192      0.1424
     98  CG         7.4740  -10.5030   25.5260 C.2   192  ASP192      0.3668
     99  OD1        8.1430   -9.4590   25.6920 O.co2 192  ASP192     -0.2456
    100  OD2        7.9680  -11.6420   25.6790 O.co2 192  ASP192     -0.2456
    101  N          7.2060   -8.1600   23.3450 N.am  193  ALA193     -0.1966
    102  CA         7.8690   -8.0970   22.0500 C.3   193  ALA193      0.1728
    103  C          8.2350   -9.5150   21.6130 C.2   193  ALA193      0.2616
    104  O          8.1720  -10.4600   22.4030 O.2   193  ALA193     -0.2715
    105  CB         9.1160   -7.2250   22.1310 C.3   193  ALA193      0.0334
    106  N          8.6410   -9.6660   20.3600 N.am  194  CYS194     -0.1954
    107  CA         9.0320  -10.9760   19.8650 C.3   194  CYS194      0.1843
    108  C         10.0670  -10.8340   18.7520 C.2   194  CYS194      0.2625
    109  O         10.5070   -9.7250   18.4340 O.2   194  CYS194     -0.2714
    110  CB         7.7910  -11.7460   19.3880 C.3   194  CYS194      0.0997
    111  SG         7.9720  -13.5510   19.3220 S.3   194  CYS194     -0.0797
    112  N         10.4860  -11.9670   18.2000 N.am  195  GLU195     -0.1977
    113  CA        11.3610  -11.9930   17.0390 C.3   195  GLU195      0.1602
    114  C         10.8630  -11.0110   15.9760 C.2   195  GLU195      0.2287
    115  O          9.6780  -10.9920   15.6480 O.2   195  GLU195     -0.2864
    116  CB        11.3940  -13.4170   16.4740 C.3   195  GLU195      0.0415
    117  CG        12.2620  -13.6060   15.2480 C.3   195  GLU195      0.1163
    118  CD        12.2110  -15.0270   14.7080 C.2   195  GLU195      0.3649
    119  OE1       11.1670  -15.7030   14.8620 O.co2 195  GLU195     -0.2457
    120  OE2       13.2190  -15.4680   14.1320 O.co2 195  GLU195     -0.2457
    121  N         13.0160   -6.7240   17.4860 N.3   198  SER198     -0.1217
    122  CA        14.3880   -6.3350   17.8090 C.3   198  SER198      0.1889
    123  C         14.7190   -4.9450   17.3480 C.2   198  SER198      0.2288
    124  O         14.4850   -4.6140   16.1940 O.2   198  SER198     -0.2866
    125  CB        15.3670   -7.2530   17.0640 C.3   198  SER198      0.2089
    126  OG        15.4660   -8.5380   17.6300 O.3   198  SER198     -0.2183
    127  N         14.2460   -2.8260   22.1850 N.3   218  VAL218     -0.1231
    128  CA        13.9470   -4.2570   22.2400 C.3   218  VAL218      0.1692
    129  C         15.2240   -5.0710   22.0230 C.2   218  VAL218      0.2593
    130  O         15.8530   -4.9820   20.9620 O.2   218  VAL218     -0.2718
    131  CB        12.9070   -4.6520   21.1610 C.3   218  VAL218      0.0266
    132  CG1       12.6760   -6.1730   21.1800 C.3   218  VAL218      0.0020
    133  CG2       11.5850   -3.9120   21.3530 C.3   218  VAL218      0.0020
    134  N         15.5920   -5.8730   23.0240 N.am  219  SER219     -0.1938
    135  CA        16.8760   -6.5670   23.0090 C.3   219  SER219      0.2055
    136  C         16.7360   -8.0860   22.9890 C.2   219  SER219      0.2643
    137  O         17.1380   -8.7300   22.0230 O.2   219  SER219     -0.2714
    138  CB        17.7480   -6.1050   24.1930 C.3   219  SER219      0.2130
    139  OG        19.0210   -6.7250   24.1700 O.3   219  SER219     -0.2179
    140  N         16.1530   -8.6660   24.0340 N.am  220  TRP220     -0.1959
    141  CA        16.1100  -10.1240   24.1160 C.3   220  TRP220      0.1771
    142  C         14.9830  -10.6210   24.9940 C.2   220  TRP220      0.2620
    143  O         14.3880   -9.8620   25.7620 O.2   220  TRP220     -0.2715
    144  CB        17.4730  -10.6960   24.5490 C.3   220  TRP220      0.0590
    145  CG        17.9490  -10.3340   25.9350 C.ar  220  TRP220      0.0006
    146  CD1       18.7130   -9.2590   26.2850 C.ar  220  TRP220      0.0946
    147  CD2       17.7440  -11.0890   27.1410 C.ar  220  TRP220      0.0152
    148  NE1       18.9820   -9.2830   27.6370 N.ar  220  TRP220     -0.2442
    149  CE2       18.3990  -10.3960   28.1850 C.ar  220  TRP220      0.0810
    150  CE3       17.0700  -12.2810   27.4410 C.ar  220  TRP220      0.0012
    151  CZ2       18.4020  -10.8590   29.5110 C.ar  220  TRP220      0.0191
    152  CZ3       17.0700  -12.7370   28.7530 C.ar  220  TRP220      0.0001
    153  CH2       17.7270  -12.0230   29.7710 C.ar  220  TRP220      0.0015
    154  N         14.7000  -11.9100   24.8670 N.am  221  GLY221     -0.1940
    155  CA        13.6780  -12.5480   25.6610 C.3   221  GLY221      0.2014
    156  C         13.7180  -14.0340   25.3830 C.2   221  GLY221      0.2639
    157  O         14.1070  -14.4670   24.2910 O.2   221  GLY221     -0.2714
    158  N         13.3010  -14.8170   26.3640 N.am  222  GLU222     -0.1963
    159  CA        13.3070  -16.2620   26.2360 C.3   222  GLU222      0.1733
    160  C         11.9620  -16.6980   25.6690 C.2   222  GLU222      0.2617
    161  O         10.9680  -16.7880   26.3920 O.2   222  GLU222     -0.2715
    162  CB        13.5710  -16.8850   27.5980 C.3   222  GLU222      0.0429
    163  CG        14.9300  -16.5270   28.1560 C.3   222  GLU222      0.1163
    164  CD        15.0040  -16.7370   29.6530 C.2   222  GLU222      0.3649
    165  OE1       14.9400  -15.7360   30.3870 O.co2 222  GLU222     -0.2457
    166  OE2       15.0920  -17.9010   30.0900 O.co2 222  GLU222     -0.2457
    167  N         11.9280  -16.9590   24.3670 N.am  223  GLY223     -0.1940
    168  CA        10.6550  -17.1090   23.6810 C.3   223  GLY223      0.2014
    169  C          9.9120  -15.7760   23.6660 C.2   223  GLY223      0.2639
    170  O         10.5310  -14.7150   23.7020 O.2   223  GLY223     -0.2714
    171  N          8.5850  -15.8200   23.6040 N.am  224  CYS224     -0.1967
    172  CA         7.7820  -14.5980   23.6320 C.3   224  CYS224      0.1712
    173  C          6.5000  -14.8120   24.4220 C.2   224  CYS224      0.2296
    174  O          5.7950  -15.7970   24.2190 O.2   224  CYS224     -0.2864
    175  CB         7.4210  -14.1440   22.2160 C.3   224  CYS224      0.0983
    176  SG         8.8300  -14.0730   21.1090 S.3   224  CYS224     -0.0798
    177  N          5.8510  -15.7210   27.3910 N.3   226  ARG226     -0.1245
    178  CA         5.7270  -16.8750   28.2770 C.3   226  ARG226      0.1563
    179  C          5.4350  -16.4230   29.7000 C.2   226  ARG226      0.2260
    180  O          5.9840  -15.4140   30.1630 O.2   226  ARG226     -0.2867
    181  CB         6.9930  -17.7290   28.2690 C.3   226  ARG226      0.0307
    182  CG         7.3440  -18.3360   26.9290 C.3   226  ARG226      0.0489
    183  CD         8.5070  -19.2930   27.0900 C.3   226  ARG226      0.2205
    184  NE         9.0150  -19.7600   25.8070 N.pl3 226  ARG226     -0.0865
    185  CZ        10.1440  -20.4440   25.6560 C.cat 226  ARG226      0.5346
    186  NH1       10.8860  -20.7540   26.7130 N.pl3 226  ARG226      0.1354
    187  NH2       10.5320  -20.8200   24.4470 N.pl3 226  ARG226      0.1354
    188  N         10.0550  -12.3330   31.0230 N.3   230  TYR230     -0.1227
    189  CA         9.8850  -10.9120   30.7550 C.3   230  TYR230      0.1736
    190  C         10.7090  -10.5280   29.5450 C.2   230  TYR230      0.2596
    191  O         11.6660  -11.2130   29.1910 O.2   230  TYR230     -0.2718
    192  CB        10.2900  -10.0870   31.9880 C.3   230  TYR230      0.0548
    193  CG         9.4190  -10.4600   33.1610 C.ar  230  TYR230     -0.0200
    194  CD1        9.7990  -11.4600   34.0490 C.ar  230  TYR230     -0.0009
    195  CD2        8.1720   -9.8750   33.3260 C.ar  230  TYR230     -0.0009
    196  CE1        8.9690  -11.8340   35.0880 C.ar  230  TYR230      0.0417
    197  CE2        7.3420  -10.2400   34.3590 C.ar  230  TYR230      0.0417
    198  CZ         7.7420  -11.2210   35.2400 C.ar  230  TYR230      0.1957
    199  OH         6.8970  -11.5830   36.2670 O.3   230  TYR230     -0.2866
    200  N         10.3200   -9.4450   28.8920 N.am  231  GLY231     -0.1942
    201  CA        11.1360   -8.9070   27.8280 C.3   231  GLY231      0.2014
    202  C         12.2490   -8.0360   28.3870 C.2   231  GLY231      0.2639
    203  O         12.0330   -7.2950   29.3600 O.2   231  GLY231     -0.2714
    204  N         13.4250   -8.1170   27.7640 N.am  232  PHE232     -0.1959
    205  CA        14.5610   -7.3020   28.1780 C.3   232  PHE232      0.1771
    206  C         14.8840   -6.2340   27.1410 C.2   232  PHE232      0.2619
    207  O         14.8100   -6.4650   25.9150 O.2   232  PHE232     -0.2715
    208  CB        15.7820   -8.1720   28.4920 C.3   232  PHE232      0.0574
    209  CG        15.6570   -8.8850   29.8040 C.ar  232  PHE232     -0.0200
    210  CD1       14.8970  -10.0480   29.9080 C.ar  232  PHE232     -0.0042
    211  CD2       16.2580   -8.3760   30.9490 C.ar  232  PHE232     -0.0042
    212  CE1       14.7500  -10.6850   31.1250 C.ar  232  PHE232     -0.0003
    213  CE2       16.1190   -9.0160   32.1640 C.ar  232  PHE232     -0.0003
    214  CZ        15.3680  -10.1710   32.2490 C.ar  232  PHE232     -0.0000
    215  N         15.2380   -5.0590   27.6560 N.am  233  TYR233     -0.1974
    216  CA        15.3980   -3.8480   26.8590 C.3   233  TYR233      0.1639
    217  C         16.7200   -3.1880   27.2130 C.2   233  TYR233      0.2290
    218  O         17.1050   -3.1190   28.3860 O.2   233  TYR233     -0.2864
    219  CB        14.2420   -2.8730   27.1600 C.3   233  TYR233      0.0560
    220  CG        12.9020   -3.4590   26.7960 C.ar  233  TYR233     -0.0198
    221  CD1       12.2290   -4.2940   27.6750 C.ar  233  TYR233     -0.0009
    222  CD2       12.3480   -3.2420   25.5390 C.ar  233  TYR233     -0.0009
    223  CE1       11.0300   -4.8780   27.3350 C.ar  233  TYR233      0.0417
    224  CE2       11.1420   -3.8240   25.1880 C.ar  233  TYR233      0.0417
    225  CZ        10.4850   -4.6400   26.0940 C.ar  233  TYR233      0.1957
    226  OH         9.2850   -5.2320   25.7500 O.3   233  TYR233     -0.2866
@<TRIPOS>BOND
     1    26    25    2
     2    25    24    1
     3    24    27    1
     4    24    23    1
     5   120   118   ar
     6    27    28    1
     7   118   119   ar
     8   118   117    1
     9    14    13    2
    10    11    12    1
    11   117   116    1
    12    28    30   ar
    13    28    29   ar
    14    13    12    1
    15     4     3    2
    16   115   114    2
    17    33    30   ar
    18    33    35   ar
    19   114   113    1
    20    30    32   ar
    21    12    15    1
    22   124   123    2
    23    29    31   ar
    24     3     2    1
    25    15    16    1
    26    35    36   ar
    27   116   113    1
    28   113   112    1
    29   125   126    1
    30   125   122    1
    31    32    31   ar
    32    32    34   ar
    33   123   122    1
    34    18    16   ar
    35    18    20   ar
    36   121   122    1
    37    36    34   ar
    38    16    17   ar
    39     2     1    1
    40     2     5    1
    41    79    78    2
    42     8    10   ar
    43     8     6   ar
    44   112   108   am
    45    78    77    1
    46    10     9   ar
    47   109   108    2
    48    20    21   ar
    49     5     6    1
    50     6     7   ar
    51   108   107    1
    52    17    19   ar
    53    48    50   ar
    54    48    46   ar
    55    50    49   ar
    56    46    45   ar
    57    46    44   ar
    58    45    43   ar
    59   111   110    1
    60   111   176    1
    61   110   107    1
    62    76    77    1
    63     9     7   ar
    64    49    47   ar
    65    77    80    1
    66    21    19   ar
    67    21    22    1
    68    43    42   ar
    69    44    47   ar
    70    44    42   ar
    71   107   106    1
    72    42    41    1
    73   106   103   am
    74    41    38    1
    75    80    81    1
    76   130   129    2
    77    81    82    1
    78   176   175    1
    79   131   132    1
    80   131   133    1
    81   131   128    1
    82   103   102    1
    83   103   104    2
    84    38    39    1
    85    38    37    1
    86   129   128    1
    87   129   134   am
    88   137   136    2
    89   102   105    1
    90   102   101    1
    91    40    39    2
    92   127   128    1
    93    75    73    1
    94   175   172    1
    95    82    84   ar
    96    82    83   ar
    97    96    95    2
    98    74    73    1
    99   136   135    1
   100   136   140   am
   101   135   134    1
   102   135   138    1
   103   101    95   am
   104    73    72    1
   105    95    94    1
   106   171   172    1
   107   171   169   am
   108   172   173    1
   109   169   168    1
   110   169   170    2
   111   168   167    1
   112   140   141    1
   113   141   144    1
   114   141   142    1
   115   139   138    1
   116   174   173    2
   117   157   156    2
   118   167   160   am
   119    72    69    1
   120   187   185    1
   121   144   145    1
   122    94    93    1
   123    94    97    1
   124   154   142   am
   125   154   155    1
   126    69    68    1
   127    69    70    1
   128   142   143    2
   129    97    98    1
   130   224   222   ar
   131   224   225   ar
   132   156   155    1
   133   156   158   am
   134    71    70    2
   135    98   100   ar
   136    98    99   ar
   137   222   220   ar
   138    51    52    1
   139   185   184    2
   140   185   186    1
   141   160   159    1
   142   160   161    2
   143    68    62   am
   144   226   225    1
   145   184   183    1
   146   207   206    2
   147   145   146   ar
   148   145   147   ar
   149   225   223   ar
   150   159   158    1
   151   159   162    1
   152   146   148   ar
   153    52    53    1
   154    52    55    1
   155   220   219    1
   156   220   221   ar
   157    62    63    2
   158    62    61    1
   159   216   219    1
   160   216   217    1
   161   216   215    1
   162   182   183    1
   163   182   181    1
   164    53    54    2
   165    53    60   am
   166    60    61    1
   167   206   215   am
   168   206   205    1
   169   147   150   ar
   170   147   149   ar
   171   217   218    2
   172   223   221   ar
   173   177   178    1
   174   150   152   ar
   175    61    64    1
   176   162   163    1
   177   148   149   ar
   178   204   205    1
   179   204   202   am
   180   201   202    1
   181   201   200    1
   182    55    56    1
   183   163   164    1
   184   205   208    1
   185   149   151   ar
   186   181   178    1
   187   178   179    1
   188   202   203    2
   189   208   209    1
   190    66    65    2
   191   152   153   ar
   192   200   190   am
   193    64    65    1
   194    92    90    1
   195   191   190    2
   196    56    57    1
   197    65    67   am
   198   151   153   ar
   199   190   189    1
   200   164   166   ar
   201   164   165   ar
   202   179   180    2
   203    90    89    1
   204   209   210   ar
   205   209   211   ar
   206   210   212   ar
   207    91    89    1
   208    58    57   ar
   209    57    59   ar
   210   189   188    1
   211   189   192    1
   212    89    86    1
   213   211   213   ar
   214   212   214   ar
   215    86    85    1
   216    86    87    1
   217   192   193    1
   218   213   214   ar
   219    87    88    2
   220   193   195   ar
   221   193   194   ar
   222   195   197   ar
   223   194   196   ar
   224   197   198   ar
   225   196   198   ar
   226   198   199    1
