@<TRIPOS>MOLECULE
tmp/3rm4A00.pdb
 203 196 0 0 0
SMALL
GASTEIGER

@<TRIPOS>ATOM
      1  N         -7.5220    6.0790  -22.6290 N.3     6  TYR6       -0.1241
      2  CA        -7.6480    5.9530  -21.1740 C.3     6  TYR6        0.1605
      3  C         -7.6430    7.2970  -20.4580 C.2     6  TYR6        0.2264
      4  O         -6.7790    8.1330  -20.7040 O.2     6  TYR6       -0.2867
      5  CB        -6.5280    5.0850  -20.6010 C.3     6  TYR6        0.0534
      6  CG        -6.6620    3.6010  -20.8540 C.ar    6  TYR6       -0.0201
      7  CD1       -7.1620    2.7470  -19.8630 C.ar    6  TYR6       -0.0009
      8  CD2       -6.2450    3.0390  -22.0640 C.ar    6  TYR6       -0.0009
      9  CE1       -7.2530    1.3600  -20.0850 C.ar    6  TYR6        0.0417
     10  CE2       -6.3350    1.6580  -22.2970 C.ar    6  TYR6        0.0417
     11  CZ        -6.8440    0.8330  -21.3100 C.ar    6  TYR6        0.1957
     12  OH        -6.9350   -0.5160  -21.5560 O.3     6  TYR6       -0.2866
     13  N         -6.8960    9.8780  -11.0350 N.3    10  TRP10      -0.1241
     14  CA        -5.9900   10.5650  -10.1310 C.3    10  TRP10       0.1605
     15  C         -5.3780   11.7970  -10.7930 C.2    10  TRP10       0.2264
     16  O         -4.7050   12.5880  -10.1300 O.2    10  TRP10      -0.2867
     17  CB        -4.9100    9.6180   -9.5820 C.3    10  TRP10       0.0550
     18  CG        -4.0240    9.0060  -10.6160 C.ar   10  TRP10       0.0003
     19  CD1       -2.8050    9.4700  -11.0450 C.ar   10  TRP10       0.0946
     20  CD2       -4.2750    7.8030  -11.3470 C.ar   10  TRP10       0.0152
     21  NE1       -2.2920    8.6260  -12.0060 N.ar   10  TRP10      -0.2442
     22  CE2       -3.1780    7.6000  -12.2130 C.ar   10  TRP10       0.0810
     23  CE3       -5.3320    6.8790  -11.3620 C.ar   10  TRP10       0.0012
     24  CZ2       -3.0970    6.4990  -13.0780 C.ar   10  TRP10       0.0191
     25  CZ3       -5.2550    5.7860  -12.2290 C.ar   10  TRP10       0.0001
     26  CH2       -4.1450    5.6100  -13.0750 C.ar   10  TRP10       0.0015
     27  N         -3.2600   16.6120   -9.8840 N.3    14  ARG14      -0.1245
     28  CA        -2.0710   17.2910  -10.3850 C.3    14  ARG14       0.1563
     29  C         -2.2490   18.8100  -10.2420 C.2    14  ARG14       0.2260
     30  O         -3.3470   19.3260  -10.4320 O.2    14  ARG14      -0.2867
     31  CB        -1.7510   16.8690  -11.8280 C.3    14  ARG14       0.0307
     32  CG        -1.4380   15.3740  -11.9390 C.3    14  ARG14       0.0489
     33  CD        -1.0300   14.9330  -13.3390 C.3    14  ARG14       0.2205
     34  NE        -0.7700   13.4890  -13.3620 N.pl3  14  ARG14      -0.0865
     35  CZ        -1.2780   12.6230  -14.2360 C.cat  14  ARG14       0.5346
     36  NH1       -2.0590   13.0300  -15.2340 N.pl3  14  ARG14       0.1354
     37  NH2       -0.9640   11.3400  -14.1300 N.pl3  14  ARG14       0.1354
     38  N         -9.1520    4.0460  -12.4860 N.3    37  PHE37      -0.1241
     39  CA        -9.5570    2.6320  -12.3840 C.3    37  PHE37       0.1605
     40  C        -10.6770    2.4180  -11.3650 C.2    37  PHE37       0.2264
     41  O        -10.8830    3.2300  -10.4450 O.2    37  PHE37      -0.2867
     42  CB        -8.3880    1.7530  -11.9100 C.3    37  PHE37       0.0534
     43  CG        -7.2970    1.5570  -12.9300 C.ar   37  PHE37      -0.0203
     44  CD1       -6.0260    2.0900  -12.7090 C.ar   37  PHE37      -0.0042
     45  CD2       -7.5300    0.8210  -14.0980 C.ar   37  PHE37      -0.0042
     46  CE1       -5.0020    1.9030  -13.6370 C.ar   37  PHE37      -0.0003
     47  CE2       -6.5170    0.6380  -15.0450 C.ar   37  PHE37      -0.0003
     48  CZ        -5.2530    1.1780  -14.8110 C.ar   37  PHE37      -0.0000
     49  N         -1.6640   -1.3000  -12.5680 N.3    78  TRP78      -0.1241
     50  CA        -0.3500   -1.7280  -12.0950 C.3    78  TRP78       0.1605
     51  C         -0.2500   -1.8280  -10.5680 C.2    78  TRP78       0.2264
     52  O          0.1180   -2.8790  -10.0320 O.2    78  TRP78      -0.2867
     53  CB         0.7370   -0.8160  -12.6570 C.3    78  TRP78       0.0550
     54  CG         2.1050   -1.2200  -12.2410 C.ar   78  TRP78       0.0003
     55  CD1        2.8370   -0.6930  -11.2210 C.ar   78  TRP78       0.0946
     56  CD2        2.9140   -2.2450  -12.8300 C.ar   78  TRP78       0.0152
     57  NE1        4.0530   -1.3160  -11.1410 N.ar   78  TRP78      -0.2442
     58  CE2        4.1330   -2.2710  -12.1170 C.ar   78  TRP78       0.0810
     59  CE3        2.7290   -3.1380  -13.8940 C.ar   78  TRP78       0.0012
     60  CZ2        5.1640   -3.1660  -12.4230 C.ar   78  TRP78       0.0191
     61  CZ3        3.7510   -4.0280  -14.2010 C.ar   78  TRP78       0.0001
     62  CH2        4.9560   -4.0320  -13.4670 C.ar   78  TRP78       0.0015
     63  N         -7.7700   -4.8210  -16.3690 N.3   117  ASP117     -0.1239
     64  CA        -6.3430   -4.4700  -16.2730 C.3   117  ASP117      0.1674
     65  C         -5.6770   -5.2500  -15.1410 C.2   117  ASP117      0.2266
     66  O         -5.1690   -4.6850  -14.1610 O.2   117  ASP117     -0.2867
     67  CB        -6.1380   -2.9610  -16.1300 C.3   117  ASP117      0.1410
     68  CG        -6.6530   -2.1950  -17.3220 C.2   117  ASP117      0.3668
     69  OD1       -7.8770   -2.2270  -17.5600 O.co2 117  ASP117     -0.2456
     70  OD2       -5.8370   -1.5630  -18.0240 O.co2 117  ASP117     -0.2456
     71  N         -2.6540   -7.0950  -14.0610 N.3   119  GLU119     -0.1231
     72  CA        -1.2650   -7.0180  -14.4590 C.3   119  GLU119      0.1699
     73  C         -0.3770   -7.8420  -13.5190 C.2   119  GLU119      0.2592
     74  O          0.1510   -7.3190  -12.5340 O.2   119  GLU119     -0.2718
     75  CB        -0.8310   -5.5370  -14.5910 C.3   119  GLU119      0.0402
     76  CG        -1.8400   -4.7210  -15.4490 C.3   119  GLU119      0.1161
     77  CD        -1.4460   -3.2730  -15.7070 C.2   119  GLU119      0.3649
     78  OE1       -0.3210   -2.8570  -15.3550 O.co2 119  GLU119     -0.2457
     79  OE2       -2.2840   -2.5460  -16.2780 O.co2 119  GLU119     -0.2457
     80  N         -0.2100   -9.1400  -13.7980 N.am  120  TYR120     -0.1976
     81  CA        -0.7810   -9.8690  -14.9410 C.3   120  TYR120      0.1639
     82  C         -1.0850  -11.2700  -14.4170 C.2   120  TYR120      0.2290
     83  O         -0.4630  -11.6950  -13.4410 O.2   120  TYR120     -0.2864
     84  CB         0.2300  -10.0280  -16.0880 C.3   120  TYR120      0.0560
     85  CG         0.9070   -8.7580  -16.5440 C.ar  120  TYR120     -0.0198
     86  CD1        2.1590   -8.3990  -16.0420 C.ar  120  TYR120     -0.0009
     87  CD2        0.2940   -7.9090  -17.4650 C.ar  120  TYR120     -0.0009
     88  CE1        2.7900   -7.2350  -16.4550 C.ar  120  TYR120      0.0417
     89  CE2        0.9130   -6.7340  -17.8790 C.ar  120  TYR120      0.0417
     90  CZ         2.1650   -6.4080  -17.3730 C.ar  120  TYR120      0.1957
     91  OH         2.7840   -5.2500  -17.7740 O.3   120  TYR120     -0.2866
     92  N         -6.6070   -5.1170  -21.1850 N.3   162  ALA162     -0.1245
     93  CA        -5.2040   -4.7150  -21.3580 C.3   162  ALA162      0.1562
     94  C         -4.3070   -5.9060  -21.0770 C.2   162  ALA162      0.2260
     95  O         -4.4650   -6.5950  -20.0490 O.2   162  ALA162     -0.2867
     96  CB        -4.8560   -3.5890  -20.4170 C.3   162  ALA162      0.0290
     97  N         -0.2910   -3.5250  -24.3120 N.3   189  MET189     -0.1245
     98  CA         0.4820   -2.4880  -23.6340 C.3   189  MET189      0.1570
     99  C          1.9020   -2.3460  -24.1870 C.2   189  MET189      0.2261
    100  O          2.8970   -2.5570  -23.4670 O.2   189  MET189     -0.2867
    101  CB         0.4930   -2.7430  -22.1160 C.3   189  MET189      0.0387
    102  CG        -0.8990   -2.6830  -21.4910 C.3   189  MET189      0.0595
    103  SD        -0.9190   -3.0420  -19.7260 S.3   189  MET189     -0.1393
    104  CE        -1.1870   -4.7700  -19.6870 C.3   189  MET189      0.0692
    105  N          4.2890   -0.3930  -24.5240 N.3   191  TYR191     -0.1227
    106  CA         5.0960    0.7140  -24.0160 C.3   191  TYR191      0.1736
    107  C          5.8190    0.2500  -22.7530 C.2   191  TYR191      0.2595
    108  O          5.6110   -0.8830  -22.3190 O.2   191  TYR191     -0.2718
    109  CB         4.2460    1.9750  -23.7810 C.3   191  TYR191      0.0548
    110  CG         2.8090    1.7250  -23.3520 C.ar  191  TYR191     -0.0200
    111  CD1        2.5120    1.2260  -22.0770 C.ar  191  TYR191     -0.0009
    112  CD2        1.7410    2.0360  -24.2100 C.ar  191  TYR191     -0.0009
    113  CE1        1.1790    1.0270  -21.6720 C.ar  191  TYR191      0.0417
    114  CE2        0.4130    1.8380  -23.8150 C.ar  191  TYR191      0.0417
    115  CZ         0.1440    1.3340  -22.5520 C.ar  191  TYR191      0.1957
    116  OH        -1.1650    1.1460  -22.1690 O.3   191  TYR191     -0.2866
    117  N          6.6810    1.1100  -22.1980 N.am  192  ASP192     -0.1974
    118  CA         7.5870    0.7660  -21.0810 C.3   192  ASP192      0.1709
    119  C          8.4870   -0.3930  -21.4680 C.2   192  ASP192      0.2293
    120  O          8.8430   -1.2400  -20.6330 O.2   192  ASP192     -0.2864
    121  CB         6.8260    0.4370  -19.7930 C.3   192  ASP192      0.1436
    122  CG         5.7140    1.4340  -19.5000 C.2   192  ASP192      0.3671
    123  OD1        5.9970    2.6430  -19.4270 O.co2 192  ASP192     -0.2456
    124  OD2        4.5630    0.9940  -19.3410 O.co2 192  ASP192     -0.2456
    125  N          3.6900    9.7760  -23.0630 N.3   246  TYR246     -0.1241
    126  CA         4.7010   10.0220  -22.0490 C.3   246  TYR246      0.1605
    127  C          6.0070    9.3460  -22.4980 C.2   246  TYR246      0.2264
    128  O          6.0080    8.5560  -23.4530 O.2   246  TYR246     -0.2867
    129  CB         4.2600    9.4520  -20.6950 C.3   246  TYR246      0.0534
    130  CG         4.1380    7.9310  -20.6510 C.ar  246  TYR246     -0.0201
    131  CD1        5.2420    7.1170  -20.3390 C.ar  246  TYR246     -0.0009
    132  CD2        2.9150    7.3060  -20.9120 C.ar  246  TYR246     -0.0009
    133  CE1        5.1180    5.7070  -20.2980 C.ar  246  TYR246      0.0417
    134  CE2        2.7820    5.9060  -20.8630 C.ar  246  TYR246      0.0417
    135  CZ         3.8770    5.1180  -20.5650 C.ar  246  TYR246      0.1957
    136  OH         3.7130    3.7390  -20.5320 O.3   246  TYR246     -0.2866
    137  N         10.1000    7.7110  -20.8590 N.3   248  HIS248     -0.1241
    138  CA        10.9480    7.3810  -19.7010 C.3   248  HIS248      0.1621
    139  C         12.2060    8.2190  -19.7430 C.2   248  HIS248      0.2264
    140  O         12.7760    8.4060  -20.8080 O.2   248  HIS248     -0.2867
    141  CB        11.3170    5.8940  -19.6730 C.3   248  HIS248      0.0745
    142  CG        10.2110    5.0140  -19.1840 C.ar  248  HIS248      0.0817
    143  ND1       10.0910    4.6290  -17.8660 N.ar  248  HIS248     -0.2268
    144  CD2        9.1620    4.4600  -19.8360 C.ar  248  HIS248      0.1154
    145  CE1        9.0120    3.8780  -17.7250 C.ar  248  HIS248      0.1986
    146  NE2        8.4380    3.7520  -18.9070 N.ar  248  HIS248     -0.2212
    147  N          3.2360   15.8590  -13.0790 N.3   274  ALA274     -0.1245
    148  CA         2.8780   14.4520  -12.8800 C.3   274  ALA274      0.1562
    149  C          3.6430   13.8280  -11.7220 C.2   274  ALA274      0.2260
    150  O          3.2100   12.8140  -11.1630 O.2   274  ALA274     -0.2867
    151  CB         3.1200   13.6650  -14.1560 C.3   274  ALA274      0.0290
    152  N          6.2730   12.0450  -11.3670 N.3   276  GLU276     -0.1245
    153  CA         6.5580   10.6250  -11.5120 C.3   276  GLU276      0.1567
    154  C          8.0540   10.3760  -11.6870 C.2   276  GLU276      0.2260
    155  O          8.6600   10.8270  -12.6510 O.2   276  GLU276     -0.2867
    156  CB         5.7600   10.0230  -12.6800 C.3   276  GLU276      0.0388
    157  CG         5.9070    8.5020  -12.8300 C.3   276  GLU276      0.1160
    158  CD         5.1590    7.7120  -11.7550 C.2   276  GLU276      0.3649
    159  OE1        4.2470    8.2610  -11.1090 O.co2 276  GLU276     -0.2457
    160  OE2        5.4810    6.5270  -11.5650 O.co2 276  GLU276     -0.2457
    161  N          9.7730    9.4040  -15.2600 N.3   279  ILE279     -0.1245
    162  CA         8.7630    9.5120  -16.3220 C.3   279  ILE279      0.1561
    163  C          8.2600   10.9370  -16.4650 C.2   279  ILE279      0.2260
    164  O          7.9430   11.6000  -15.4610 O.2   279  ILE279     -0.2867
    165  CB         7.5210    8.5840  -16.0790 C.3   279  ILE279      0.0252
    166  CG1        7.9070    7.0990  -16.0750 C.3   279  ILE279      0.0019
    167  CG2        6.4790    8.8080  -17.1620 C.3   279  ILE279      0.0019
    168  CD1        6.7600    6.1450  -15.7080 C.3   279  ILE279      0.0001
    169  N          5.2630   13.1520  -18.5670 N.3   281  ALA281     -0.1245
    170  CA         4.1410   13.3260  -19.4860 C.3   281  ALA281      0.1562
    171  C          4.6340   14.0620  -20.7280 C.2   281  ALA281      0.2260
    172  O          5.6280   14.8170  -20.6660 O.2   281  ALA281     -0.2867
    173  CB         3.0320   14.1230  -18.8250 C.3   281  ALA281      0.0290
    174  N         -4.8680    2.3690  -28.9210 N.3   337  MET337     -0.1245
    175  CA        -5.2840    2.8670  -27.6060 C.3   337  MET337      0.1570
    176  C         -4.1800    3.7370  -27.0270 C.2   337  MET337      0.2261
    177  O         -3.0070    3.5650  -27.3560 O.2   337  MET337     -0.2867
    178  CB        -5.6780    1.7300  -26.6400 C.3   337  MET337      0.0387
    179  CG        -4.5710    0.7480  -26.2910 C.3   337  MET337      0.0595
    180  SD        -3.5440    1.2800  -24.9000 S.3   337  MET337     -0.1393
    181  CE        -2.7720   -0.2950  -24.5400 C.3   337  MET337      0.0692
    182  N         -2.4350    5.5370  -23.5920 N.3   339  TRP339     -0.1241
    183  CA        -2.1910    5.8300  -22.1920 C.3   339  TRP339      0.1605
    184  C         -1.3450    7.1030  -22.1070 C.2   339  TRP339      0.2264
    185  O         -0.1740    7.0680  -22.4560 O.2   339  TRP339     -0.2867
    186  CB        -1.4530    4.6840  -21.4900 C.3   339  TRP339      0.0550
    187  CG        -1.3970    4.9310  -20.0040 C.ar  339  TRP339      0.0003
    188  CD1       -0.4990    5.7240  -19.3240 C.ar  339  TRP339      0.0946
    189  CD2       -2.3230    4.4460  -19.0290 C.ar  339  TRP339      0.0152
    190  NE1       -0.8070    5.7420  -17.9790 N.ar  339  TRP339     -0.2442
    191  CE2       -1.9180    4.9610  -17.7700 C.ar  339  TRP339      0.0810
    192  CE3       -3.4500    3.6050  -19.0920 C.ar  339  TRP339      0.0012
    193  CZ2       -2.5960    4.6540  -16.5770 C.ar  339  TRP339      0.0191
    194  CZ3       -4.1270    3.3030  -17.9130 C.ar  339  TRP339      0.0001
    195  CH2       -3.6950    3.8290  -16.6660 C.ar  339  TRP339      0.0015
    196  N         -2.2230   12.9480  -20.2260 N.3   343  LEU343     -0.1245
    197  CA        -0.7790   13.1680  -20.3950 C.3   343  LEU343      0.1561
    198  C         -0.4070   13.8070  -21.7370 C.2   343  LEU343      0.2260
    199  O          0.7090   14.3150  -21.8890 O.2   343  LEU343     -0.2867
    200  CB         0.0120   11.8710  -20.1820 C.3   343  LEU343      0.0270
    201  CG        -0.2140   11.0800  -18.8860 C.3   343  LEU343      0.0019
    202  CD1        0.4450    9.7200  -18.9900 C.3   343  LEU343      0.0001
    203  CD2        0.2960   11.8430  -17.6600 C.3   343  LEU343      0.0001
@<TRIPOS>BOND
     1   174   175    1
     2   175   176    1
     3   175   178    1
     4   177   176    2
     5   178   179    1
     6   179   180    1
     7   180   181    1
     8   105   106    1
     9    97    98    1
    10   112   114   ar
    11   112   110   ar
    12    99    98    1
    13    99   100    2
    14   106   109    1
    15   106   107    1
    16   114   115   ar
    17   109   110    1
    18    98   101    1
    19   182   183    1
    20   128   127    2
    21   110   111   ar
    22   125   126    1
    23   107   108    2
    24   107   117   am
    25     1     2    1
    26   115   116    1
    27   115   113   ar
    28   127   126    1
    29   185   184    2
    30    10     8   ar
    31    10    11   ar
    32   117   118    1
    33   183   184    1
    34   183   186    1
    35   101   102    1
    36   111   113   ar
    37     8     6   ar
    38   126   129    1
    39   199   198    2
    40   198   197    1
    41    12    11    1
    42   102   103    1
    43   186   187    1
    44   119   118    1
    45   119   120    2
    46    93    92    1
    47    93    94    1
    48    93    96    1
    49    11     9   ar
    50     2     5    1
    51     2     3    1
    52   118   121    1
    53    94    95    2
    54   132   134   ar
    55   132   130   ar
    56   134   135   ar
    57   137   138    1
    58     6     5    1
    59     6     7   ar
    60   140   139    2
    61   171   172    2
    62   171   170    1
    63     4     3    2
    64   129   130    1
    65   130   131   ar
    66   135   136    1
    67   135   133   ar
    68   197   196    1
    69   197   200    1
    70   131   133   ar
    71   200   201    1
    72     9     7   ar
    73   187   188   ar
    74   187   189   ar
    75   144   142   ar
    76   144   146   ar
    77   121   122    1
    78   139   138    1
    79   103   104    1
    80   138   141    1
    81   141   142    1
    82   122   123   ar
    83   122   124   ar
    84   170   173    1
    85   170   169    1
    86   188   190   ar
    87   142   143   ar
    88   192   189   ar
    89   192   194   ar
    90   189   191   ar
    91   202   201    1
    92   146   145   ar
    93   201   203    1
    94    70    68   ar
    95   190   191   ar
    96   194   195   ar
    97    89    87   ar
    98    89    90   ar
    99   143   145   ar
   100    91    90    1
   101   191   193   ar
   102    69    68   ar
   103    87    85   ar
   104    90    88   ar
   105    68    67    1
   106   167   165    1
   107   195   193   ar
   108    85    84    1
   109    85    86   ar
   110   163   162    1
   111   163   164    2
   112    88    86   ar
   113    63    64    1
   114   162   165    1
   115   162   161    1
   116    79    77   ar
   117    64    67    1
   118    64    65    1
   119    84    81    1
   120   165   166    1
   121   166   168    1
   122    77    76    1
   123    77    78   ar
   124    76    75    1
   125    36    35    1
   126    65    66    2
   127    47    48   ar
   128    47    45   ar
   129    81    82    1
   130    81    80    1
   131    48    46   ar
   132    75    72    1
   133    72    71    1
   134    72    73    1
   135    82    83    2
   136    35    37    1
   137    35    34    2
   138    61    59   ar
   139    61    62   ar
   140   151   148    1
   141    45    43   ar
   142    59    56   ar
   143    80    73   am
   144    46    44   ar
   145    73    74    2
   146    62    60   ar
   147    34    33    1
   148    33    32    1
   149   147   148    1
   150    24    26   ar
   151    24    22   ar
   152    26    25   ar
   153    43    44   ar
   154    43    42    1
   155   148   149    1
   156   157   156    1
   157   157   158    1
   158    56    54   ar
   159    56    58   ar
   160   156   153    1
   161    53    54    1
   162    53    50    1
   163   155   154    2
   164    49    50    1
   165    38    39    1
   166    60    58   ar
   167    39    42    1
   168    39    40    1
   169    54    55   ar
   170    25    23   ar
   171    22    21   ar
   172    22    20   ar
   173    58    57   ar
   174    50    51    1
   175    21    19   ar
   176    32    31    1
   177    31    28    1
   178   158   160   ar
   179   158   159   ar
   180   149   150    2
   181   154   153    1
   182   153   152    1
   183    40    41    2
   184    23    20   ar
   185    20    18   ar
   186    55    57   ar
   187    19    18   ar
   188    13    14    1
   189    15    14    1
   190    15    16    2
   191    18    17    1
   192    51    52    2
   193    30    29    2
   194    28    29    1
   195    28    27    1
   196    14    17    1
