@<TRIPOS>MOLECULE
tmp/3rm6A00.pdb
 209 198 0 0 0
SMALL
GASTEIGER

@<TRIPOS>ATOM
      1  N         95.2540   56.6530  -81.3880 N.3     8  GLU8       -0.1245
      2  CA        94.9540   55.9830  -80.1260 C.3     8  GLU8        0.1567
      3  C         95.7800   54.7090  -80.0180 C.2     8  GLU8        0.2260
      4  O         96.3390   54.2360  -81.0060 O.2     8  GLU8       -0.2867
      5  CB        93.4720   55.5930  -80.0410 C.3     8  GLU8        0.0388
      6  CG        92.4770   56.7350  -80.1510 C.3     8  GLU8        0.1160
      7  CD        91.0570   56.2940  -79.8420 C.2     8  GLU8        0.3649
      8  OE1       90.5760   55.3340  -80.4830 O.co2   8  GLU8       -0.2457
      9  OE2       90.4230   56.9090  -78.9570 O.co2   8  GLU8       -0.2457
     10  N         95.6270   50.8990  -79.5570 N.3    10  ILE10      -0.1231
     11  CA        94.6650   49.8110  -79.6720 C.3    10  ILE10       0.1692
     12  C         94.8610   48.7830  -78.5590 C.2    10  ILE10       0.2593
     13  O         93.8930   48.3190  -77.9530 O.2    10  ILE10      -0.2718
     14  CB        94.7830   49.1130  -81.0480 C.3    10  ILE10       0.0266
     15  CG1       94.3240   50.0740  -82.1500 C.3    10  ILE10       0.0019
     16  CG2       93.9640   47.8270  -81.0600 C.3    10  ILE10       0.0020
     17  CD1       94.4510   49.5220  -83.5530 C.3    10  ILE10       0.0001
     18  N         96.1140   48.4310  -78.2880 N.am   11  GLY11      -0.1942
     19  CA        96.3790   47.4650  -77.2400 C.3    11  GLY11       0.2014
     20  C         97.7930   46.9230  -77.2190 C.2    11  GLY11       0.2639
     21  O         98.7200   47.5420  -77.7390 O.2    11  GLY11      -0.2714
     22  N         97.9490   45.7520  -76.6110 N.am   12  GLU12      -0.1963
     23  CA        99.2430   45.0960  -76.4960 C.3    12  GLU12       0.1733
     24  C         99.2160   43.7520  -77.2200 C.2    12  GLU12       0.2617
     25  O         99.1290   42.6960  -76.5890 O.2    12  GLU12      -0.2715
     26  CB        99.5800   44.8930  -75.0200 C.3    12  GLU12       0.0429
     27  CG        99.4110   46.1570  -74.1860 C.3    12  GLU12       0.1163
     28  CD        99.7610   45.9570  -72.7240 C.2    12  GLU12       0.3649
     29  OE1       99.1410   45.0880  -72.0710 O.co2  12  GLU12      -0.2457
     30  OE2      100.6550   46.6750  -72.2270 O.co2  12  GLU12      -0.2457
     31  N         99.2910   43.8040  -78.5480 N.am   13  GLY13      -0.1940
     32  CA        99.2680   42.5980  -79.3580 C.3    13  GLY13       0.2014
     33  C        100.2730   41.5390  -78.9450 C.2    13  GLY13       0.2639
     34  O        101.0690   41.7410  -78.0260 O.2    13  GLY13      -0.2714
     35  N        100.2360   40.4020  -79.6350 N.am   14  THR14      -0.1950
     36  CA       101.1370   39.2950  -79.3400 C.3    14  THR14       0.1897
     37  C        102.5880   39.6460  -79.6580 C.2    14  THR14       0.2313
     38  O        103.5030   39.2660  -78.9240 O.2    14  THR14      -0.2863
     39  CB       100.7440   38.0400  -80.1390 C.3    14  THR14       0.1794
     40  OG1       99.3650   37.7320  -79.8960 O.3    14  THR14      -0.2208
     41  CG2      101.6010   36.8550  -79.7180 C.3    14  THR14       0.0378
     42  N        100.2850   48.1150  -80.2780 N.3    17  VAL17      -0.1245
     43  CA        99.5880   48.4580  -81.5130 C.3    17  VAL17       0.1561
     44  C         98.8530   49.7810  -81.3690 C.2    17  VAL17       0.2260
     45  O         98.1440   49.9980  -80.3880 O.2    17  VAL17      -0.2867
     46  CB        98.5560   47.3800  -81.8900 C.3    17  VAL17       0.0252
     47  CG1       97.9120   47.7230  -83.2340 C.3    17  VAL17       0.0019
     48  CG2       99.2300   46.0150  -81.9520 C.3    17  VAL17       0.0019
     49  N         96.4820   53.0050  -83.4460 N.3    19  LYS19      -0.1245
     50  CA        95.7040   53.3980  -84.6110 C.3    19  LYS19       0.1561
     51  C         96.4630   54.6800  -84.9520 C.2    19  LYS19       0.2260
     52  O         96.7440   55.4970  -84.0660 O.2    19  LYS19      -0.2867
     53  CB        94.2610   53.7200  -84.2380 C.3    19  LYS19       0.0271
     54  CG        93.4080   54.1800  -85.4260 C.3    19  LYS19       0.0035
     55  CD        91.9900   54.4920  -84.9610 C.3    19  LYS19       0.0206
     56  CE        91.0930   54.9300  -86.1260 C.3    19  LYS19       0.1093
     57  NZ        89.7060   55.2160  -85.6510 N.3    19  LYS19      -0.1314
     58  N         96.7420   50.6210  -88.8630 N.3    30  ALA30      -0.1245
     59  CA        97.0910   50.0350  -87.5670 C.3    30  ALA30       0.1562
     60  C         98.6110   49.8780  -87.6410 C.2    30  ALA30       0.2260
     61  O         99.1540   49.3120  -88.6020 O.2    30  ALA30      -0.2867
     62  CB        96.4180   48.6690  -87.3650 C.3    30  ALA30       0.0290
     63  N        101.8860   48.3740  -85.7630 N.3    32  LYS32      -0.1245
     64  CA       102.3490   47.4720  -84.7190 C.3    32  LYS32       0.1561
     65  C        103.8580   47.5830  -84.5410 C.2    32  LYS32       0.2260
     66  O        104.6090   47.4940  -85.5020 O.2    32  LYS32      -0.2867
     67  CB       101.9680   46.0230  -85.0370 C.3    32  LYS32       0.0271
     68  CG       102.3100   45.0720  -83.8950 C.3    32  LYS32       0.0035
     69  CD       101.5950   43.7390  -83.9950 C.3    32  LYS32       0.0206
     70  CE       101.7790   42.9520  -82.6970 C.3    32  LYS32       0.1093
     71  NZ       101.0420   41.6570  -82.6750 N.3    32  LYS32      -0.1314
     72  N         93.8090   40.6890  -94.0480 N.3    59  VAL59      -0.1245
     73  CA        94.1660   42.0740  -93.7320 C.3    59  VAL59       0.1561
     74  C         95.4660   42.4420  -94.4580 C.2    59  VAL59       0.2260
     75  O         96.4880   41.7930  -94.2750 O.2    59  VAL59      -0.2867
     76  CB        94.3490   42.2660  -92.1930 C.3    59  VAL59       0.0252
     77  CG1       94.8540   43.6760  -91.8970 C.3    59  VAL59       0.0019
     78  CG2       93.0060   42.0190  -91.4820 C.3    59  VAL59       0.0019
     79  N         99.4560   47.9670  -91.1070 N.3    75  PHE75      -0.1227
     80  CA        98.3330   47.1950  -91.6490 C.3    75  PHE75       0.1736
     81  C         97.1170   48.0380  -91.9900 C.2    75  PHE75       0.2595
     82  O         96.9040   49.1110  -91.4160 O.2    75  PHE75      -0.2718
     83  CB        97.8500   46.1630  -90.6240 C.3    75  PHE75       0.0547
     84  CG        98.8340   45.0810  -90.3260 C.ar   75  PHE75      -0.0202
     85  CD1       99.0390   44.0380  -91.2240 C.ar   75  PHE75      -0.0042
     86  CD2       99.5360   45.0880  -89.1280 C.ar   75  PHE75      -0.0042
     87  CE1       99.9330   43.0090  -90.9270 C.ar   75  PHE75      -0.0003
     88  CE2      100.4320   44.0640  -88.8230 C.ar   75  PHE75      -0.0003
     89  CZ       100.6270   43.0240  -89.7270 C.ar   75  PHE75      -0.0000
     90  N         96.3000   47.5320  -92.9100 N.am   76  GLU76      -0.1965
     91  CA        95.0660   48.2310  -93.2390 C.3    76  GLU76       0.1733
     92  C         94.2640   48.1760  -91.9330 C.2    76  GLU76       0.2616
     93  O         94.3660   47.2100  -91.1570 O.2    76  GLU76      -0.2715
     94  CB        94.3060   47.5350  -94.3830 C.3    76  GLU76       0.0429
     95  CG        93.6430   46.2350  -94.0320 C.3    76  GLU76       0.1163
     96  CD        92.6910   45.7230  -95.1270 C.2    76  GLU76       0.3649
     97  OE1       91.6310   46.3370  -95.3810 O.co2  76  GLU76      -0.2457
     98  OE2       93.0050   44.6960  -95.7280 O.co2  76  GLU76      -0.2457
     99  N         93.4880   49.2190  -91.6810 N.am   77  PHE77      -0.1960
    100  CA        92.7080   49.3200  -90.4480 C.3    77  PHE77       0.1771
    101  C         91.2520   48.8730  -90.5610 C.2    77  PHE77       0.2619
    102  O         90.5840   49.1990  -91.5440 O.2    77  PHE77      -0.2715
    103  CB        92.7340   50.7800  -89.9660 C.3    77  PHE77       0.0574
    104  CG        91.9550   51.0210  -88.7060 C.ar   77  PHE77      -0.0200
    105  CD1       90.6450   51.5110  -88.7520 C.ar   77  PHE77      -0.0042
    106  CD2       92.5330   50.7530  -87.4620 C.ar   77  PHE77      -0.0042
    107  CE1       89.9300   51.7290  -87.5730 C.ar   77  PHE77      -0.0003
    108  CE2       91.8220   50.9700  -86.2840 C.ar   77  PHE77      -0.0003
    109  CZ        90.5130   51.4610  -86.3430 C.ar   77  PHE77      -0.0000
    110  N         90.7840   48.1050  -89.5700 N.am   78  LEU78      -0.1963
    111  CA        89.3750   47.6980  -89.4860 C.3    78  LEU78       0.1728
    112  C         88.9640   48.0340  -88.0720 C.2    78  LEU78       0.2616
    113  O         89.7440   47.8850  -87.1310 O.2    78  LEU78      -0.2715
    114  CB        89.1340   46.2090  -89.7740 C.3    78  LEU78       0.0311
    115  CG        89.1130   45.8570  -91.2670 C.3    78  LEU78       0.0022
    116  CD1       90.5330   45.5360  -91.7160 C.3    78  LEU78       0.0001
    117  CD2       88.2140   44.6520  -91.5260 C.3    78  LEU78       0.0001
    118  N         87.7210   48.4740  -87.9280 N.am   79  HIS79      -0.1959
    119  CA        87.2100   48.9330  -86.6540 C.3    79  HIS79       0.1787
    120  C         86.9110   47.9640  -85.5250 C.2    79  HIS79       0.2620
    121  O         86.9890   48.3420  -84.3600 O.2    79  HIS79      -0.2715
    122  CB        85.9570   49.7790  -86.9050 C.3    79  HIS79       0.0785
    123  CG        86.2340   51.0940  -87.5690 C.ar   79  HIS79       0.0821
    124  ND1       86.3430   51.2380  -88.9370 N.ar   79  HIS79      -0.2267
    125  CD2       86.4450   52.3230  -87.0410 C.ar   79  HIS79       0.1154
    126  CE1       86.6080   52.5030  -89.2230 C.ar   79  HIS79       0.1986
    127  NE2       86.6760   53.1810  -88.0910 N.ar   79  HIS79      -0.2212
    128  N         86.5590   46.7280  -85.8400 N.am   80  GLN80      -0.1963
    129  CA        86.1970   45.8110  -84.7720 C.3    80  GLN80       0.1733
    130  C         86.7060   44.4090  -85.0320 C.2    80  GLN80       0.2616
    131  O         86.9930   44.0540  -86.1700 O.2    80  GLN80      -0.2715
    132  CB        84.6740   45.8020  -84.6460 C.3    80  GLN80       0.0408
    133  CG        84.1150   45.0780  -83.4280 C.3    80  GLN80       0.0908
    134  CD        82.6930   45.5230  -83.1060 C.2    80  GLN80       0.2608
    135  OE1       82.4400   46.7090  -82.8590 O.2    80  GLN80      -0.2717
    136  NE2       81.7590   44.5810  -83.1110 N.am   80  GLN80      -0.0878
    137  N         86.8440   43.6280  -83.9630 N.am   81  ASP81      -0.1971
    138  CA        87.2760   42.2370  -84.1080 C.3    81  ASP81       0.1709
    139  C         86.1120   41.3240  -83.7280 C.2    81  ASP81       0.2293
    140  O         85.1460   41.7680  -83.1010 O.2    81  ASP81      -0.2864
    141  CB        88.5140   41.9340  -83.2590 C.3    81  ASP81       0.1436
    142  CG        88.2770   42.1290  -81.7730 C.2    81  ASP81       0.3671
    143  OD1       87.4840   41.3620  -81.1810 O.co2  81  ASP81      -0.2456
    144  OD2       88.8940   43.0550  -81.2030 O.co2  81  ASP81      -0.2456
    145  N         84.9970   40.9650  -79.8710 N.3    84  LYS84      -0.1245
    146  CA        84.1080   42.0090  -79.3510 C.3    84  LYS84       0.1561
    147  C         82.7060   41.8590  -79.9260 C.2    84  LYS84       0.2260
    148  O         81.7150   42.0640  -79.2270 O.2    84  LYS84      -0.2867
    149  CB        84.6490   43.4170  -79.6680 C.3    84  LYS84       0.0271
    150  CG        85.8860   43.7890  -78.8860 C.3    84  LYS84       0.0035
    151  CD        86.2380   45.2660  -79.0420 C.3    84  LYS84       0.0206
    152  CE        87.6220   45.5630  -78.4910 C.3    84  LYS84       0.1093
    153  NZ        88.6540   44.6460  -79.0640 N.3    84  LYS84      -0.1314
    154  N         92.3310   33.0450  -83.7680 N.3   124  LYS124     -0.1245
    155  CA        91.4690   33.2300  -82.6050 C.3   124  LYS124      0.1561
    156  C         90.5240   34.3750  -82.9650 C.2   124  LYS124      0.2260
    157  O         90.8000   35.1580  -83.8880 O.2   124  LYS124     -0.2867
    158  CB        92.2850   33.5640  -81.3500 C.3   124  LYS124      0.0271
    159  CG        93.2870   34.6860  -81.4900 C.3   124  LYS124      0.0035
    160  CD        94.2700   34.6410  -80.3000 C.3   124  LYS124      0.0206
    161  CE        95.4550   35.5650  -80.4900 C.3   124  LYS124      0.1093
    162  NZ        96.4330   35.4090  -79.3580 N.3   124  LYS124     -0.1314
    163  N         89.9980   37.2160  -81.7240 N.3   126  GLN126     -0.1231
    164  CA        90.6270   38.5330  -81.6660 C.3   126  GLN126      0.1698
    165  C         91.4410   38.8650  -82.9030 C.2   126  GLN126      0.2592
    166  O         91.7210   40.0490  -83.1540 O.2   126  GLN126     -0.2718
    167  CB        91.4950   38.6570  -80.4060 C.3   126  GLN126      0.0381
    168  CG        90.6760   38.7530  -79.1330 C.3   126  GLN126      0.0905
    169  CD        91.5260   38.6900  -77.8880 C.2   126  GLN126      0.2608
    170  OE1       92.1420   37.6670  -77.5960 O.2   126  GLN126     -0.2717
    171  NE2       91.5670   39.7890  -77.1450 N.am  126  GLN126     -0.0878
    172  N         91.8110   37.8370  -83.6740 N.am  127  ASN127     -0.1974
    173  CA        92.5800   38.0240  -84.9050 C.3   127  ASN127      0.1688
    174  C         91.7030   38.0410  -86.1550 C.2   127  ASN127      0.2292
    175  O         92.2220   38.0100  -87.2640 O.2   127  ASN127     -0.2864
    176  CB        93.6380   36.9230  -85.0780 C.3   127  ASN127      0.1181
    177  CG        94.7550   37.0310  -84.0810 C.2   127  ASN127      0.2629
    178  OD1       94.9960   38.1040  -83.5120 O.2   127  ASN127     -0.2716
    179  ND2       95.4650   35.9280  -83.8730 N.am  127  ASN127     -0.0877
    180  N         89.0310   40.3010  -88.1260 N.3   129  LEU129     -0.1245
    181  CA        88.5010   41.6560  -88.1360 C.3   129  LEU129      0.1561
    182  C         87.3020   41.8300  -89.0600 C.2   129  LEU129      0.2260
    183  O         87.2570   41.2600  -90.1390 O.2   129  LEU129     -0.2867
    184  CB        89.6240   42.6300  -88.5150 C.3   129  LEU129      0.0270
    185  CG        90.8960   42.4380  -87.6670 C.3   129  LEU129      0.0019
    186  CD1       91.8940   43.5530  -87.9610 C.3   129  LEU129      0.0001
    187  CD2       90.5360   42.4370  -86.1540 C.3   129  LEU129      0.0001
    188  N         93.7870   38.3070  -89.7380 N.3   139  ALA139     -0.1231
    189  CA        94.8630   39.2360  -89.3730 C.3   139  ALA139      0.1694
    190  C         95.9390   38.5820  -88.5180 C.2   139  ALA139      0.2592
    191  O         95.8070   37.4370  -88.1160 O.2   139  ALA139     -0.2718
    192  CB        94.2830   40.3990  -88.5890 C.3   139  ALA139      0.0304
    193  N         96.9910   39.3590  -88.2430 N.am  140  ASP140     -0.1974
    194  CA        98.1000   38.9710  -87.3580 C.3   140  ASP140      0.1709
    195  C         99.0550   37.8910  -87.8560 C.2   140  ASP140      0.2293
    196  O        100.2570   38.1360  -88.0160 O.2   140  ASP140     -0.2864
    197  CB        97.5240   38.5580  -85.9980 C.3   140  ASP140      0.1436
    198  CG        98.5750   38.4930  -84.9100 C.2   140  ASP140      0.3671
    199  OD1       98.9100   39.5590  -84.3500 O.co2 140  ASP140     -0.2456
    200  OD2       99.0680   37.3780  -84.6160 O.co2 140  ASP140     -0.2456
    201  N        101.6420   38.6410  -70.8150 N.3   157  GLU157     -0.1245
    202  CA       100.2210   38.4290  -71.0670 C.3   157  GLU157      0.1567
    203  C         99.9610   36.9320  -71.2430 C.2   157  GLU157      0.2260
    204  O        100.7890   36.2200  -71.8100 O.2   157  GLU157     -0.2867
    205  CB        99.8100   39.2030  -72.3220 C.3   157  GLU157      0.0388
    206  CG        98.3190   39.4390  -72.4670 C.3   157  GLU157      0.1160
    207  CD        98.0040   40.5030  -73.5030 C.2   157  GLU157      0.3649
    208  OE1       98.3500   40.3100  -74.6890 O.co2 157  GLU157     -0.2457
    209  OE2       97.4140   41.5390  -73.1280 O.co2 157  GLU157     -0.2457
@<TRIPOS>BOND
     1    98    96   ar
     2    97    96   ar
     3    96    95    1
     4    74    75    2
     5    74    73    1
     6    94    95    1
     7    94    91    1
     8    72    73    1
     9    73    76    1
    10    91    90    1
    11    91    92    1
    12    90    81   am
    13    76    77    1
    14    76    78    1
    15    81    80    1
    16    81    82    2
    17    92    99   am
    18    92    93    2
    19   116   115    1
    20    99   100    1
    21    80    79    1
    22    80    83    1
    23   102   101    2
    24   117   115    1
    25   115   114    1
    26    85    87   ar
    27    85    84   ar
    28    87    89   ar
    29    83    84    1
    30   101   100    1
    31   101   110   am
    32   100   103    1
    33    84    86   ar
    34   183   182    2
    35   103   104    1
    36   114   111    1
    37   188   189    1
    38    89    88   ar
    39   110   111    1
    40   111   112    1
    41   189   192    1
    42   189   190    1
    43   126   124   ar
    44   126   127   ar
    45    86    88   ar
    46   182   181    1
    47   124   123   ar
    48    58    59    1
    49   105   104   ar
    50   105   107   ar
    51   104   106   ar
    52    61    60    2
    53   190   193   am
    54   190   191    2
    55   184   181    1
    56   184   185    1
    57   193   194    1
    58   181   180    1
    59   127   125   ar
    60   112   118   am
    61   112   113    2
    62   196   195    2
    63   186   185    1
    64   118   119    1
    65   195   194    1
    66   185   187    1
    67    60    59    1
    68   107   109   ar
    69   123   125   ar
    70   123   122    1
    71    59    62    1
    72   106   108   ar
    73   194   197    1
    74   175   174    2
    75   122   119    1
    76   119   120    1
    77   109   108   ar
    78   131   130    2
    79   174   173    1
    80    56    57    1
    81    56    55    1
    82   197   198    1
    83   128   120   am
    84   128   129    1
    85    63    64    1
    86   120   121    2
    87    66    65    2
    88    54    55    1
    89    54    53    1
    90   176   173    1
    91   176   177    1
    92    67    64    1
    93    67    68    1
    94   130   129    1
    95   130   137   am
    96    51    50    1
    97    51    52    2
    98   198   200   ar
    99   198   199   ar
   100   173   172    1
   101   129   132    1
   102    64    65    1
   103   132   133    1
   104    50    53    1
   105    50    49    1
   106   138   137    1
   107   138   139    1
   108   138   141    1
   109   177   179   am
   110   177   178    2
   111    69    68    1
   112    69    70    1
   113   157   156    2
   114   154   155    1
   115   139   140    2
   116   172   165   am
   117    17    15    1
   118   133   134    1
   119   141   142    1
   120    47    46    1
   121   166   165    2
   122   136   134   am
   123   134   135    2
   124   156   155    1
   125   165   164    1
   126    70    71    1
   127   155   158    1
   128    15    14    1
   129    48    46    1
   130    46    43    1
   131   142   144   ar
   132   142   143   ar
   133   163   164    1
   134   164   167    1
   135    43    44    1
   136    43    42    1
   137   159   158    1
   138   159   160    1
   139     1     2    1
   140    44    45    2
   141    16    14    1
   142    14    11    1
   143     4     3    2
   144   161   160    1
   145   161   162    1
   146     8     7   ar
   147   167   168    1
   148     6     5    1
   149     6     7    1
   150    39    40    1
   151    39    41    1
   152    39    36    1
   153     2     5    1
   154     2     3    1
   155   147   146    1
   156   147   148    2
   157   145   146    1
   158     7     9   ar
   159    11    10    1
   160    11    12    1
   161   149   146    1
   162   149   150    1
   163    37    36    1
   164    37    38    2
   165    35    36    1
   166    35    33   am
   167    32    33    1
   168    32    31    1
   169   168   169    1
   170   153   152    1
   171   151   150    1
   172   151   152    1
   173    33    34    2
   174    12    18   am
   175    12    13    2
   176    31    24   am
   177    18    19    1
   178   169   170    2
   179   169   171   am
   180    21    20    2
   181    19    20    1
   182    24    25    2
   183    24    23    1
   184    20    22   am
   185    22    23    1
   186    23    26    1
   187    26    27    1
   188   208   207   ar
   189    27    28    1
   190   207   209   ar
   191   207   206    1
   192    28    30   ar
   193    28    29   ar
   194   206   205    1
   195   205   202    1
   196   204   203    2
   197   203   202    1
   198   202   201    1
