@<TRIPOS>MOLECULE
tmp/3rm7A00.pdb
 172 163 0 0 0
SMALL
GASTEIGER

@<TRIPOS>ATOM
      1  N        -67.5330  -56.1990  -44.0340 N.3     8  GLU8       -0.1231
      2  CA       -67.2720  -55.5090  -42.7770 C.3     8  GLU8        0.1699
      3  C        -68.0850  -54.2240  -42.7070 C.2     8  GLU8        0.2592
      4  O        -68.7810  -53.8620  -43.6580 O.2     8  GLU8       -0.2718
      5  CB       -65.7870  -55.1500  -42.6440 C.3     8  GLU8        0.0402
      6  CG       -64.8300  -56.3240  -42.7050 C.3     8  GLU8        0.1161
      7  CD       -63.4300  -55.9440  -42.2760 C.2     8  GLU8        0.3649
      8  OE1      -62.9230  -54.9050  -42.7570 O.co2   8  GLU8       -0.2457
      9  OE2      -62.8360  -56.6870  -41.4620 O.co2   8  GLU8       -0.2457
     10  N        -67.9870  -53.5410  -41.5700 N.am    9  LYS9       -0.1966
     11  CA       -68.6800  -52.2790  -41.3620 C.3     9  LYS9        0.1728
     12  C        -67.6600  -51.1820  -41.6150 C.2     9  LYS9        0.2616
     13  O        -66.8590  -50.8540  -40.7440 O.2     9  LYS9       -0.2715
     14  CB       -69.2080  -52.1860  -39.9270 C.3     9  LYS9        0.0311
     15  CG       -69.8930  -50.8640  -39.5950 C.3     9  LYS9        0.0038
     16  CD       -70.3940  -50.8250  -38.1480 C.3     9  LYS9        0.0206
     17  CE       -71.4860  -51.8620  -37.9020 C.3     9  LYS9        0.1093
     18  NZ       -72.0010  -51.8160  -36.5050 N.3     9  LYS9       -0.1314
     19  N        -67.6770  -50.6300  -42.8210 N.am   10  ILE10      -0.1977
     20  CA       -66.7380  -49.5770  -43.1810 C.3    10  ILE10       0.1596
     21  C        -66.8400  -48.4140  -42.2050 C.2    10  ILE10       0.2287
     22  O        -65.8750  -47.6800  -41.9990 O.2    10  ILE10      -0.2864
     23  CB       -67.0020  -49.0500  -44.6050 C.3    10  ILE10       0.0276
     24  CG1      -66.8320  -50.1750  -45.6250 C.3    10  ILE10       0.0022
     25  CG2      -66.0410  -47.9250  -44.9240 C.3    10  ILE10       0.0022
     26  CD1      -67.0630  -49.7350  -47.0610 C.3    10  ILE10       0.0001
     27  N        -71.4140  -43.1430  -41.5910 N.3    13  GLY13      -0.1225
     28  CA       -71.4270  -41.7930  -42.1330 C.3    13  GLY13       0.1811
     29  C        -72.4850  -40.8890  -41.5310 C.2    13  GLY13       0.2280
     30  O        -73.1180  -41.2400  -40.5350 O.2    13  GLY13      -0.2866
     31  N        -72.3910  -47.7470  -43.2170 N.3    18  VAL18      -0.1245
     32  CA       -71.7730  -48.0890  -44.4950 C.3    18  VAL18       0.1561
     33  C        -71.0700  -49.4210  -44.3570 C.2    18  VAL18       0.2260
     34  O        -70.3420  -49.6480  -43.3910 O.2    18  VAL18      -0.2867
     35  CB       -70.7320  -47.0440  -44.9360 C.3    18  VAL18       0.0252
     36  CG1      -70.1530  -47.4320  -46.2990 C.3    18  VAL18       0.0019
     37  CG2      -71.3710  -45.6690  -45.0200 C.3    18  VAL18       0.0019
     38  N        -68.8480  -52.7090  -46.4450 N.3    20  LYS20      -0.1245
     39  CA       -68.0660  -53.1180  -47.5900 C.3    20  LYS20       0.1561
     40  C        -68.8470  -54.3770  -47.8880 C.2    20  LYS20       0.2260
     41  O        -69.1320  -55.1610  -46.9800 O.2    20  LYS20      -0.2867
     42  CB       -66.6400  -53.4550  -47.1790 C.3    20  LYS20       0.0271
     43  CG       -65.7720  -53.9860  -48.3130 C.3    20  LYS20       0.0035
     44  CD       -64.3790  -54.3450  -47.7760 C.3    20  LYS20       0.0206
     45  CE       -63.4540  -54.8280  -48.8940 C.3    20  LYS20       0.1093
     46  NZ       -62.0640  -55.0220  -48.4030 N.3    20  LYS20      -0.1314
     47  N        -69.2180  -50.4940  -51.8420 N.3    31  ALA31      -0.1245
     48  CA       -69.4920  -49.8190  -50.5810 C.3    31  ALA31       0.1562
     49  C        -71.0060  -49.6550  -50.5910 C.2    31  ALA31       0.2260
     50  O        -71.5730  -49.0690  -51.5170 O.2    31  ALA31      -0.2867
     51  CB       -68.8290  -48.4570  -50.5390 C.3    31  ALA31       0.0290
     52  N        -74.2620  -48.1400  -48.6760 N.3    33  LYS33      -0.1245
     53  CA       -74.7040  -47.1780  -47.6850 C.3    33  LYS33       0.1561
     54  C        -76.2140  -47.2840  -47.5020 C.2    33  LYS33       0.2260
     55  O        -76.9760  -47.1490  -48.4610 O.2    33  LYS33      -0.2867
     56  CB       -74.3250  -45.7680  -48.1440 C.3    33  LYS33       0.0271
     57  CG       -74.6460  -44.6630  -47.1580 C.3    33  LYS33       0.0035
     58  CD       -74.3490  -43.3080  -47.7850 C.3    33  LYS33       0.0206
     59  CE       -72.8500  -43.0470  -47.9240 C.3    33  LYS33       0.1093
     60  NZ       -72.2030  -42.8380  -46.5880 N.3    33  LYS33      -0.1314
     61  N        -66.2620  -40.6160  -56.9780 N.3    60  VAL60      -0.1245
     62  CA       -66.6060  -41.9950  -56.6160 C.3    60  VAL60       0.1561
     63  C        -67.9040  -42.3820  -57.3150 C.2    60  VAL60       0.2260
     64  O        -68.9530  -41.7960  -57.0830 O.2    60  VAL60      -0.2867
     65  CB       -66.7750  -42.1440  -55.0740 C.3    60  VAL60       0.0252
     66  CG1      -67.2790  -43.5430  -54.7080 C.3    60  VAL60       0.0019
     67  CG2      -65.4260  -41.9040  -54.4020 C.3    60  VAL60       0.0019
     68  N        -71.8860  -47.8530  -54.0520 N.3    76  PHE76      -0.1227
     69  CA       -70.7820  -47.0570  -54.5890 C.3    76  PHE76       0.1736
     70  C        -69.5510  -47.8940  -54.8940 C.2    76  PHE76       0.2595
     71  O        -69.3250  -48.9380  -54.2710 O.2    76  PHE76      -0.2718
     72  CB       -70.3430  -46.0020  -53.5540 C.3    76  PHE76       0.0547
     73  CG       -71.3230  -44.8910  -53.3440 C.ar   76  PHE76      -0.0202
     74  CD1      -71.4400  -43.8600  -54.2770 C.ar   76  PHE76      -0.0042
     75  CD2      -72.0870  -44.8370  -52.1790 C.ar   76  PHE76      -0.0042
     76  CE1      -72.3010  -42.7830  -54.0490 C.ar   76  PHE76      -0.0003
     77  CE2      -72.9530  -43.7650  -51.9380 C.ar   76  PHE76      -0.0003
     78  CZ       -73.0580  -42.7340  -52.8780 C.ar   76  PHE76      -0.0000
     79  N        -68.7380  -47.4190  -55.8360 N.am   77  GLU77      -0.1965
     80  CA       -67.4820  -48.1050  -56.1330 C.3    77  GLU77       0.1733
     81  C        -66.6900  -48.0480  -54.8120 C.2    77  GLU77       0.2616
     82  O        -66.7890  -47.0740  -54.0530 O.2    77  GLU77      -0.2715
     83  CB       -66.7070  -47.3970  -57.2630 C.3    77  GLU77       0.0429
     84  CG       -65.8760  -46.2100  -56.8520 C.3    77  GLU77       0.1163
     85  CD       -65.0070  -45.6260  -57.9790 C.2    77  GLU77       0.3649
     86  OE1      -63.8860  -46.1300  -58.2360 O.co2  77  GLU77      -0.2457
     87  OE2      -65.4470  -44.6490  -58.6140 O.co2  77  GLU77      -0.2457
     88  N        -65.9160  -49.0870  -54.5330 N.am   78  PHE78      -0.1960
     89  CA       -65.1580  -49.1730  -53.2880 C.3    78  PHE78       0.1771
     90  C        -63.6950  -48.7320  -53.4230 C.2    78  PHE78       0.2619
     91  O        -63.0400  -49.0660  -54.4110 O.2    78  PHE78      -0.2715
     92  CB       -65.2040  -50.6300  -52.7670 C.3    78  PHE78       0.0574
     93  CG       -64.4070  -50.8650  -51.5170 C.ar   78  PHE78      -0.0200
     94  CD1      -63.0950  -51.3310  -51.5840 C.ar   78  PHE78      -0.0042
     95  CD2      -64.9590  -50.5960  -50.2670 C.ar   78  PHE78      -0.0042
     96  CE1      -62.3500  -51.5220  -50.4360 C.ar   78  PHE78      -0.0003
     97  CE2      -64.2180  -50.7850  -49.1090 C.ar   78  PHE78      -0.0003
     98  CZ       -62.9090  -51.2490  -49.1920 C.ar   78  PHE78      -0.0000
     99  N        -63.2150  -47.9520  -52.4540 N.am   79  LEU79      -0.1963
    100  CA       -61.8140  -47.5290  -52.4030 C.3    79  LEU79       0.1728
    101  C        -61.3500  -47.9020  -51.0020 C.2    79  LEU79       0.2616
    102  O        -62.1170  -47.8110  -50.0570 O.2    79  LEU79      -0.2715
    103  CB       -61.6380  -46.0280  -52.6680 C.3    79  LEU79       0.0311
    104  CG       -61.5140  -45.7250  -54.1680 C.3    79  LEU79       0.0022
    105  CD1      -62.9020  -45.4640  -54.7280 C.3    79  LEU79       0.0001
    106  CD2      -60.6270  -44.5190  -54.4180 C.3    79  LEU79       0.0001
    107  N        -60.0960  -48.3250  -50.8730 N.am   80  HIS80      -0.1959
    108  CA       -59.5810  -48.7970  -49.6000 C.3    80  HIS80       0.1787
    109  C        -59.2590  -47.8370  -48.4650 C.2    80  HIS80       0.2620
    110  O        -59.1890  -48.2680  -47.3130 O.2    80  HIS80      -0.2715
    111  CB       -58.3470  -49.6630  -49.8470 C.3    80  HIS80       0.0785
    112  CG       -58.6510  -50.9690  -50.5180 C.ar   80  HIS80       0.0821
    113  ND1      -58.8320  -51.0840  -51.8810 N.ar   80  HIS80      -0.2267
    114  CD2      -58.8210  -52.2130  -50.0060 C.ar   80  HIS80       0.1154
    115  CE1      -59.0990  -52.3450  -52.1800 C.ar   80  HIS80       0.1986
    116  NE2      -59.0990  -53.0500  -51.0620 N.ar   80  HIS80      -0.2212
    117  N        -59.0670  -46.5520  -48.7480 N.am   81  GLN81      -0.1963
    118  CA       -58.7020  -45.6500  -47.6540 C.3    81  GLN81       0.1733
    119  C        -59.1850  -44.2320  -47.8960 C.2    81  GLN81       0.2616
    120  O        -59.3480  -43.8300  -49.0400 O.2    81  GLN81      -0.2715
    121  CB       -57.1820  -45.6590  -47.5080 C.3    81  GLN81       0.0408
    122  CG       -56.6160  -44.9680  -46.2530 C.3    81  GLN81       0.0908
    123  CD       -55.1850  -45.4100  -45.9850 C.2    81  GLN81       0.2608
    124  OE1      -54.9400  -46.5670  -45.6280 O.2    81  GLN81      -0.2717
    125  NE2      -54.2340  -44.5080  -46.1820 N.am   81  GLN81      -0.0878
    126  N        -59.4300  -43.4880  -46.8200 N.am   82  ASP82      -0.1971
    127  CA       -59.8570  -42.0940  -46.9780 C.3    82  ASP82       0.1709
    128  C        -58.6730  -41.1940  -46.6460 C.2    82  ASP82       0.2293
    129  O        -57.6760  -41.6590  -46.0890 O.2    82  ASP82      -0.2864
    130  CB       -61.0810  -41.7570  -46.1140 C.3    82  ASP82       0.1436
    131  CG       -60.8490  -41.9570  -44.6170 C.2    82  ASP82       0.3671
    132  OD1      -59.8800  -41.4030  -44.0590 O.co2  82  ASP82      -0.2456
    133  OD2      -61.6650  -42.6660  -44.0020 O.co2  82  ASP82      -0.2456
    134  N        -57.5890  -40.8830  -42.7960 N.3    85  LYS85      -0.1245
    135  CA       -56.7050  -41.9300  -42.3110 C.3    85  LYS85       0.1561
    136  C        -55.2770  -41.7610  -42.8490 C.2    85  LYS85       0.2260
    137  O        -54.3080  -41.9160  -42.1050 O.2    85  LYS85      -0.2867
    138  CB       -57.2560  -43.3190  -42.6850 C.3    85  LYS85       0.0271
    139  CG       -56.3110  -44.4520  -42.2970 C.3    85  LYS85       0.0035
    140  CD       -57.0420  -45.7710  -42.0440 C.3    85  LYS85       0.0206
    141  CE       -56.0560  -46.8320  -41.5660 C.3    85  LYS85       0.1093
    142  NZ       -56.7320  -48.1100  -41.2230 N.3    85  LYS85      -0.1314
    143  N        -62.6750  -37.2110  -44.6460 N.3   127  GLN127     -0.1245
    144  CA       -63.2630  -38.5370  -44.6570 C.3   127  GLN127      0.1566
    145  C        -64.0530  -38.8790  -45.9160 C.2   127  GLN127      0.2260
    146  O        -64.3030  -40.0530  -46.1530 O.2   127  GLN127     -0.2867
    147  CB       -64.1130  -38.7900  -43.4000 C.3   127  GLN127      0.0367
    148  CG       -65.2990  -37.8750  -43.1870 C.3   127  GLN127      0.0905
    149  CD       -66.1510  -38.3210  -41.9970 C.2   127  GLN127      0.2608
    150  OE1      -65.6640  -38.4130  -40.8640 O.2   127  GLN127     -0.2717
    151  NE2      -67.4230  -38.6150  -42.2560 N.am  127  GLN127     -0.0878
    152  N        -61.5470  -40.1960  -50.9960 N.3   130  LEU130     -0.1245
    153  CA       -61.0030  -41.5600  -51.0010 C.3   130  LEU130      0.1561
    154  C        -59.8080  -41.7260  -51.9250 C.2   130  LEU130      0.2260
    155  O        -59.7770  -41.1440  -53.0050 O.2   130  LEU130     -0.2867
    156  CB       -62.1070  -42.5400  -51.3990 C.3   130  LEU130      0.0270
    157  CG       -63.3900  -42.3060  -50.5730 C.3   130  LEU130      0.0019
    158  CD1      -64.4190  -43.3560  -50.9300 C.3   130  LEU130      0.0001
    159  CD2      -63.0790  -42.3560  -49.0550 C.3   130  LEU130      0.0001
    160  N        -66.3600  -38.3660  -52.6770 N.3   140  ALA140     -0.1231
    161  CA       -67.5080  -39.2290  -52.3720 C.3   140  ALA140      0.1694
    162  C        -68.6650  -38.4110  -51.7980 C.2   140  ALA140      0.2592
    163  O        -68.4500  -37.4180  -51.1080 O.2   140  ALA140     -0.2718
    164  CB       -67.0920  -40.3210  -51.3730 C.3   140  ALA140      0.0304
    165  N        -69.8840  -38.8460  -52.1080 N.am  141  ASP141     -0.1974
    166  CA       -71.1100  -38.2030  -51.6430 C.3   141  ASP141      0.1709
    167  C        -71.4890  -36.8970  -52.3300 C.2   141  ASP141      0.2293
    168  O        -72.2290  -36.0910  -51.7770 O.2   141  ASP141     -0.2864
    169  CB       -71.0630  -38.0090  -50.1260 C.3   141  ASP141      0.1436
    170  CG       -70.9920  -39.3240  -49.3830 C.2   141  ASP141      0.3671
    171  OD1      -71.0930  -40.3830  -50.0370 O.co2 141  ASP141     -0.2456
    172  OD2      -70.8450  -39.3110  -48.1460 O.co2 141  ASP141     -0.2456
@<TRIPOS>BOND
     1    87    85   ar
     2    86    85   ar
     3    85    84    1
     4    63    64    2
     5    63    62    1
     6    83    84    1
     7    83    80    1
     8    61    62    1
     9    62    65    1
    10    80    79    1
    11    80    81    1
    12    79    70   am
    13    65    66    1
    14    65    67    1
    15    70    69    1
    16    70    71    2
    17    81    88   am
    18    81    82    2
    19   105   104    1
    20    69    68    1
    21    69    72    1
    22    88    89    1
    23   106   104    1
    24    91    90    2
    25    74    76   ar
    26    74    73   ar
    27   104   103    1
    28    76    78   ar
    29    72    73    1
    30    90    89    1
    31    90    99   am
    32    73    75   ar
    33    89    92    1
    34   155   154    2
    35    78    77   ar
    36    92    93    1
    37   160   161    1
    38   103   100    1
    39    99   100    1
    40   100   101    1
    41   161   162    1
    42   161   164    1
    43   167   168    2
    44   167   166    1
    45   115   113   ar
    46   115   116   ar
    47    75    77   ar
    48   165   162   am
    49   165   166    1
    50   154   153    1
    51   113   112   ar
    52    47    48    1
    53   162   163    2
    54   166   169    1
    55    94    93   ar
    56    94    96   ar
    57    93    95   ar
    58    50    49    2
    59   156   153    1
    60   156   157    1
    61   116   114   ar
    62   101   107   am
    63   101   102    2
    64   153   152    1
    65   158   157    1
    66   107   108    1
    67    49    48    1
    68    48    51    1
    69   157   159    1
    70   112   114   ar
    71   112   111    1
    72    96    98   ar
    73    95    97   ar
    74   169   170    1
    75   171   170   ar
    76   111   108    1
    77   108   109    1
    78   170   172   ar
    79    98    97   ar
    80   120   119    2
    81    45    46    1
    82    45    44    1
    83   117   109   am
    84   117   118    1
    85    52    53    1
    86   109   110    2
    87    55    54    2
    88    43    44    1
    89    43    42    1
    90    56    53    1
    91    56    57    1
    92    59    58    1
    93    59    60    1
    94   119   118    1
    95   119   126   am
    96    40    39    1
    97    40    41    2
    98    58    57    1
    99    53    54    1
   100   118   121    1
   101    39    42    1
   102    39    38    1
   103   121   122    1
   104    26    24    1
   105   127   126    1
   106   127   128    1
   107   127   130    1
   108   128   129    2
   109    36    35    1
   110   122   123    1
   111   125   123   am
   112   146   145    2
   113   130   131    1
   114   123   124    2
   115   145   144    1
   116    24    23    1
   117    37    35    1
   118    35    32    1
   119    25    23    1
   120   144   143    1
   121   144   147    1
   122   131   132   ar
   123   131   133   ar
   124    23    20    1
   125    32    33    1
   126    32    31    1
   127    33    34    2
   128     1     2    1
   129     4     3    2
   130   147   148    1
   131   148   149    1
   132    20    19    1
   133    20    21    1
   134   136   135    1
   135   136   137    2
   136    19    12   am
   137   134   135    1
   138     2     3    1
   139     2     5    1
   140     8     7   ar
   141     3    10   am
   142     6     5    1
   143     6     7    1
   144   138   135    1
   145   138   139    1
   146   139   140    1
   147     7     9   ar
   148   151   149   am
   149    21    22    2
   150    28    27    1
   151    28    29    1
   152   140   141    1
   153   149   150    2
   154    12    11    1
   155    12    13    2
   156    10    11    1
   157   141   142    1
   158    29    30    2
   159    11    14    1
   160    14    15    1
   161    15    16    1
   162    16    17    1
   163    17    18    1
