@<TRIPOS>MOLECULE
tmp/3rm8A00.pdb
 186 179 0 0 0
SMALL
GASTEIGER

@<TRIPOS>ATOM
      1  N          7.7900   52.9360   74.2450 N.3     6  TYR6       -0.1241
      2  CA         7.9080   52.5410   72.8420 C.3     6  TYR6        0.1605
      3  C          7.9230   53.7670   71.9340 C.2     6  TYR6        0.2264
      4  O          7.1380   54.7040   72.1160 O.2     6  TYR6       -0.2867
      5  CB         6.7450   51.6390   72.4190 C.3     6  TYR6        0.0534
      6  CG         6.8150   50.1980   72.8930 C.ar    6  TYR6       -0.0201
      7  CD1        7.3860   49.2040   72.0920 C.ar    6  TYR6       -0.0009
      8  CD2        6.2810   49.8260   74.1250 C.ar    6  TYR6       -0.0009
      9  CE1        7.4340   47.8770   72.5220 C.ar    6  TYR6        0.0417
     10  CE2        6.3230   48.5090   74.5620 C.ar    6  TYR6        0.0417
     11  CZ         6.9000   47.5410   73.7620 C.ar    6  TYR6        0.1957
     12  OH         6.9350   46.2390   74.2080 O.3     6  TYR6       -0.2866
     13  N          7.2640   55.1090   62.2320 N.3    10  TRP10      -0.1241
     14  CA         6.3850   55.7690   61.2560 C.3    10  TRP10       0.1605
     15  C          5.8020   57.0940   61.7650 C.2    10  TRP10       0.2264
     16  O          5.0990   57.7930   61.0270 O.2    10  TRP10      -0.2867
     17  CB         5.2670   54.8320   60.7870 C.3    10  TRP10       0.0550
     18  CG         4.3530   54.3880   61.8760 C.ar   10  TRP10       0.0003
     19  CD1        3.1550   54.9540   62.2310 C.ar   10  TRP10       0.0946
     20  CD2        4.5450   53.2710   62.7470 C.ar   10  TRP10       0.0152
     21  NE1        2.5960   54.2530   63.2730 N.ar   10  TRP10      -0.2442
     22  CE2        3.4290   53.2170   63.6090 C.ar   10  TRP10       0.0810
     23  CE3        5.5560   52.3040   62.8810 C.ar   10  TRP10       0.0012
     24  CZ2        3.2950   52.2370   64.6000 C.ar   10  TRP10       0.0191
     25  CZ3        5.4250   51.3330   63.8700 C.ar   10  TRP10       0.0001
     26  CH2        4.3000   51.3080   64.7150 C.ar   10  TRP10       0.0015
     27  N          4.1220   61.8290   60.1750 N.3    14  ARG14      -0.1245
     28  CA         2.9720   62.6350   60.5840 C.3    14  ARG14       0.1563
     29  C          3.1910   64.1130   60.2420 C.2    14  ARG14       0.2260
     30  O          4.3190   64.6030   60.3290 O.2    14  ARG14      -0.2867
     31  CB         2.6700   62.4290   62.0730 C.3    14  ARG14       0.0307
     32  CG         2.1760   61.0200   62.3790 C.3    14  ARG14       0.0489
     33  CD         2.0630   60.7370   63.8660 C.3    14  ARG14       0.2205
     34  NE         1.6800   59.3440   64.0820 N.pl3  14  ARG14      -0.0865
     35  CZ         1.9220   58.6510   65.1920 C.cat  14  ARG14       0.5346
     36  NH1        2.5460   59.2170   66.2180 N.pl3  14  ARG14       0.1354
     37  NH2        1.5370   57.3810   65.2710 N.pl3  14  ARG14       0.1354
     38  N          9.2260   49.3520   64.4210 N.3    37  PHE37      -0.1241
     39  CA         9.4770   47.9100   64.5160 C.3    37  PHE37       0.1605
     40  C         10.6360   47.4950   63.6030 C.2    37  PHE37       0.2264
     41  O         10.9550   48.1890   62.6310 O.2    37  PHE37      -0.2867
     42  CB         8.2430   47.1160   64.0690 C.3    37  PHE37       0.0534
     43  CG         7.1110   47.1190   65.0540 C.ar   37  PHE37      -0.0203
     44  CD1        5.9060   47.7470   64.7410 C.ar   37  PHE37      -0.0042
     45  CD2        7.2370   46.4830   66.2870 C.ar   37  PHE37      -0.0042
     46  CE1        4.8450   47.7520   65.6470 C.ar   37  PHE37      -0.0003
     47  CE2        6.1800   46.4840   67.2000 C.ar   37  PHE37      -0.0003
     48  CZ         4.9850   47.1190   66.8810 C.ar   37  PHE37      -0.0000
     49  N          1.7250   44.3150   64.3560 N.3    78  TRP78      -0.1241
     50  CA         0.4510   43.7890   63.8560 C.3    78  TRP78       0.1605
     51  C          0.4330   43.5280   62.3510 C.2    78  TRP78       0.2264
     52  O         -0.1330   42.5270   61.9060 O.2    78  TRP78      -0.2867
     53  CB        -0.7370   44.6740   64.2770 C.3    78  TRP78       0.0550
     54  CG        -0.5860   46.1410   63.9590 C.ar   78  TRP78       0.0003
     55  CD1       -1.0160   46.7850   62.8360 C.ar   78  TRP78       0.0946
     56  CD2        0.0240   47.1410   64.7870 C.ar   78  TRP78       0.0152
     57  NE1       -0.7050   48.1250   62.9070 N.ar   78  TRP78      -0.2442
     58  CE2       -0.0660   48.3700   64.0940 C.ar   78  TRP78       0.0810
     59  CE3        0.6390   47.1170   66.0470 C.ar   78  TRP78       0.0012
     60  CZ2        0.4330   49.5660   64.6180 C.ar   78  TRP78       0.0191
     61  CZ3        1.1380   48.3040   66.5700 C.ar   78  TRP78       0.0001
     62  CH2        1.0330   49.5140   65.8540 C.ar   78  TRP78       0.0015
     63  N          7.7500   41.0910   69.5820 N.3   117  ASP117     -0.1239
     64  CA         6.3740   41.5700   69.4010 C.3   117  ASP117      0.1674
     65  C          5.6160   40.7040   68.3870 C.2   117  ASP117      0.2266
     66  O          5.0400   41.1960   67.4050 O.2   117  ASP117     -0.2867
     67  CB         6.3530   43.0590   69.0190 C.3   117  ASP117      0.1410
     68  CG         6.9180   43.9580   70.1200 C.2   117  ASP117      0.3668
     69  OD1        7.7070   43.4720   70.9540 O.co2 117  ASP117     -0.2456
     70  OD2        6.5790   45.1570   70.1570 O.co2 117  ASP117     -0.2456
     71  N          2.5630   38.7830   67.4180 N.3   119  GLU119     -0.1245
     72  CA         1.1370   38.8700   67.7100 C.3   119  GLU119      0.1567
     73  C          0.3400   37.8260   66.9130 C.2   119  GLU119      0.2260
     74  O         -0.1030   38.1190   65.8000 O.2   119  GLU119     -0.2867
     75  CB         0.6130   40.2810   67.3970 C.3   119  GLU119      0.0388
     76  CG         1.2580   41.4070   68.2020 C.3   119  GLU119      0.1160
     77  CD         0.6950   42.7780   67.8470 C.2   119  GLU119      0.3649
     78  OE1       -0.5300   42.8880   67.6180 O.co2 119  GLU119     -0.2457
     79  OE2        1.4770   43.7460   67.8080 O.co2 119  GLU119     -0.2457
     80  N          6.5730   41.6040   74.2940 N.3   162  ALA162     -0.1245
     81  CA         5.2220   42.1400   74.4220 C.3   162  ALA162      0.1562
     82  C          4.2420   40.9850   74.2620 C.2   162  ALA162      0.2260
     83  O          4.3030   40.2370   73.2790 O.2   162  ALA162     -0.2867
     84  CB         4.9640   43.2150   73.3900 C.3   162  ALA162      0.0290
     85  N          0.3160   43.7980   77.2110 N.3   189  MET189     -0.1245
     86  CA        -0.4130   44.7370   76.3640 C.3   189  MET189      0.1570
     87  C         -1.8200   44.9950   76.9120 C.2   189  MET189      0.2261
     88  O         -2.8290   44.6980   76.2580 O.2   189  MET189     -0.2867
     89  CB        -0.4550   44.2180   74.9240 C.3   189  MET189      0.0387
     90  CG         0.9300   44.0140   74.2990 C.3   189  MET189      0.0595
     91  SD         0.9280   42.9510   72.8420 S.3   189  MET189     -0.1393
     92  CE         0.1400   44.0160   71.6380 C.3   189  MET189      0.0692
     93  N         -4.2400   46.9610   77.0250 N.3   191  TYR191     -0.1227
     94  CA        -4.9820   47.9980   76.3220 C.3   191  TYR191      0.1736
     95  C         -5.5920   47.3830   75.0640 C.2   191  TYR191      0.2595
     96  O         -5.4550   46.1700   74.8330 O.2   191  TYR191     -0.2718
     97  CB        -4.1120   49.2300   76.0070 C.3   191  TYR191      0.0548
     98  CG        -2.6830   48.9530   75.5790 C.ar  191  TYR191     -0.0200
     99  CD1       -2.3930   48.0760   74.5320 C.ar  191  TYR191     -0.0009
    100  CD2       -1.6160   49.6070   76.2050 C.ar  191  TYR191     -0.0009
    101  CE1       -1.0710   47.8350   74.1400 C.ar  191  TYR191      0.0417
    102  CE2       -0.3010   49.3770   75.8210 C.ar  191  TYR191      0.0417
    103  CZ        -0.0360   48.4960   74.7840 C.ar  191  TYR191      0.1957
    104  OH         1.2710   48.2840   74.4020 O.3   191  TYR191     -0.2866
    105  N         -6.2750   48.2030   74.2650 N.am  192  ASP192     -0.1974
    106  CA        -7.1180   47.7070   73.1670 C.3   192  ASP192      0.1709
    107  C         -8.1000   46.6480   73.6950 C.2   192  ASP192      0.2293
    108  O         -8.4350   45.6790   73.0020 O.2   192  ASP192     -0.2864
    109  CB        -6.2690   47.1520   72.0100 C.3   192  ASP192      0.1436
    110  CG        -5.1940   48.1210   71.5410 C.2   192  ASP192      0.3671
    111  OD1       -5.4680   49.3380   71.4120 O.co2 192  ASP192     -0.2456
    112  OD2       -4.0660   47.6550   71.2830 O.co2 192  ASP192     -0.2456
    113  N         -3.0170   56.8870   74.0080 N.3   246  TYR246     -0.1241
    114  CA        -3.9780   57.0150   72.9220 C.3   246  TYR246      0.1605
    115  C         -5.3000   56.4020   73.3820 C.2   246  TYR246      0.2264
    116  O         -5.3350   55.6360   74.3480 O.2   246  TYR246     -0.2867
    117  CB        -3.4800   56.2620   71.6850 C.3   246  TYR246      0.0534
    118  CG        -3.4750   54.7560   71.8700 C.ar  246  TYR246     -0.0201
    119  CD1       -4.5730   53.9790   71.4870 C.ar  246  TYR246     -0.0009
    120  CD2       -2.3880   54.1140   72.4610 C.ar  246  TYR246     -0.0009
    121  CE1       -4.5720   52.5990   71.6690 C.ar  246  TYR246      0.0417
    122  CE2       -2.3790   52.7430   72.6450 C.ar  246  TYR246      0.0417
    123  CZ        -3.4670   51.9960   72.2540 C.ar  246  TYR246      0.1957
    124  OH        -3.4410   50.6410   72.4450 O.3   246  TYR246     -0.2866
    125  N         -9.4210   54.7880   71.9390 N.3   248  HIS248     -0.1241
    126  CA       -10.2590   54.2940   70.8450 C.3   248  HIS248      0.1621
    127  C        -11.5370   55.1020   70.7690 C.2   248  HIS248      0.2264
    128  O        -12.1880   55.3540   71.7920 O.2   248  HIS248     -0.2867
    129  CB       -10.5980   52.8120   71.0240 C.3   248  HIS248      0.0745
    130  CG        -9.4810   51.8920   70.6450 C.ar  248  HIS248      0.0817
    131  ND1       -9.2180   51.5380   69.3390 N.ar  248  HIS248     -0.2268
    132  CD2       -8.5630   51.2480   71.4020 C.ar  248  HIS248      0.1154
    133  CE1       -8.1790   50.7230   69.3070 C.ar  248  HIS248      0.1986
    134  NE2       -7.7640   50.5290   70.5460 N.ar  248  HIS248     -0.2212
    135  N         -2.2700   61.5290   63.5070 N.3   274  ALA274     -0.1245
    136  CA        -1.9730   60.0970   63.4270 C.3   274  ALA274      0.1562
    137  C         -2.6810   59.4400   62.2430 C.2   274  ALA274      0.2260
    138  O         -2.1990   58.4410   61.6960 O.2   274  ALA274     -0.2867
    139  CB        -2.3430   59.3990   64.7310 C.3   274  ALA274      0.0290
    140  N         -5.2490   57.6410   62.0550 N.3   276  GLU276     -0.1245
    141  CA        -5.6480   56.2710   62.3640 C.3   276  GLU276      0.1567
    142  C         -7.1510   56.1550   62.5720 C.2   276  GLU276      0.2260
    143  O         -7.7300   56.8060   63.4470 O.2   276  GLU276     -0.2867
    144  CB        -4.9180   55.7550   63.6090 C.3   276  GLU276      0.0388
    145  CG        -3.4350   55.4970   63.4070 C.3   276  GLU276      0.1160
    146  CD        -3.1410   54.2570   62.5650 C.2   276  GLU276      0.3649
    147  OE1       -4.0700   53.4690   62.2600 O.co2 276  GLU276     -0.2457
    148  OE2       -1.9630   54.0670   62.2120 O.co2 276  GLU276     -0.2457
    149  N         -8.8240   55.5310   66.2420 N.3   279  ILE279     -0.1245
    150  CA        -7.7730   55.7510   67.2350 C.3   279  ILE279      0.1561
    151  C         -7.3450   57.2180   67.2240 C.2   279  ILE279      0.2260
    152  O         -7.0670   57.7710   66.1560 O.2   279  ILE279     -0.2867
    153  CB        -6.5220   54.8600   66.9590 C.3   279  ILE279      0.0252
    154  CG1       -6.8550   53.3750   67.1470 C.3   279  ILE279      0.0019
    155  CG2       -5.3400   55.2640   67.8660 C.3   279  ILE279      0.0019
    156  CD1       -5.8720   52.4190   66.4790 C.3   279  ILE279      0.0001
    157  N          5.0910   50.1060   81.0620 N.3   337  MET337     -0.1245
    158  CA         5.4980   50.4020   79.6880 C.3   337  MET337      0.1570
    159  C          4.4470   51.2810   79.0200 C.2   337  MET337      0.2261
    160  O          3.2690   51.2450   79.4000 O.2   337  MET337     -0.2867
    161  CB         5.8370   49.1390   78.8770 C.3   337  MET337      0.0387
    162  CG         4.6800   48.1990   78.5870 C.3   337  MET337      0.0595
    163  SD         3.6670   48.6810   77.1700 S.3   337  MET337     -0.1393
    164  CE         2.9030   47.0970   76.8420 C.3   337  MET337      0.0692
    165  N          2.8010   52.7750   75.3430 N.3   339  TRP339     -0.1241
    166  CA         2.5930   52.9060   73.9080 C.3   339  TRP339      0.1605
    167  C          1.7480   54.1510   73.6480 C.2   339  TRP339      0.2264
    168  O          0.5630   54.1500   73.9750 O.2   339  TRP339     -0.2867
    169  CB         1.8810   51.6740   73.3260 C.3   339  TRP339      0.0550
    170  CG         1.8780   51.6990   71.8250 C.ar  339  TRP339      0.0003
    171  CD1        1.0360   52.4090   71.0160 C.ar  339  TRP339      0.0946
    172  CD2        2.7870   51.0130   70.9540 C.ar  339  TRP339      0.0152
    173  NE1        1.3580   52.1970   69.6950 N.ar  339  TRP339     -0.2442
    174  CE2        2.4290   51.3450   69.6300 C.ar  339  TRP339      0.0810
    175  CE3        3.8630   50.1390   71.1650 C.ar  339  TRP339      0.0012
    176  CZ2        3.1090   50.8360   68.5180 C.ar  339  TRP339      0.0191
    177  CZ3        4.5440   49.6350   70.0550 C.ar  339  TRP339      0.0001
    178  CH2        4.1620   49.9890   68.7510 C.ar  339  TRP339      0.0015
    179  N          2.8350   59.6040   70.9340 N.3   343  LEU343     -0.1245
    180  CA         1.3880   59.8450   71.0360 C.3   343  LEU343      0.1561
    181  C          1.0100   60.7260   72.2350 C.2   343  LEU343      0.2260
    182  O         -0.0830   61.3030   72.2700 O.2   343  LEU343     -0.2867
    183  CB         0.6290   58.5150   71.0710 C.3   343  LEU343      0.0270
    184  CG         0.7910   57.6240   69.8290 C.3   343  LEU343      0.0019
    185  CD1        0.4130   56.1810   70.1120 C.3   343  LEU343      0.0001
    186  CD2       -0.0100   58.1660   68.6510 C.3   343  LEU343      0.0001
@<TRIPOS>BOND
     1    27    28    1
     2    29    30    2
     3    29    28    1
     4    28    31    1
     5    17    14    1
     6    17    18    1
     7    16    15    2
     8    14    15    1
     9    14    13    1
    10   138   137    2
    11    18    19   ar
    12    18    20   ar
    13    52    51    2
    14   140   141    1
    15    31    32    1
    16   148   146   ar
    17    19    21   ar
    18   137   136    1
    19   147   146   ar
    20    51    50    1
    21   141   142    1
    22   141   144    1
    23    32    33    1
    24   146   145    1
    25   142   143    2
    26    41    40    2
    27    20    23   ar
    28    20    22   ar
    29    55    57   ar
    30    55    54   ar
    31    23    25   ar
    32    57    58   ar
    33    21    22   ar
    34   145   144    1
    35   136   135    1
    36   136   139    1
    37    40    39    1
    38    22    24   ar
    39    50    53    1
    40    50    49    1
    41    33    34    1
    42    25    26   ar
    43    54    53    1
    44    54    56   ar
    45    42    39    1
    46    42    43    1
    47    34    35    2
    48    58    60   ar
    49    58    56   ar
    50    38    39    1
    51    24    26   ar
    52    60    62   ar
    53    44    43   ar
    54    44    46   ar
    55    56    59   ar
    56    43    45   ar
    57    35    37    1
    58    35    36    1
    59    46    48   ar
    60    74    73    2
    61    62    61   ar
    62    59    61   ar
    63   152   151    2
    64   149   150    1
    65    45    47   ar
    66   156   154    1
    67    48    47   ar
    68    73    72    1
    69   153   154    1
    70   153   150    1
    71   153   155    1
    72   151   150    1
    73    75    72    1
    74    75    76    1
    75    66    65    2
    76    71    72    1
    77    78    77   ar
    78    79    77   ar
    79    77    76    1
    80    65    64    1
    81   176   178   ar
    82   176   174   ar
    83   186   184    1
    84   178   177   ar
    85    67    64    1
    86    67    68    1
    87   133   131   ar
    88   133   134   ar
    89   131   130   ar
    90    64    63    1
    91   174   173   ar
    92   174   172   ar
    93   173   171   ar
    94   184   185    1
    95   184   183    1
    96   177   175   ar
    97    68    70   ar
    98    68    69   ar
    99   134   132   ar
   100   130   129    1
   101   130   132   ar
   102   127   126    1
   103   127   128    2
   104   126   129    1
   105   126   125    1
   106   179   180    1
   107   172   175   ar
   108   172   170   ar
   109   171   170   ar
   110   180   183    1
   111   180   181    1
   112   112   110   ar
   113   111   110   ar
   114   119   121   ar
   115   119   118   ar
   116   110   109    1
   117    92    91    1
   118   121   123   ar
   119   117   118    1
   120   117   114    1
   121   170   169    1
   122   118   120   ar
   123     3     4    2
   124     3     2    1
   125   109   106    1
   126     7     9   ar
   127     7     6   ar
   128   181   182    2
   129   123   124    1
   130   123   122   ar
   131     5     2    1
   132     5     6    1
   133   120   122   ar
   134     9    11   ar
   135    91    90    1
   136     2     1    1
   137     6     8   ar
   138   114   115    1
   139   114   113    1
   140   108   107    2
   141   106   107    1
   142   106   105    1
   143    83    82    2
   144   169   166    1
   145   115   116    2
   146    84    81    1
   147   167   166    1
   148   167   168    2
   149    11    12    1
   150    11    10   ar
   151   166   165    1
   152     8    10   ar
   153   101    99   ar
   154   101   103   ar
   155    82    81    1
   156   105    95   am
   157    80    81    1
   158    90    89    1
   159   104   103    1
   160    99    98   ar
   161   103   102   ar
   162    96    95    2
   163    89    86    1
   164    95    94    1
   165    98    97    1
   166    98   100   ar
   167   102   100   ar
   168    97    94    1
   169    88    87    2
   170    94    93    1
   171    86    87    1
   172    86    85    1
   173   164   163    1
   174   163   162    1
   175   162   161    1
   176   161   158    1
   177   159   160    2
   178   159   158    1
   179   158   157    1
