@<TRIPOS>MOLECULE
tmp/3rm9B00.pdb
 178 173 0 0 0
SMALL
GASTEIGER

@<TRIPOS>ATOM
      1  N         38.8080  -10.0010  -11.1380 N.3    10  TRP10      -0.1241
      2  CA        37.8900  -10.6720  -10.2270 C.3    10  TRP10       0.1605
      3  C         37.1970  -11.8730  -10.8700 C.2    10  TRP10       0.2264
      4  O         36.4480  -12.5900  -10.2050 O.2    10  TRP10      -0.2867
      5  CB        36.8620   -9.6860   -9.6590 C.3    10  TRP10       0.0550
      6  CG        35.9270   -9.0820  -10.6750 C.ar   10  TRP10       0.0003
      7  CD1       34.7080   -9.5730  -11.0660 C.ar   10  TRP10       0.0946
      8  CD2       36.1120   -7.8550  -11.3920 C.ar   10  TRP10       0.0152
      9  NE1       34.1380   -8.7390  -11.9960 N.ar   10  TRP10      -0.2442
     10  CE2       34.9740   -7.6760  -12.2120 C.ar   10  TRP10       0.0810
     11  CE3       37.1350   -6.8960  -11.4330 C.ar   10  TRP10       0.0012
     12  CZ2       34.8260   -6.5720  -13.0610 C.ar   10  TRP10       0.0191
     13  CZ3       36.9900   -5.8020  -12.2790 C.ar   10  TRP10       0.0001
     14  CH2       35.8410   -5.6480  -13.0780 C.ar   10  TRP10       0.0015
     15  N         35.2320  -16.6920  -10.0060 N.3    14  ARG14      -0.1245
     16  CA        34.0600  -17.3970  -10.5310 C.3    14  ARG14       0.1563
     17  C         34.2660  -18.9140  -10.4560 C.2    14  ARG14       0.2260
     18  O         35.3860  -19.3910  -10.6350 O.2    14  ARG14      -0.2867
     19  CB        33.7470  -16.9370  -11.9590 C.3    14  ARG14       0.0307
     20  CG        33.3190  -15.4750  -12.0200 C.3    14  ARG14       0.0489
     21  CD        33.2500  -14.9320  -13.4380 C.3    14  ARG14       0.2205
     22  NE        32.9480  -13.5010  -13.4190 N.pl3  14  ARG14      -0.0865
     23  CZ        33.2030  -12.6520  -14.4100 C.cat  14  ARG14       0.5346
     24  NH1       33.7750  -13.0720  -15.5380 N.pl3  14  ARG14       0.1354
     25  NH2       32.8820  -11.3720  -14.2690 N.pl3  14  ARG14       0.1354
     26  N         41.0810   -4.0460  -12.4690 N.3    37  PHE37      -0.1241
     27  CA        41.4220   -2.6210  -12.3580 C.3    37  PHE37       0.1605
     28  C         42.5710   -2.3940  -11.3740 C.2    37  PHE37       0.2264
     29  O         42.8320   -3.2240  -10.4950 O.2    37  PHE37      -0.2867
     30  CB        40.2230   -1.8070  -11.8440 C.3    37  PHE37       0.0534
     31  CG        39.1500   -1.5640  -12.8670 C.ar   37  PHE37      -0.0203
     32  CD1       37.9200   -2.2100  -12.7640 C.ar   37  PHE37      -0.0042
     33  CD2       39.3520   -0.6680  -13.9150 C.ar   37  PHE37      -0.0042
     34  CE1       36.9170   -1.9900  -13.6990 C.ar   37  PHE37      -0.0003
     35  CE2       38.3520   -0.4420  -14.8570 C.ar   37  PHE37      -0.0003
     36  CZ        37.1320   -1.1040  -14.7460 C.ar   37  PHE37      -0.0000
     37  N         33.3920    1.3780  -11.8330 N.3    78  TRP78      -0.1241
     38  CA        32.1470    1.8990  -11.2620 C.3    78  TRP78       0.1605
     39  C         32.2070    2.0050   -9.7370 C.2    78  TRP78       0.2264
     40  O         31.8840    3.0530   -9.1790 O.2    78  TRP78      -0.2867
     41  CB        30.9430    1.0500  -11.6900 C.3    78  TRP78       0.0550
     42  CG        29.6000    1.6410  -11.2930 C.ar   78  TRP78       0.0003
     43  CD1       28.8370    1.2970  -10.2130 C.ar   78  TRP78       0.0946
     44  CD2       28.8770    2.6760  -11.9810 C.ar   78  TRP78       0.0152
     45  NE1       27.6840    2.0540  -10.1830 N.ar   78  TRP78      -0.2442
     46  CE2       27.6850    2.9070  -11.2560 C.ar   78  TRP78       0.0810
     47  CE3       29.1250    3.4330  -13.1360 C.ar   78  TRP78       0.0012
     48  CZ2       26.7380    3.8610  -11.6510 C.ar   78  TRP78       0.0191
     49  CZ3       28.1840    4.3830  -13.5300 C.ar   78  TRP78       0.0001
     50  CH2       27.0030    4.5850  -12.7880 C.ar   78  TRP78       0.0015
     51  N         39.6380    4.9150  -16.3470 N.3   117  ASP117     -0.1239
     52  CA        38.2170    4.5870  -16.2690 C.3   117  ASP117      0.1674
     53  C         37.5710    5.3420  -15.1120 C.2   117  ASP117      0.2266
     54  O         37.1080    4.7520  -14.1330 O.2   117  ASP117     -0.2867
     55  CB        37.9810    3.0770  -16.1650 C.3   117  ASP117      0.1410
     56  CG        36.5150    2.6980  -16.3570 C.2   117  ASP117      0.3668
     57  OD1       35.7730    3.4400  -17.0390 O.co2 117  ASP117     -0.2456
     58  OD2       36.1030    1.6520  -15.8220 O.co2 117  ASP117     -0.2456
     59  N         34.5500    7.2510  -13.8030 N.3   119  GLU119     -0.1231
     60  CA        33.1200    7.2740  -14.1110 C.3   119  GLU119      0.1699
     61  C         32.2940    8.1040  -13.1180 C.2   119  GLU119      0.2592
     62  O         31.8200    7.5710  -12.1240 O.2   119  GLU119     -0.2718
     63  CB        32.5570    5.8480  -14.2230 C.3   119  GLU119      0.0402
     64  CG        33.2000    4.9870  -15.3150 C.3   119  GLU119      0.1161
     65  CD        32.6020    3.5870  -15.3920 C.2   119  GLU119      0.3649
     66  OE1       31.4260    3.4170  -15.0210 O.co2 119  GLU119     -0.2457
     67  OE2       33.3020    2.6510  -15.8340 O.co2 119  GLU119     -0.2457
     68  N         32.1090    9.4020  -13.3730 N.am  120  TYR120     -0.1976
     69  CA        32.6820   10.1340  -14.5090 C.3   120  TYR120      0.1639
     70  C         33.1420   11.5070  -14.0040 C.2   120  TYR120      0.2290
     71  O         32.7190   11.9390  -12.9300 O.2   120  TYR120     -0.2864
     72  CB        31.6400   10.3400  -15.6230 C.3   120  TYR120      0.0560
     73  CG        30.9510    9.0810  -16.1140 C.ar  120  TYR120     -0.0198
     74  CD1       29.7210    8.6930  -15.5840 C.ar  120  TYR120     -0.0009
     75  CD2       31.5230    8.2850  -17.1110 C.ar  120  TYR120     -0.0009
     76  CE1       29.0780    7.5470  -16.0200 C.ar  120  TYR120      0.0417
     77  CE2       30.8860    7.1260  -17.5560 C.ar  120  TYR120      0.0417
     78  CZ        29.6600    6.7700  -17.0040 C.ar  120  TYR120      0.1957
     79  OH        29.0050    5.6380  -17.4290 O.3   120  TYR120     -0.2866
     80  N         32.2710    3.5110  -24.2060 N.3   189  MET189     -0.1245
     81  CA        31.5180    2.4330  -23.5800 C.3   189  MET189      0.1570
     82  C         30.0830    2.3890  -24.1270 C.2   189  MET189      0.2261
     83  O         29.1170    2.6820  -23.4120 O.2   189  MET189     -0.2867
     84  CB        31.5540    2.5800  -22.0540 C.3   189  MET189      0.0387
     85  CG        32.9660    2.5490  -21.4540 C.3   189  MET189      0.0595
     86  SD        33.0390    2.6580  -19.6480 S.3   189  MET189     -0.1393
     87  CE        32.8040    4.4080  -19.3640 C.3   189  MET189      0.0692
     88  N         27.6670    0.5050  -24.3900 N.3   191  TYR191     -0.1227
     89  CA        26.8430   -0.5560  -23.8080 C.3   191  TYR191      0.1736
     90  C         26.1800   -0.0500  -22.5220 C.2   191  TYR191      0.2595
     91  O         26.4280    1.0830  -22.1050 O.2   191  TYR191     -0.2718
     92  CB        27.6550   -1.8360  -23.5530 C.3   191  TYR191      0.0548
     93  CG        29.0820   -1.6160  -23.0910 C.ar  191  TYR191     -0.0200
     94  CD1       29.3580   -1.2360  -21.7760 C.ar  191  TYR191     -0.0009
     95  CD2       30.1570   -1.8090  -23.9620 C.ar  191  TYR191     -0.0009
     96  CE1       30.6620   -1.0380  -21.3400 C.ar  191  TYR191      0.0417
     97  CE2       31.4700   -1.6130  -23.5320 C.ar  191  TYR191      0.0417
     98  CZ        31.7090   -1.2250  -22.2170 C.ar  191  TYR191      0.1957
     99  OH        32.9890   -1.0300  -21.7650 O.3   191  TYR191     -0.2866
    100  N         25.3500   -0.8970  -21.9020 N.am  192  ASP192     -0.1974
    101  CA        24.4610   -0.5030  -20.7930 C.3   192  ASP192      0.1709
    102  C         23.5480    0.6480  -21.2250 C.2   192  ASP192      0.2293
    103  O         23.1300    1.4770  -20.4040 O.2   192  ASP192     -0.2864
    104  CB        25.2520   -0.1240  -19.5290 C.3   192  ASP192      0.1436
    105  CG        26.3120   -1.1460  -19.1710 C.2   192  ASP192      0.3671
    106  OD1       26.0630   -2.3580  -19.3320 O.co2 192  ASP192     -0.2456
    107  OD2       27.3970   -0.7330  -18.7180 O.co2 192  ASP192     -0.2456
    108  N         28.3320   -9.5730  -23.0200 N.3   246  TYR246     -0.1241
    109  CA        27.3340   -9.8760  -22.0090 C.3   246  TYR246      0.1605
    110  C         26.0270   -9.2040  -22.4290 C.2   246  TYR246      0.2264
    111  O         26.0100   -8.3870  -23.3550 O.2   246  TYR246     -0.2867
    112  CB        27.7940   -9.3670  -20.6360 C.3   246  TYR246      0.0534
    113  CG        27.8560   -7.8550  -20.5500 C.ar  246  TYR246     -0.0201
    114  CD1       26.7530   -7.1160  -20.1160 C.ar  246  TYR246     -0.0009
    115  CD2       29.0100   -7.1640  -20.9250 C.ar  246  TYR246     -0.0009
    116  CE1       26.8000   -5.7250  -20.0570 C.ar  246  TYR246      0.0417
    117  CE2       29.0650   -5.7810  -20.8630 C.ar  246  TYR246      0.0417
    118  CZ        27.9620   -5.0700  -20.4350 C.ar  246  TYR246      0.1957
    119  OH        28.0240   -3.6980  -20.3790 O.3   246  TYR246     -0.2866
    120  N         21.9080   -7.7140  -20.8190 N.3   248  HIS248     -0.1241
    121  CA        21.0940   -7.3580  -19.6590 C.3   248  HIS248      0.1621
    122  C         19.8020   -8.1450  -19.6680 C.2   248  HIS248      0.2264
    123  O         19.1730   -8.3000  -20.7130 O.2   248  HIS248     -0.2867
    124  CB        20.7930   -5.8570  -19.6130 C.3   248  HIS248      0.0745
    125  CG        21.9100   -5.0350  -19.0550 C.ar  248  HIS248      0.0817
    126  ND1       22.1770   -4.9620  -17.7040 N.ar  248  HIS248     -0.2268
    127  CD2       22.8320   -4.2540  -19.6640 C.ar  248  HIS248      0.1154
    128  CE1       23.2130   -4.1670  -17.5060 C.ar  248  HIS248      0.1986
    129  NE2       23.6300   -3.7250  -18.6790 N.ar  248  HIS248     -0.2212
    130  N         28.9050  -15.7050  -13.1710 N.3   274  ALA274     -0.1245
    131  CA        29.3000  -14.3170  -12.9320 C.3   274  ALA274      0.1562
    132  C         28.6200  -13.7050  -11.7020 C.2   274  ALA274      0.2260
    133  O         29.1450  -12.7560  -11.1090 O.2   274  ALA274     -0.2867
    134  CB        29.0550  -13.4590  -14.1770 C.3   274  ALA274      0.0290
    135  N         25.9070  -11.8810  -11.2620 N.3   276  GLU276     -0.1245
    136  CA        25.5520  -10.4650  -11.4090 C.3   276  GLU276      0.1567
    137  C         24.0650  -10.2490  -11.6950 C.2   276  GLU276      0.2260
    138  O         23.5430  -10.7560  -12.6880 O.2   276  GLU276     -0.2867
    139  CB        26.3790   -9.8180  -12.5270 C.3   276  GLU276      0.0388
    140  CG        27.8720   -9.7050  -12.2480 C.3   276  GLU276      0.1160
    141  CD        28.2210   -8.5730  -11.2910 C.2   276  GLU276      0.3649
    142  OE1       27.3470   -7.7180  -11.0070 O.co2 276  GLU276     -0.2457
    143  OE2       29.3840   -8.5360  -10.8350 O.co2 276  GLU276     -0.2457
    144  N         22.4890   -9.1340  -15.3260 N.3   279  ILE279     -0.1245
    145  CA        23.5740   -9.3620  -16.2740 C.3   279  ILE279      0.1561
    146  C         23.7860  -10.8520  -16.4810 C.2   279  ILE279      0.2260
    147  O         23.8750  -11.6080  -15.5100 O.2   279  ILE279     -0.2867
    148  CB        24.9250   -8.7640  -15.7600 C.3   279  ILE279      0.0252
    149  CG1       24.7960   -7.2780  -15.3990 C.3   279  ILE279      0.0019
    150  CG2       26.0580   -9.0030  -16.7610 C.3   279  ILE279      0.0019
    151  CD1       25.0160   -6.3470  -16.5510 C.3   279  ILE279      0.0001
    152  N         26.6220  -13.1700  -18.7020 N.3   281  ALA281     -0.1245
    153  CA        27.7570  -13.3280  -19.6090 C.3   281  ALA281      0.1562
    154  C         27.2720  -14.0740  -20.8460 C.2   281  ALA281      0.2260
    155  O         26.3180  -14.8490  -20.7630 O.2   281  ALA281     -0.2867
    156  CB        28.8680  -14.1050  -18.9290 C.3   281  ALA281      0.0290
    157  N         34.2880   -5.4110  -23.7350 N.3   339  TRP339     -0.1241
    158  CA        34.0490   -5.6970  -22.3210 C.3   339  TRP339      0.1605
    159  C         33.1450   -6.9310  -22.2210 C.2   339  TRP339      0.2264
    160  O         31.9600   -6.8470  -22.5290 O.2   339  TRP339     -0.2867
    161  CB        33.4220   -4.5070  -21.5760 C.3   339  TRP339      0.0550
    162  CG        33.3840   -4.7440  -20.0870 C.ar  339  TRP339      0.0003
    163  CD1       32.4720   -5.5020  -19.3940 C.ar  339  TRP339      0.0946
    164  CD2       34.3280   -4.2710  -19.1150 C.ar  339  TRP339      0.0152
    165  NE1       32.7860   -5.5130  -18.0530 N.ar  339  TRP339     -0.2442
    166  CE2       33.9190   -4.7670  -17.8550 C.ar  339  TRP339      0.0810
    167  CE3       35.4740   -3.4670  -19.1850 C.ar  339  TRP339      0.0012
    168  CZ2       34.6170   -4.4840  -16.6740 C.ar  339  TRP339      0.0191
    169  CZ3       36.1700   -3.1890  -18.0090 C.ar  339  TRP339      0.0001
    170  CH2       35.7350   -3.6950  -16.7710 C.ar  339  TRP339      0.0015
    171  N         34.0590  -12.8370  -20.3080 N.3   343  LEU343     -0.1245
    172  CA        32.6160  -13.0500  -20.4810 C.3   343  LEU343      0.1561
    173  C         32.2570  -13.7250  -21.8130 C.2   343  LEU343      0.2260
    174  O         31.1550  -14.2590  -21.9690 O.2   343  LEU343     -0.2867
    175  CB        31.8460  -11.7350  -20.3170 C.3   343  LEU343      0.0270
    176  CG        32.0740  -10.9380  -19.0250 C.3   343  LEU343      0.0019
    177  CD1       31.5410   -9.5170  -19.1610 C.3   343  LEU343      0.0001
    178  CD2       31.4650  -11.6360  -17.8080 C.3   343  LEU343      0.0001
@<TRIPOS>BOND
     1    88    89    1
     2    80    81    1
     3    82    81    1
     4    82    83    2
     5    95    97   ar
     6    95    93   ar
     7    89    92    1
     8    89    90    1
     9   157   158    1
    10    81    84    1
    11    92    93    1
    12    97    98   ar
    13   111   110    2
    14    93    94   ar
    15   108   109    1
    16   160   159    2
    17    90    91    2
    18    90   100   am
    19   110   109    1
    20   158   159    1
    21   158   161    1
    22    98    99    1
    23    98    96   ar
    24    84    85    1
    25   109   112    1
    26   174   173    2
    27   100   101    1
    28   173   172    1
    29    94    96   ar
    30   161   162    1
    31    85    86    1
    32   102   101    1
    33   102   103    2
    34   115   117   ar
    35   115   113   ar
    36   117   118   ar
    37   154   155    2
    38   154   153    1
    39   120   121    1
    40   101   104    1
    41   123   122    2
    42   112   113    1
    43   113   114   ar
    44   172   175    1
    45   172   171    1
    46   118   119    1
    47   118   116   ar
    48   175   176    1
    49   114   116   ar
    50   162   163   ar
    51   162   164   ar
    52   122   121    1
    53   127   125   ar
    54   127   129   ar
    55   121   124    1
    56    86    87    1
    57   124   125    1
    58   153   156    1
    59   153   152    1
    60   104   105    1
    61   163   165   ar
    62   106   105   ar
    63   167   164   ar
    64   167   169   ar
    65   105   107   ar
    66   177   176    1
    67   164   166   ar
    68   125   126   ar
    69   176   178    1
    70   129   128   ar
    71   165   166   ar
    72   169   170   ar
    73   166   168   ar
    74   126   128   ar
    75    77    75   ar
    76    77    78   ar
    77    79    78    1
    78    75    73   ar
    79    57    56   ar
    80    78    76   ar
    81   170   168   ar
    82   150   148    1
    83   151   149    1
    84   146   145    1
    85   146   147    2
    86    56    55    1
    87    56    58   ar
    88    51    52    1
    89   145   148    1
    90   145   144    1
    91    52    55    1
    92    52    53    1
    93    73    72    1
    94    73    74   ar
    95    76    74   ar
    96    67    65   ar
    97   148   149    1
    98    72    69    1
    99    24    23    1
   100    65    64    1
   101    65    66   ar
   102    64    63    1
   103    53    54    2
   104    35    36   ar
   105    35    33   ar
   106    36    34   ar
   107    69    70    1
   108    69    68    1
   109    23    25    1
   110    23    22    2
   111    63    60    1
   112   134   131    1
   113    60    59    1
   114    60    61    1
   115    70    71    2
   116    33    31   ar
   117    34    32   ar
   118    49    47   ar
   119    49    50   ar
   120    21    22    1
   121    21    20    1
   122    68    61   am
   123   130   131    1
   124    47    44   ar
   125    61    62    2
   126    14    12   ar
   127    14    13   ar
   128    12    10   ar
   129   131   132    1
   130    31    32   ar
   131    31    30    1
   132    50    48   ar
   133   138   137    2
   134   139   140    1
   135   139   136    1
   136    26    27    1
   137    27    30    1
   138    27    28    1
   139    13    11   ar
   140   140   141    1
   141    10     9   ar
   142    10     8   ar
   143    20    19    1
   144     9     7   ar
   145    44    42   ar
   146    44    46   ar
   147    19    16    1
   148    37    38    1
   149   132   133    2
   150   137   136    1
   151    41    42    1
   152    41    38    1
   153    48    46   ar
   154    11     8   ar
   155   136   135    1
   156     8     6   ar
   157    28    29    2
   158    42    43   ar
   159   141   142   ar
   160   141   143   ar
   161    38    39    1
   162    46    45   ar
   163     1     2    1
   164     7     6   ar
   165     3     2    1
   166     3     4    2
   167     6     5    1
   168    18    17    2
   169    16    17    1
   170    16    15    1
   171     2     5    1
   172    43    45   ar
   173    39    40    2
