@<TRIPOS>MOLECULE
tmp/3rmeA00.pdb
 165 162 0 0 0
SMALL
GASTEIGER

@<TRIPOS>ATOM
      1  N          7.7440   52.9790   74.4720 N.3     6  TYR6       -0.1241
      2  CA         7.8460   52.6000   73.0640 C.3     6  TYR6        0.1605
      3  C          7.9010   53.8340   72.1700 C.2     6  TYR6        0.2264
      4  O          7.1200   54.7730   72.3410 O.2     6  TYR6       -0.2867
      5  CB         6.6630   51.7260   72.6390 C.3     6  TYR6        0.0534
      6  CG         6.7490   50.2760   73.0660 C.ar    6  TYR6       -0.0201
      7  CD1        7.3210   49.3150   72.2280 C.ar    6  TYR6       -0.0009
      8  CD2        6.2420   49.8620   74.2950 C.ar    6  TYR6       -0.0009
      9  CE1        7.3930   47.9810   72.6110 C.ar    6  TYR6        0.0417
     10  CE2        6.3050   48.5310   74.6900 C.ar    6  TYR6        0.0417
     11  CZ         6.8790   47.5960   73.8450 C.ar    6  TYR6        0.1957
     12  OH         6.9480   46.2810   74.2390 O.3     6  TYR6       -0.2866
     13  N          7.2010   55.2460   62.4930 N.3    10  TRP10      -0.1241
     14  CA         6.2940   55.8720   61.5260 C.3    10  TRP10       0.1605
     15  C          5.7470   57.2180   62.0230 C.2    10  TRP10       0.2264
     16  O          5.0670   57.9350   61.2800 O.2    10  TRP10      -0.2867
     17  CB         5.1540   54.9230   61.1460 C.3    10  TRP10       0.0550
     18  CG         4.2890   54.5090   62.2940 C.ar   10  TRP10       0.0003
     19  CD1        3.1550   55.1320   62.7330 C.ar   10  TRP10       0.0946
     20  CD2        4.4790   53.3710   63.1420 C.ar   10  TRP10       0.0152
     21  NE1        2.6300   54.4560   63.8100 N.ar   10  TRP10      -0.2442
     22  CE2        3.4210   53.3680   64.0790 C.ar   10  TRP10       0.0810
     23  CE3        5.4430   52.3520   63.2020 C.ar   10  TRP10       0.0012
     24  CZ2        3.2980   52.3850   65.0660 C.ar   10  TRP10       0.0191
     25  CZ3        5.3220   51.3740   64.1850 C.ar   10  TRP10       0.0001
     26  CH2        4.2540   51.3980   65.1030 C.ar   10  TRP10       0.0015
     27  N          9.4160   49.3680   64.6340 N.3    37  PHE37      -0.1241
     28  CA         9.7010   47.9350   64.7840 C.3    37  PHE37       0.1605
     29  C         10.8620   47.5140   63.8810 C.2    37  PHE37       0.2264
     30  O         11.1900   48.2110   62.9190 O.2    37  PHE37      -0.2867
     31  CB         8.4970   47.1000   64.3310 C.3    37  PHE37       0.0534
     32  CG         7.3170   47.1580   65.2540 C.ar   37  PHE37      -0.0203
     33  CD1        6.1340   47.7690   64.8420 C.ar   37  PHE37      -0.0042
     34  CD2        7.3700   46.5800   66.5180 C.ar   37  PHE37      -0.0042
     35  CE1        5.0260   47.8170   65.6870 C.ar   37  PHE37      -0.0003
     36  CE2        6.2660   46.6240   67.3690 C.ar   37  PHE37      -0.0003
     37  CZ         5.0950   47.2440   66.9540 C.ar   37  PHE37      -0.0000
     38  N          5.2720   43.0380   65.7010 N.3    77  GLY77      -0.1210
     39  CA         4.1200   43.9350   65.7540 C.3    77  GLY77       0.1956
     40  C          2.9160   43.3330   65.0520 C.2    77  GLY77       0.2612
     41  O          3.0080   42.2510   64.4670 O.2    77  GLY77      -0.2717
     42  N          1.7930   44.0480   65.0990 N.am   78  TRP78      -0.1962
     43  CA         0.5160   43.5570   64.5670 C.3    78  TRP78       0.1771
     44  C          0.5550   43.2140   63.0790 C.2    78  TRP78       0.2619
     45  O          0.2690   42.0740   62.6960 O.2    78  TRP78      -0.2715
     46  CB        -0.6110   44.5570   64.8590 C.3    78  TRP78       0.0590
     47  CG        -1.9690   44.0960   64.4050 C.ar   78  TRP78       0.0006
     48  CD1       -2.6170   44.4610   63.2590 C.ar   78  TRP78       0.0946
     49  CD2       -2.8410   43.1840   65.0860 C.ar   78  TRP78       0.0152
     50  NE1       -3.8380   43.8310   63.1830 N.ar   78  TRP78      -0.2442
     51  CE2       -4.0020   43.0460   64.2930 C.ar   78  TRP78       0.0810
     52  CE3       -2.7540   42.4710   66.2890 C.ar   78  TRP78       0.0012
     53  CZ2       -5.0710   42.2230   64.6650 C.ar   78  TRP78       0.0191
     54  CZ3       -3.8190   41.6530   66.6600 C.ar   78  TRP78       0.0001
     55  CH2       -4.9620   41.5390   65.8480 C.ar   78  TRP78       0.0015
     56  N          0.9100   44.1960   62.2480 N.am   79  ASN79      -0.1972
     57  CA         0.9240   44.0060   60.7930 C.3    79  ASN79       0.1688
     58  C          1.9290   42.9530   60.3220 C.2    79  ASN79       0.2292
     59  O          1.6860   42.2560   59.3370 O.2    79  ASN79      -0.2864
     60  CB         1.1340   45.3380   60.0630 C.3    79  ASN79       0.1181
     61  CG        -0.1360   46.1700   59.9870 C.2    79  ASN79       0.2629
     62  OD1       -1.2450   45.6570   60.1570 O.2    79  ASN79      -0.2716
     63  ND2        0.0200   47.4630   59.7200 N.am   79  ASN79      -0.0877
     64  N          7.8400   41.0690   69.8100 N.3   117  ASP117     -0.1239
     65  CA         6.4520   41.5050   69.6410 C.3   117  ASP117      0.1674
     66  C          5.7180   40.5780   68.6740 C.2   117  ASP117      0.2266
     67  O          5.1450   41.0160   67.6740 O.2   117  ASP117     -0.2867
     68  CB         6.3820   42.9740   69.1890 C.3   117  ASP117      0.1410
     69  CG         6.8620   43.9430   70.2650 C.2   117  ASP117      0.3668
     70  OD1        7.7030   43.5500   71.0930 O.co2 117  ASP117     -0.2456
     71  OD2        6.4050   45.1030   70.2870 O.co2 117  ASP117     -0.2456
     72  N          2.7340   38.6160   67.7460 N.3   119  GLU119     -0.1245
     73  CA         1.3120   38.7080   68.0440 C.3   119  GLU119      0.1567
     74  C          0.5060   37.7330   67.1740 C.2   119  GLU119      0.2260
     75  O          0.1230   38.0810   66.0530 O.2   119  GLU119     -0.2867
     76  CB         0.8170   40.1570   67.8680 C.3   119  GLU119      0.0388
     77  CG         1.5100   41.1710   68.7950 C.3   119  GLU119      0.1160
     78  CD         1.2590   42.6290   68.4170 C.2   119  GLU119      0.3649
     79  OE1        0.1810   42.9490   67.8690 O.co2 119  GLU119     -0.2457
     80  OE2        2.1490   43.4630   68.6880 O.co2 119  GLU119     -0.2457
     81  N          6.6150   41.7350   74.4300 N.3   162  ALA162     -0.1245
     82  CA         5.2670   42.2700   74.5510 C.3   162  ALA162      0.1562
     83  C          4.3110   41.0830   74.4360 C.2   162  ALA162      0.2260
     84  O          4.4160   40.2860   73.4980 O.2   162  ALA162     -0.2867
     85  CB         4.9950   43.3000   73.4660 C.3   162  ALA162      0.0290
     86  N          0.3360   43.8650   77.4060 N.3   189  MET189     -0.1245
     87  CA        -0.4080   44.8120   76.5820 C.3   189  MET189      0.1570
     88  C         -1.8050   45.0830   77.1510 C.2   189  MET189      0.2261
     89  O         -2.8190   44.7990   76.5070 O.2   189  MET189     -0.2867
     90  CB        -0.4820   44.2990   75.1370 C.3   189  MET189      0.0387
     91  CG         0.8960   44.1240   74.4820 C.3   189  MET189      0.0595
     92  SD         0.8940   43.0320   73.0470 S.3   189  MET189     -0.1393
     93  CE         0.0220   44.0480   71.8450 C.3   189  MET189      0.0692
     94  N         -4.1870   47.1170   77.2950 N.3   191  TYR191     -0.1227
     95  CA        -4.9380   48.1640   76.6150 C.3   191  TYR191      0.1736
     96  C         -5.5670   47.5460   75.3680 C.2   191  TYR191      0.2595
     97  O         -5.4380   46.3360   75.1480 O.2   191  TYR191     -0.2718
     98  CB        -4.0600   49.3850   76.2820 C.3   191  TYR191      0.0548
     99  CG        -2.6460   49.0830   75.8210 C.ar  191  TYR191     -0.0200
    100  CD1       -2.4030   48.2010   74.7650 C.ar  191  TYR191     -0.0009
    101  CD2       -1.5530   49.7100   76.4220 C.ar  191  TYR191     -0.0009
    102  CE1       -1.1070   47.9280   74.3410 C.ar  191  TYR191      0.0417
    103  CE2       -0.2540   49.4510   75.9980 C.ar  191  TYR191      0.0417
    104  CZ        -0.0410   48.5630   74.9560 C.ar  191  TYR191      0.1957
    105  OH         1.2380   48.3130   74.5250 O.3   191  TYR191     -0.2866
    106  N         -6.2470   48.3610   74.5610 N.am  192  ASP192     -0.1974
    107  CA        -7.0850   47.8500   73.4650 C.3   192  ASP192      0.1709
    108  C         -8.0640   46.7890   73.9900 C.2   192  ASP192      0.2293
    109  O         -8.4260   45.8450   73.2790 O.2   192  ASP192     -0.2864
    110  CB        -6.2270   47.2960   72.3150 C.3   192  ASP192      0.1436
    111  CG        -5.1920   48.2940   71.8190 C.2   192  ASP192      0.3671
    112  OD1       -5.5350   49.4840   71.6400 O.co2 192  ASP192     -0.2456
    113  OD2       -4.0300   47.8840   71.6080 O.co2 192  ASP192     -0.2456
    114  N         -2.9910   57.0160   74.4250 N.3   246  TYR246     -0.1241
    115  CA        -3.9800   57.1800   73.3680 C.3   246  TYR246      0.1605
    116  C         -5.2980   56.5950   73.8600 C.2   246  TYR246      0.2264
    117  O         -5.3340   55.8900   74.8770 O.2   246  TYR246     -0.2867
    118  CB        -3.5360   56.4310   72.1040 C.3   246  TYR246      0.0534
    119  CG        -3.5270   54.9210   72.2780 C.ar  246  TYR246     -0.0201
    120  CD1       -4.6290   54.1430   71.9010 C.ar  246  TYR246     -0.0009
    121  CD2       -2.4310   54.2760   72.8510 C.ar  246  TYR246     -0.0009
    122  CE1       -4.6250   52.7530   72.0810 C.ar  246  TYR246      0.0417
    123  CE2       -2.4180   52.8980   73.0370 C.ar  246  TYR246      0.0417
    124  CZ        -3.5120   52.1450   72.6470 C.ar  246  TYR246      0.1957
    125  OH        -3.4810   50.7840   72.8360 O.3   246  TYR246     -0.2866
    126  N         -9.4110   54.9690   72.3930 N.3   248  HIS248     -0.1241
    127  CA       -10.2340   54.4850   71.2880 C.3   248  HIS248      0.1621
    128  C        -11.5300   55.2690   71.2150 C.2   248  HIS248      0.2264
    129  O        -12.1980   55.4770   72.2320 O.2   248  HIS248     -0.2867
    130  CB       -10.5470   52.9930   71.4350 C.3   248  HIS248      0.0745
    131  CG        -9.4350   52.0960   70.9900 C.ar  248  HIS248      0.0817
    132  ND1       -9.1430   51.8760   69.6610 N.ar  248  HIS248     -0.2268
    133  CD2       -8.5480   51.3590   71.6980 C.ar  248  HIS248      0.1154
    134  CE1       -8.1190   51.0450   69.5700 C.ar  248  HIS248      0.1986
    135  NE2       -7.7390   50.7170   70.7930 N.ar  248  HIS248     -0.2212
    136  N         -8.6490   55.5990   66.7060 N.3   279  ILE279     -0.1245
    137  CA        -7.6270   55.9080   67.7040 C.3   279  ILE279      0.1561
    138  C         -7.2930   57.4010   67.6970 C.2   279  ILE279      0.2260
    139  O         -7.0560   57.9820   66.6360 O.2   279  ILE279     -0.2867
    140  CB        -6.3160   55.0970   67.4560 C.3   279  ILE279      0.0252
    141  CG1       -6.5260   53.6110   67.7580 C.3   279  ILE279      0.0019
    142  CG2       -5.1510   55.6530   68.2910 C.3   279  ILE279      0.0019
    143  CD1       -5.3800   52.7170   67.2930 C.3   279  ILE279      0.0001
    144  N          5.1540   50.1790   81.3140 N.3   337  MET337     -0.1245
    145  CA         5.5500   50.4670   79.9380 C.3   337  MET337      0.1570
    146  C          4.4900   51.3400   79.2760 C.2   337  MET337      0.2261
    147  O          3.3190   51.3220   79.6690 O.2   337  MET337     -0.2867
    148  CB         5.8580   49.1940   79.1330 C.3   337  MET337      0.0387
    149  CG         4.6740   48.2900   78.8330 C.3   337  MET337      0.0595
    150  SD         3.7220   48.7830   77.3790 S.3   337  MET337     -0.1393
    151  CE         2.9560   47.2090   77.0030 C.3   337  MET337      0.0692
    152  N          2.8080   52.8450   75.6210 N.3   339  TRP339     -0.1241
    153  CA         2.5960   52.9900   74.1880 C.3   339  TRP339      0.1605
    154  C          1.7440   54.2310   73.9290 C.2   339  TRP339      0.2264
    155  O          0.5610   54.2390   74.2830 O.2   339  TRP339     -0.2867
    156  CB         1.9010   51.7610   73.5920 C.3   339  TRP339      0.0550
    157  CG         1.8700   51.8230   72.0920 C.ar  339  TRP339      0.0003
    158  CD1        1.0400   52.5830   71.3190 C.ar  339  TRP339      0.0946
    159  CD2        2.7230   51.1150   71.1880 C.ar  339  TRP339      0.0152
    160  NE1        1.3190   52.3870   69.9860 N.ar  339  TRP339     -0.2442
    161  CE2        2.3480   51.4900   69.8780 C.ar  339  TRP339      0.0810
    162  CE3        3.7660   50.1940   71.3560 C.ar  339  TRP339      0.0012
    163  CZ2        2.9790   50.9760   68.7410 C.ar  339  TRP339      0.0191
    164  CZ3        4.3960   49.6850   70.2270 C.ar  339  TRP339      0.0001
    165  CH2        3.9980   50.0790   68.9340 C.ar  339  TRP339      0.0015
@<TRIPOS>BOND
     1    59    58    2
     2    63    61   am
     3    61    60    1
     4    61    62    2
     5    60    57    1
     6    58    57    1
     7    57    56    1
     8    17    14    1
     9    17    18    1
    10    16    15    2
    11    14    15    1
    12    14    13    1
    13    56    44   am
    14    18    19   ar
    15    18    20   ar
    16    45    44    2
    17    19    21   ar
    18    30    29    2
    19    44    43    1
    20    20    23   ar
    21    20    22   ar
    22    50    48   ar
    23    50    51   ar
    24    23    25   ar
    25    48    47   ar
    26    21    22   ar
    27    29    28    1
    28    22    24   ar
    29    25    26   ar
    30    51    53   ar
    31    51    49   ar
    32    31    28    1
    33    31    32    1
    34    47    46    1
    35    47    49   ar
    36    41    40    2
    37    43    46    1
    38    43    42    1
    39    27    28    1
    40    53    55   ar
    41    33    32   ar
    42    33    35   ar
    43    40    42   am
    44    40    39    1
    45    24    26   ar
    46    49    52   ar
    47    32    34   ar
    48    35    37   ar
    49    38    39    1
    50    55    54   ar
    51    75    74    2
    52    52    54   ar
    53    34    36   ar
    54   139   138    2
    55   136   137    1
    56    37    36   ar
    57    74    73    1
    58   143   141    1
    59   140   137    1
    60   140   141    1
    61   140   142    1
    62    67    66    2
    63   138   137    1
    64    72    73    1
    65    76    73    1
    66    76    77    1
    67    79    78   ar
    68    78    80   ar
    69    78    77    1
    70    66    65    1
    71   163   165   ar
    72   163   161   ar
    73   165   164   ar
    74    68    65    1
    75    68    69    1
    76   134   132   ar
    77   134   135   ar
    78    65    64    1
    79   132   131   ar
    80   161   160   ar
    81   161   159   ar
    82   160   158   ar
    83   164   162   ar
    84    69    71   ar
    85    69    70   ar
    86   135   133   ar
    87   131   130    1
    88   131   133   ar
    89   159   162   ar
    90   159   157   ar
    91   128   127    1
    92   128   129    2
    93   127   130    1
    94   127   126    1
    95   158   157   ar
    96   113   111   ar
    97   112   111   ar
    98   111   110    1
    99    93    92    1
   100   120   122   ar
   101   120   119   ar
   102   122   124   ar
   103   157   156    1
   104   118   119    1
   105   118   115    1
   106     3     4    2
   107     3     2    1
   108     7     9   ar
   109     7     6   ar
   110   119   121   ar
   111   110   107    1
   112     9    11   ar
   113     5     2    1
   114     5     6    1
   115   124   125    1
   116   124   123   ar
   117   121   123   ar
   118    92    91    1
   119     2     1    1
   120     6     8   ar
   121   109   108    2
   122   115   116    1
   123   115   114    1
   124   107   108    1
   125   107   106    1
   126    85    82    1
   127    84    83    2
   128   156   153    1
   129    11    12    1
   130    11    10   ar
   131   116   117    2
   132   154   153    1
   133   154   155    2
   134   153   152    1
   135     8    10   ar
   136   102   100   ar
   137   102   104   ar
   138    81    82    1
   139    83    82    1
   140    91    90    1
   141   105   104    1
   142   106    96   am
   143   100    99   ar
   144   104   103   ar
   145    90    87    1
   146    97    96    2
   147    96    95    1
   148    99    98    1
   149    99   101   ar
   150   103   101   ar
   151    98    95    1
   152    89    88    2
   153    87    88    1
   154    87    86    1
   155    95    94    1
   156   151   150    1
   157   150   149    1
   158   149   148    1
   159   148   145    1
   160   146   147    2
   161   146   145    1
   162   145   144    1
