@<TRIPOS>MOLECULE
tmp/3rmfA00.pdb
 179 170 0 0 0
SMALL
GASTEIGER

@<TRIPOS>ATOM
      1  N         94.6260   84.7340  -42.8580 N.3    10  ILE10      -0.1231
      2  CA        93.4430   83.9230  -43.1300 C.3    10  ILE10       0.1692
      3  C         93.6530   82.4270  -42.9270 C.2    10  ILE10       0.2593
      4  O         92.7270   81.6340  -43.0930 O.2    10  ILE10      -0.2718
      5  CB        92.9250   84.1620  -44.5670 C.3    10  ILE10       0.0266
      6  CG1       93.9920   83.7780  -45.5890 C.3    10  ILE10       0.0019
      7  CG2       92.5480   85.6160  -44.7430 C.3    10  ILE10       0.0020
      8  CD1       93.5730   84.0290  -47.0350 C.3    10  ILE10       0.0001
      9  N         94.8690   82.0400  -42.5600 N.am   11  GLY11      -0.1942
     10  CA        95.1390   80.6300  -42.3530 C.3    11  GLY11       0.2014
     11  C         96.5810   80.3320  -42.0090 C.2    11  GLY11       0.2639
     12  O         97.4370   81.2220  -41.9950 O.2    11  GLY11      -0.2714
     13  N         96.8540   79.0630  -41.7380 N.am   12  GLU12      -0.1963
     14  CA        98.1970   78.6510  -41.3810 C.3    12  GLU12       0.1733
     15  C         98.3650   77.1600  -41.6270 C.2    12  GLU12       0.2616
     16  O         97.6190   76.3440  -41.0850 O.2    12  GLU12      -0.2715
     17  CB        98.4520   78.9820  -39.9080 C.3    12  GLU12       0.0429
     18  CG        99.9100   78.9680  -39.4950 C.3    12  GLU12       0.1163
     19  CD       100.1350   79.6920  -38.1820 C.2    12  GLU12       0.3649
     20  OE1       99.7490   80.8780  -38.0890 O.co2  12  GLU12      -0.2457
     21  OE2      100.6970   79.0820  -37.2470 O.co2  12  GLU12      -0.2457
     22  N         99.3380   76.8150  -42.4640 N.am   13  GLY13      -0.1955
     23  CA        99.5970   75.4190  -42.7600 C.3    13  GLY13       0.1869
     24  C        100.7590   74.9230  -41.9230 C.2    13  GLY13       0.2309
     25  O        101.1330   75.5570  -40.9330 O.2    13  GLY13      -0.2863
     26  N        103.7110   77.2210  -43.5780 N.3    16  GLY16      -0.1225
     27  CA       103.6910   78.6650  -43.4240 C.3    16  GLY16       0.1811
     28  C        102.3510   79.3310  -43.1730 C.2    16  GLY16       0.2280
     29  O        101.3280   78.6700  -43.0050 O.2    16  GLY16      -0.2866
     30  N         99.3030   82.0660  -44.3340 N.3    18  VAL18      -0.1245
     31  CA        98.6680   82.6270  -45.5130 C.3    18  VAL18       0.1561
     32  C         97.9080   83.8970  -45.1450 C.2    18  VAL18       0.2260
     33  O         97.1790   83.9500  -44.1500 O.2    18  VAL18      -0.2867
     34  CB        97.7200   81.6080  -46.1890 C.3    18  VAL18       0.0252
     35  CG1       96.6360   81.1660  -45.2210 C.3    18  VAL18       0.0019
     36  CG2       97.1120   82.2310  -47.4470 C.3    18  VAL18       0.0019
     37  N         96.0100   85.7760  -52.2970 N.3    31  ALA31      -0.1245
     38  CA        96.2740   85.0020  -51.0940 C.3    31  ALA31       0.1562
     39  C         97.7940   84.8710  -51.1500 C.2    31  ALA31       0.2260
     40  O         98.3430   84.4400  -52.1630 O.2    31  ALA31      -0.2867
     41  CB        95.6320   83.6410  -51.1700 C.3    31  ALA31       0.0290
     42  N        101.1150   83.2170  -49.3070 N.3    33  LYS33      -0.1245
     43  CA       101.6210   82.2630  -48.3300 C.3    33  LYS33       0.1561
     44  C        103.0920   82.5500  -48.0690 C.2    33  LYS33       0.2260
     45  O        103.8910   82.6350  -49.0020 O.2    33  LYS33      -0.2867
     46  CB       101.4610   80.8310  -48.8420 C.3    33  LYS33       0.0271
     47  CG       101.8220   79.7610  -47.8070 C.3    33  LYS33       0.0035
     48  CD       101.7470   78.3600  -48.4120 C.3    33  LYS33       0.0206
     49  CE       101.9570   77.2900  -47.3470 C.3    33  LYS33       0.1093
     50  NZ       102.0660   75.9350  -47.9720 N.3    33  LYS33      -0.1314
     51  N         93.4620   76.0390  -57.6270 N.3    57  VAL57      -0.1245
     52  CA        93.7830   77.4380  -57.3410 C.3    57  VAL57       0.1561
     53  C         95.0420   77.8120  -58.1280 C.2    57  VAL57       0.2260
     54  O         96.0540   77.1100  -58.0870 O.2    57  VAL57      -0.2867
     55  CB        94.0010   77.6750  -55.8140 C.3    57  VAL57       0.0252
     56  CG1       94.4350   79.1220  -55.5460 C.3    57  VAL57       0.0019
     57  CG2       92.7070   77.4150  -55.0700 C.3    57  VAL57       0.0019
     58  N         98.8450   83.4050  -54.7430 N.3    73  PHE73      -0.1227
     59  CA        97.7380   82.6810  -55.3510 C.3    73  PHE73       0.1736
     60  C         96.5510   83.5860  -55.6200 C.2    73  PHE73       0.2595
     61  O         96.3780   84.6220  -54.9810 O.2    73  PHE73      -0.2718
     62  CB        97.2410   81.5710  -54.4090 C.3    73  PHE73       0.0547
     63  CG        98.2700   80.5290  -54.0740 C.ar   73  PHE73      -0.0202
     64  CD1       98.5230   79.4770  -54.9430 C.ar   73  PHE73      -0.0042
     65  CD2       98.9570   80.5830  -52.8690 C.ar   73  PHE73      -0.0042
     66  CE1       99.4490   78.4830  -54.6130 C.ar   73  PHE73      -0.0003
     67  CE2       99.8850   79.5980  -52.5300 C.ar   73  PHE73      -0.0003
     68  CZ       100.1280   78.5470  -53.4030 C.ar   73  PHE73      -0.0000
     69  N         95.7300   83.1780  -56.5770 N.am   74  GLU74      -0.1965
     70  CA        94.5080   83.9070  -56.8650 C.3    74  GLU74       0.1733
     71  C         93.7150   83.7430  -55.5640 C.2    74  GLU74       0.2616
     72  O         93.8070   82.7070  -54.8920 O.2    74  GLU74      -0.2715
     73  CB        93.7580   83.2490  -58.0200 C.3    74  GLU74       0.0429
     74  CG        93.3150   81.8290  -57.7220 C.3    74  GLU74       0.1163
     75  CD        92.3650   81.2890  -58.7710 C.2    74  GLU74       0.3649
     76  OE1       91.4440   82.0290  -59.1750 O.co2  74  GLU74      -0.2457
     77  OE2       92.5280   80.1310  -59.1880 O.co2  74  GLU74      -0.2457
     78  N         92.9430   84.7560  -55.2070 N.am   75  PHE75      -0.1960
     79  CA        92.1740   84.7290  -53.9680 C.3    75  PHE75       0.1771
     80  C         90.7420   84.2320  -54.1330 C.2    75  PHE75       0.2619
     81  O         90.0240   84.6820  -55.0240 O.2    75  PHE75      -0.2715
     82  CB        92.1640   86.1410  -53.3580 C.3    75  PHE75       0.0574
     83  CG        91.3950   86.2550  -52.0670 C.ar   75  PHE75      -0.0200
     84  CD1       90.0790   86.6980  -52.0610 C.ar   75  PHE75      -0.0042
     85  CD2       92.0000   85.9240  -50.8480 C.ar   75  PHE75      -0.0042
     86  CE1       89.3660   86.8150  -50.8580 C.ar   75  PHE75      -0.0003
     87  CE2       91.3050   86.0360  -49.6470 C.ar   75  PHE75      -0.0003
     88  CZ        89.9790   86.4850  -49.6520 C.ar   75  PHE75      -0.0000
     89  N         90.3470   83.2750  -53.2990 N.am   76  LEU76      -0.1963
     90  CA        88.9660   82.7860  -53.3050 C.3    76  LEU76       0.1728
     91  C         88.3430   83.3000  -52.0150 C.2    76  LEU76       0.2616
     92  O         89.0430   83.5080  -51.0380 O.2    76  LEU76      -0.2715
     93  CB        88.9070   81.2590  -53.4080 C.3    76  LEU76       0.0311
     94  CG        88.8950   80.9230  -54.9080 C.3    76  LEU76       0.0022
     95  CD1       90.3250   80.7580  -55.3810 C.3    76  LEU76       0.0001
     96  CD2       88.0640   79.6810  -55.1940 C.3    76  LEU76       0.0001
     97  N         87.0290   83.5060  -51.9900 N.am   77  HIS77      -0.1959
     98  CA        86.4260   84.0940  -50.8040 C.3    77  HIS77       0.1787
     99  C         86.0510   83.2900  -49.5860 C.2    77  HIS77       0.2620
    100  O         85.8100   83.8760  -48.5290 O.2    77  HIS77      -0.2715
    101  CB        85.2260   84.9550  -51.2040 C.3    77  HIS77       0.0785
    102  CG        85.6040   86.3480  -51.6030 C.ar   77  HIS77       0.0821
    103  ND1       86.2630   86.6340  -52.7800 N.ar   77  HIS77      -0.2267
    104  CD2       85.4440   87.5320  -50.9640 C.ar   77  HIS77       0.1154
    105  CE1       86.4900   87.9340  -52.8480 C.ar   77  HIS77       0.1986
    106  NE2       86.0030   88.5010  -51.7590 N.ar   77  HIS77      -0.2212
    107  N         85.9980   81.9690  -49.6940 N.am   78  GLN78      -0.1963
    108  CA        85.6520   81.1830  -48.5180 C.3    78  GLN78       0.1733
    109  C         86.1360   79.7520  -48.6720 C.2    78  GLN78       0.2616
    110  O         86.2650   79.2670  -49.7950 O.2    78  GLN78      -0.2715
    111  CB        84.1350   81.2150  -48.3080 C.3    78  GLN78       0.0408
    112  CG        83.6510   80.6070  -47.0060 C.3    78  GLN78       0.0908
    113  CD        82.2450   81.0770  -46.6430 C.2    78  GLN78       0.2608
    114  OE1       82.0340   82.2450  -46.2850 O.2    78  GLN78      -0.2717
    115  NE2       81.2780   80.1750  -46.7410 N.am   78  GLN78      -0.0878
    116  N         86.4470   79.0950  -47.5520 N.am   79  ASP79      -0.1971
    117  CA        86.8720   77.7000  -47.6220 C.3    79  ASP79       0.1709
    118  C         85.6860   76.8000  -47.2720 C.2    79  ASP79       0.2293
    119  O         84.6770   77.2610  -46.7220 O.2    79  ASP79      -0.2864
    120  CB        88.0960   77.4060  -46.7230 C.3    79  ASP79       0.1436
    121  CG        87.8170   77.5640  -45.2230 C.2    79  ASP79       0.3671
    122  OD1       86.8320   76.9960  -44.7090 O.co2  79  ASP79      -0.2456
    123  OD2       88.6220   78.2420  -44.5500 O.co2  79  ASP79      -0.2456
    124  N         84.4420   76.5860  -43.4360 N.3    82  LYS82      -0.1245
    125  CA        83.5680   77.6670  -42.9850 C.3    82  LYS82       0.1561
    126  C         82.1650   77.4960  -43.5590 C.2    82  LYS82       0.2260
    127  O         81.1690   77.6660  -42.8540 O.2    82  LYS82      -0.2867
    128  CB        84.1420   79.0280  -43.3980 C.3    82  LYS82       0.0271
    129  CG        83.2820   80.2160  -42.9920 C.3    82  LYS82       0.0035
    130  CD        84.0630   81.5100  -43.1760 C.3    82  LYS82       0.0206
    131  CE        83.3090   82.7330  -42.6740 C.3    82  LYS82       0.1093
    132  NZ        84.1070   83.9810  -42.9240 N.3    82  LYS82      -0.1314
    133  N         91.7540   68.6520  -47.1660 N.3   122  LYS122     -0.1245
    134  CA        90.9000   68.8310  -46.0020 C.3   122  LYS122      0.1561
    135  C         90.0010   70.0140  -46.3170 C.2   122  LYS122      0.2260
    136  O         90.3120   70.8160  -47.2010 O.2   122  LYS122     -0.2867
    137  CB        91.7270   69.0750  -44.7320 C.3   122  LYS122      0.0271
    138  CG        92.7410   70.1880  -44.8010 C.3   122  LYS122      0.0035
    139  CD        93.8190   69.9400  -43.7340 C.3   122  LYS122      0.0206
    140  CE        94.9350   70.9460  -43.7940 C.3   122  LYS122      0.1093
    141  NZ        96.0320   70.5760  -42.8430 N.3   122  LYS122     -0.1314
    142  N         89.5990   72.8400  -45.0430 N.3   124  GLN124     -0.1231
    143  CA        90.2660   74.1430  -45.0150 C.3   124  GLN124      0.1698
    144  C         91.0590   74.5040  -46.2780 C.2   124  GLN124      0.2592
    145  O         91.3100   75.6880  -46.5280 O.2   124  GLN124     -0.2718
    146  CB        91.1370   74.2640  -43.7560 C.3   124  GLN124      0.0381
    147  CG        90.2970   74.4900  -42.5080 C.3   124  GLN124      0.0905
    148  CD        91.0770   74.3240  -41.2280 C.2   124  GLN124      0.2608
    149  OE1       91.5910   73.2460  -40.9410 O.2   124  GLN124     -0.2717
    150  NE2       91.1650   75.3930  -40.4430 N.am  124  GLN124     -0.0878
    151  N         91.4600   73.5200  -47.0840 N.am  125  ASN125     -0.1974
    152  CA        92.1510   73.8870  -48.3190 C.3   125  ASN125      0.1688
    153  C         91.3340   73.6350  -49.5920 C.2   125  ASN125      0.2292
    154  O         91.8850   73.5190  -50.6950 O.2   125  ASN125     -0.2864
    155  CB        93.5610   73.2740  -48.4330 C.3   125  ASN125      0.1181
    156  CG        93.5870   71.7890  -48.2350 C.2   125  ASN125      0.2629
    157  OD1       92.6980   71.0660  -48.6890 O.2   125  ASN125     -0.2716
    158  ND2       94.6400   71.3110  -47.5720 N.am  125  ASN125     -0.0877
    159  N         88.5920   75.5520  -51.5860 N.3   127  LEU127     -0.1245
    160  CA        88.0760   76.9130  -51.6500 C.3   127  LEU127      0.1561
    161  C         86.9410   77.1080  -52.6290 C.2   127  LEU127      0.2260
    162  O         86.9630   76.5580  -53.7310 O.2   127  LEU127     -0.2867
    163  CB        89.2220   77.8620  -52.0050 C.3   127  LEU127      0.0270
    164  CG        90.4630   77.6010  -51.1580 C.3   127  LEU127      0.0019
    165  CD1       91.5790   78.4830  -51.6550 C.3   127  LEU127      0.0001
    166  CD2       90.1660   77.8610  -49.6890 C.3   127  LEU127      0.0001
    167  N         93.4520   73.7650  -53.1290 N.3   137  ALA137     -0.1231
    168  CA        94.4610   74.7400  -52.7350 C.3   137  ALA137      0.1694
    169  C         95.5270   74.1320  -51.8400 C.2   137  ALA137      0.2592
    170  O         95.3620   73.0420  -51.3080 O.2   137  ALA137     -0.2718
    171  CB        93.8120   75.9130  -52.0190 C.3   137  ALA137      0.0304
    172  N         96.6280   74.8560  -51.7000 N.am  138  ASP138     -0.1974
    173  CA        97.7450   74.4560  -50.8550 C.3   138  ASP138      0.1709
    174  C         98.2600   73.0280  -51.0340 C.2   138  ASP138      0.2293
    175  O         98.2640   72.2220  -50.0950 O.2   138  ASP138     -0.2864
    176  CB        97.3790   74.6950  -49.3920 C.3   138  ASP138      0.1436
    177  CG        98.5960   74.7060  -48.4850 C.2   138  ASP138      0.3671
    178  OD1       99.6070   75.3340  -48.8580 O.co2 138  ASP138     -0.2456
    179  OD2       98.5340   74.1000  -47.4000 O.co2 138  ASP138     -0.2456
@<TRIPOS>BOND
     1    77    75   ar
     2    76    75   ar
     3    75    74    1
     4    53    54    2
     5    53    52    1
     6    73    74    1
     7    73    70    1
     8    51    52    1
     9    52    55    1
    10    70    69    1
    11    70    71    1
    12    69    60   am
    13    55    56    1
    14    55    57    1
    15    60    59    1
    16    60    61    2
    17    71    78   am
    18    71    72    2
    19    95    94    1
    20    59    58    1
    21    59    62    1
    22    78    79    1
    23    96    94    1
    24    81    80    2
    25    64    66   ar
    26    64    63   ar
    27    94    93    1
    28    66    68   ar
    29    62    63    1
    30    80    79    1
    31    80    89   am
    32    63    65   ar
    33    79    82    1
    34   162   161    2
    35    93    90    1
    36    68    67   ar
    37    82    83    1
    38    90    89    1
    39    90    91    1
    40   167   168    1
    41    65    67   ar
    42   105   103   ar
    43   105   106   ar
    44   103   102   ar
    45   168   171    1
    46   168   169    1
    47   161   160    1
    48    37    38    1
    49    40    39    2
    50    83    84   ar
    51    83    85   ar
    52    84    86   ar
    53    91    97   am
    54    91    92    2
    55   163   160    1
    56   163   164    1
    57    97    98    1
    58   169   172   am
    59   169   170    2
    60   106   104   ar
    61   172   173    1
    62   165   164    1
    63   160   159    1
    64   102   101    1
    65   102   104   ar
    66   101    98    1
    67    41    38    1
    68   164   166    1
    69    39    38    1
    70   174   173    1
    71   174   175    2
    72    86    88   ar
    73   173   176    1
    74    85    87   ar
    75    98    99    1
    76   154   153    2
    77   110   109    2
    78   107    99   am
    79   107   108    1
    80    88    87   ar
    81   153   152    1
    82    99   100    2
    83   176   177    1
    84    42    43    1
    85    45    44    2
    86   178   177   ar
    87    46    43    1
    88    46    47    1
    89   157   156    2
    90   109   108    1
    91   109   116   am
    92   108   111    1
    93   177   179   ar
    94   155   152    1
    95   155   156    1
    96    48    47    1
    97    48    49    1
    98    43    44    1
    99   152   151    1
   100   111   112    1
   101   156   158   am
   102    50    49    1
   103   117   116    1
   104   117   118    1
   105   117   120    1
   106    36    34    1
   107   118   119    2
   108   136   135    2
   109   133   134    1
   110   151   144   am
   111     8     6    1
   112   112   113    1
   113   115   113   am
   114   120   121    1
   115   113   114    2
   116   145   144    2
   117   135   134    1
   118   144   143    1
   119    34    31    1
   120    34    35    1
   121   134   137    1
   122     6     5    1
   123    31    32    1
   124    31    30    1
   125   121   122   ar
   126   121   123   ar
   127    32    33    2
   128   142   143    1
   129   143   146    1
   130   138   137    1
   131   138   139    1
   132     7     5    1
   133     5     2    1
   134   140   139    1
   135   140   141    1
   136   146   147    1
   137    26    27    1
   138   126   125    1
   139   126   127    2
   140   124   125    1
   141    27    28    1
   142   128   129    1
   143   128   125    1
   144   130   129    1
   145   130   131    1
   146    28    29    2
   147     2     3    1
   148     2     1    1
   149     4     3    2
   150     3     9   am
   151   132   131    1
   152    23    22    1
   153    23    24    1
   154     9    10    1
   155   147   148    1
   156    22    15   am
   157    10    11    1
   158    11    12    2
   159    11    13   am
   160    24    25    2
   161    13    14    1
   162    15    14    1
   163    15    16    2
   164    14    17    1
   165   148   149    2
   166   148   150   am
   167    17    18    1
   168    18    19    1
   169    19    20   ar
   170    19    21   ar
