@<TRIPOS>MOLECULE
tmp/3rmkA01.pdb
 100 98 0 0 0
SMALL
GASTEIGER

@<TRIPOS>ATOM
      1  N         18.6600   75.4630   25.4080 N.3   166  TRP166     -0.1241
      2  CA        18.7310   75.2280   23.9410 C.3   166  TRP166      0.1605
      3  C         18.1330   73.8790   23.5060 C.2   166  TRP166      0.2264
      4  O         17.3740   73.8010   22.5350 O.2   166  TRP166     -0.2867
      5  CB        20.1670   75.3920   23.3870 C.3   166  TRP166      0.0550
      6  CG        21.1140   74.2910   23.8100 C.ar  166  TRP166      0.0003
      7  CD1       21.9820   74.3160   24.8700 C.ar  166  TRP166      0.0946
      8  CD2       21.2750   72.9970   23.1880 C.ar  166  TRP166      0.0152
      9  NE1       22.6730   73.1200   24.9440 N.ar  166  TRP166     -0.2442
     10  CE2       22.2570   72.2970   23.9270 C.ar  166  TRP166      0.0810
     11  CE3       20.6850   72.3680   22.0770 C.ar  166  TRP166      0.0012
     12  CZ2       22.6510   70.9910   23.6020 C.ar  166  TRP166      0.0191
     13  CZ3       21.0750   71.0620   21.7560 C.ar  166  TRP166      0.0001
     14  CH2       22.0540   70.3950   22.5120 C.ar  166  TRP166      0.0015
     15  N         21.3210   64.8300   17.9360 N.3   270  VAL270     -0.1245
     16  CA        21.9780   65.6390   18.9810 C.3   270  VAL270      0.1561
     17  C         21.8210   65.0300   20.3780 C.2   270  VAL270      0.2260
     18  O         22.7430   65.0680   21.2080 O.2   270  VAL270     -0.2867
     19  CB        21.5540   67.1400   18.9250 C.3   270  VAL270      0.0252
     20  CG1       20.1230   67.3510   19.4730 C.3   270  VAL270      0.0019
     21  CG2       22.5680   68.0070   19.6560 C.3   270  VAL270      0.0019
     22  N         29.7770   66.1740   14.9370 N.3   329  SER329     -0.1202
     23  CA        29.8360   67.6110   15.1100 C.3   329  SER329      0.2020
     24  C         28.8600   68.0350   16.2060 C.2   329  SER329      0.2618
     25  O         29.1900   68.8690   17.0300 O.2   329  SER329     -0.2717
     26  CB        29.4900   68.3350   13.8010 C.3   329  SER329      0.2103
     27  OG        30.5440   68.2330   12.8600 O.3   329  SER329     -0.2182
     28  N         27.6430   67.4940   16.1830 N.am  330  TYR330     -0.1975
     29  CA        26.6920   67.7720   17.2670 C.3   330  TYR330      0.1639
     30  C         27.3130   67.4770   18.6340 C.2   330  TYR330      0.2290
     31  O         27.1970   68.2860   19.5650 O.2   330  TYR330     -0.2864
     32  CB        25.4050   66.9690   17.0770 C.3   330  TYR330      0.0560
     33  CG        24.4010   67.6200   16.1410 C.ar  330  TYR330     -0.0198
     34  CD1       24.6290   68.8830   15.5990 C.ar  330  TYR330     -0.0009
     35  CD2       23.2000   66.9840   15.8350 C.ar  330  TYR330     -0.0009
     36  CE1       23.6930   69.4760   14.7470 C.ar  330  TYR330      0.0417
     37  CE2       22.2730   67.5680   15.0090 C.ar  330  TYR330      0.0417
     38  CZ        22.5130   68.8040   14.4680 C.ar  330  TYR330      0.1957
     39  OH        21.5520   69.3720   13.6550 O.3   330  TYR330     -0.2866
     40  N         29.8480   70.0690   19.6670 N.3   333  GLY333     -0.1210
     41  CA        29.1520   71.3020   20.1010 C.3   333  GLY333      0.1956
     42  C         28.5540   71.1950   21.5060 C.2   333  GLY333      0.2611
     43  O         28.7600   72.0640   22.3630 O.2   333  GLY333     -0.2717
     44  N         27.8170   70.1210   21.7460 N.am  334  VAL334     -0.1979
     45  CA        27.2530   69.8680   23.0620 C.3   334  VAL334      0.1595
     46  C         28.3570   69.8740   24.1140 C.2   334  VAL334      0.2287
     47  O         28.1900   70.4690   25.1820 O.2   334  VAL334     -0.2864
     48  CB        26.4600   68.5350   23.1100 C.3   334  VAL334      0.0276
     49  CG1       26.0380   68.2010   24.5490 C.3   334  VAL334      0.0022
     50  CG2       25.2300   68.6230   22.2210 C.3   334  VAL334      0.0022
     51  N         30.1010   73.5260   24.4700 N.3   337  TRP337     -0.1241
     52  CA        29.1520   74.3840   25.1690 C.3   337  TRP337      0.1605
     53  C         28.4400   73.6170   26.2860 C.2   337  TRP337      0.2264
     54  O         27.2750   73.8860   26.5820 O.2   337  TRP337     -0.2867
     55  CB        28.1020   74.9710   24.2030 C.3   337  TRP337      0.0550
     56  CG        28.5750   76.1950   23.4450 C.ar  337  TRP337      0.0003
     57  CD1       28.3070   77.5070   23.7440 C.ar  337  TRP337      0.0946
     58  CD2       29.4060   76.2120   22.2760 C.ar  337  TRP337      0.0152
     59  NE1       28.9190   78.3390   22.8200 N.ar  337  TRP337     -0.2442
     60  CE2       29.5980   77.5680   21.9130 C.ar  337  TRP337      0.0810
     61  CE3       29.9790   75.2110   21.4800 C.ar  337  TRP337      0.0012
     62  CZ2       30.3640   77.9460   20.8080 C.ar  337  TRP337      0.0191
     63  CZ3       30.7450   75.5850   20.3870 C.ar  337  TRP337      0.0001
     64  CH2       30.9250   76.9490   20.0570 C.ar  337  TRP337      0.0015
     65  N         25.8780   74.9370   28.9950 N.3   340  THR340     -0.1218
     66  CA        24.4840   75.2510   28.6480 C.3   340  THR340      0.1862
     67  C         23.5370   74.0300   28.6760 C.2   340  THR340      0.2287
     68  O         22.3290   74.1800   28.4960 O.2   340  THR340     -0.2866
     69  CB        24.3480   75.9160   27.2310 C.3   340  THR340      0.1770
     70  OG1       24.7100   74.9780   26.2130 O.3   340  THR340     -0.2211
     71  CG2       25.2150   77.1490   27.1130 C.3   340  THR340      0.0375
     72  N         26.8290   79.6910   19.3100 N.3   393  PRO393     -0.2116
     73  CA        26.8420   79.0970   17.9780 C.3   393  PRO393      0.1372
     74  C         25.7190   79.6880   17.1330 C.2   393  PRO393      0.2244
     75  O         24.7290   80.2050   17.6720 O.2   393  PRO393     -0.2868
     76  CB        26.5610   77.6070   18.2280 C.3   393  PRO393      0.0268
     77  CG        26.4470   77.4310   19.6930 C.3   393  PRO393      0.0207
     78  CD        26.3490   78.7740   20.3490 C.3   393  PRO393      0.0892
     79  N         19.0660   73.6800   16.4210 N.3   401  ILE401     -0.1231
     80  CA        20.3830   73.1250   16.7720 C.3   401  ILE401      0.1678
     81  C         21.4330   73.8410   15.9080 C.2   401  ILE401      0.2434
     82  O         21.1350   74.2040   14.7810 O.2   401  ILE401     -0.2733
     83  CB        20.4080   71.5940   16.4880 C.3   401  ILE401      0.0265
     84  CG1       19.2140   70.9070   17.1660 C.3   401  ILE401      0.0019
     85  CG2       21.7090   70.9500   16.9930 C.3   401  ILE401      0.0020
     86  CD1       18.9650   69.4800   16.6600 C.3   401  ILE401      0.0001
     87  N         22.6560   74.0520   16.4350 N.am  402  PRO402     -0.2729
     88  CA        23.6910   74.8150   15.7270 C.3   402  PRO402      0.1401
     89  C         24.0290   74.3370   14.3060 C.2   402  PRO402      0.2269
     90  O         23.8690   73.1510   13.9660 O.2   402  PRO402     -0.2865
     91  CB        24.9030   74.6960   16.6580 C.3   402  PRO402      0.0296
     92  CG        24.2650   74.6390   18.0150 C.3   402  PRO402      0.0237
     93  CD        23.0890   73.7120   17.8020 C.3   402  PRO402      0.0939
     94  N         26.3280   73.1380   11.7120 N.3   404  VAL404     -0.1245
     95  CA        27.6190   72.4650   11.7480 C.3   404  VAL404      0.1561
     96  C         28.0080   71.9130   10.3770 C.2   404  VAL404      0.2260
     97  O         27.1890   71.8820    9.4520 O.2   404  VAL404     -0.2867
     98  CB        27.6350   71.3410   12.8120 C.3   404  VAL404      0.0252
     99  CG1       27.1390   71.8810   14.1720 C.3   404  VAL404      0.0019
    100  CG2       26.7810   70.1500   12.3640 C.3   404  VAL404      0.0019
@<TRIPOS>BOND
     1    97    96    2
     2    96    95    1
     3    94    95    1
     4    95    98    1
     5   100    98    1
     6    98    99    1
     7    27    26    1
     8    39    38    1
     9    26    23    1
    10    90    89    2
    11    89    88    1
    12    38    36   ar
    13    38    37   ar
    14    36    34   ar
    15    82    81    2
    16    22    23    1
    17    37    35   ar
    18    23    24    1
    19    34    33   ar
    20    88    87    1
    21    88    91    1
    22    35    33   ar
    23    81    87   am
    24    81    80    1
    25    33    32    1
    26    28    24   am
    27    28    29    1
    28    24    25    2
    29    79    80    1
    30    87    93    1
    31    83    80    1
    32    83    85    1
    33    83    84    1
    34    91    92    1
    35    86    84    1
    36    32    29    1
    37    74    75    2
    38    74    73    1
    39    29    30    1
    40    93    92    1
    41    15    16    1
    42    73    76    1
    43    73    72    1
    44    76    77    1
    45    30    31    2
    46    19    16    1
    47    19    20    1
    48    19    21    1
    49    16    17    1
    50    72    78    1
    51    40    41    1
    52    77    78    1
    53    64    63   ar
    54    64    62   ar
    55    41    42    1
    56    17    18    2
    57    63    61   ar
    58    62    60   ar
    59    61    58   ar
    60    42    44   am
    61    42    43    2
    62    44    45    1
    63    13    11   ar
    64    13    14   ar
    65    60    58   ar
    66    60    59   ar
    67    11     8   ar
    68    50    48    1
    69    58    56   ar
    70    14    12   ar
    71     4     3    2
    72    59    57   ar
    73    45    48    1
    74    45    46    1
    75    48    49    1
    76     8     6   ar
    77     8    10   ar
    78     5     6    1
    79     5     2    1
    80    56    57   ar
    81    56    55    1
    82     3     2    1
    83    12    10   ar
    84     6     7   ar
    85    10     9   ar
    86     2     1    1
    87    46    47    2
    88    55    52    1
    89    51    52    1
    90     7     9   ar
    91    52    53    1
    92    70    69    1
    93    53    54    2
    94    71    69    1
    95    69    66    1
    96    68    67    2
    97    66    67    1
    98    66    65    1
