@<TRIPOS>MOLECULE
tmp/3rmkA02.pdb
 114 110 0 0 0
SMALL
GASTEIGER

@<TRIPOS>ATOM
      1  N         18.0960   61.8160   29.0480 N.3    95  HIS95      -0.1241
      2  CA        16.8630   61.1310   28.6680 C.3    95  HIS95       0.1621
      3  C         15.6210   61.6900   29.3810 C.2    95  HIS95       0.2264
      4  O         14.6210   62.0110   28.7390 O.2    95  HIS95      -0.2867
      5  CB        16.9630   59.6180   28.9240 C.3    95  HIS95       0.0745
      6  CG        15.6470   58.9040   28.8170 C.ar   95  HIS95       0.0817
      7  ND1       15.2200   58.2970   27.6560 N.ar   95  HIS95      -0.2268
      8  CD2       14.6490   58.7330   29.7180 C.ar   95  HIS95       0.1154
      9  CE1       14.0210   57.7720   27.8460 C.ar   95  HIS95       0.1986
     10  NE2       13.6570   58.0120   29.0940 N.ar   95  HIS95      -0.2212
     11  N         14.6550   65.3210   28.2910 N.3    98  ALA98      -0.1231
     12  CA        14.1740   65.4190   26.9150 C.3    98  ALA98       0.1694
     13  C         12.8450   64.7180   26.6920 C.2    98  ALA98       0.2591
     14  O         12.0920   65.0870   25.7920 O.2    98  ALA98      -0.2718
     15  CB        15.2040   64.8440   25.9620 C.3    98  ALA98       0.0304
     16  N         12.5570   63.7100   27.5080 N.am   99  ILE99      -0.1980
     17  CA        11.4490   62.7960   27.2200 C.3    99  ILE99       0.1595
     18  C         10.2190   62.8860   28.1280 C.2    99  ILE99       0.2287
     19  O          9.0900   62.7530   27.6480 O.2    99  ILE99      -0.2864
     20  CB        11.9300   61.3280   27.2070 C.3    99  ILE99       0.0276
     21  CG1       12.9480   61.1140   26.0780 C.3    99  ILE99       0.0022
     22  CG2       10.7370   60.3770   27.0460 C.3    99  ILE99       0.0022
     23  CD1       12.4030   61.4680   24.6880 C.3    99  ILE99       0.0001
     24  N          8.5350   68.6240   18.9240 N.3   175  PHE175     -0.1241
     25  CA         7.3170   67.9600   19.4230 C.3   175  PHE175      0.1605
     26  C          6.0570   68.8140   19.2700 C.2   175  PHE175      0.2264
     27  O          4.9560   68.2930   19.0510 O.2   175  PHE175     -0.2867
     28  CB         7.4900   67.5110   20.8790 C.3   175  PHE175      0.0534
     29  CG         8.4770   66.4040   21.0440 C.ar  175  PHE175     -0.0203
     30  CD1        8.3870   65.2630   20.2630 C.ar  175  PHE175     -0.0042
     31  CD2        9.5020   66.5010   21.9670 C.ar  175  PHE175     -0.0042
     32  CE1        9.3110   64.2410   20.3940 C.ar  175  PHE175     -0.0003
     33  CE2       10.4180   65.4610   22.1220 C.ar  175  PHE175     -0.0003
     34  CZ        10.3230   64.3390   21.3270 C.ar  175  PHE175     -0.0000
     35  N          7.7130   59.0490   14.0460 N.3   195  PHE195     -0.1241
     36  CA         8.5300   59.1510   15.2470 C.3   195  PHE195      0.1605
     37  C          8.5040   57.9160   16.1530 C.2   195  PHE195      0.2264
     38  O          9.5620   57.4180   16.5460 O.2   195  PHE195     -0.2867
     39  CB         8.1590   60.3980   16.0620 C.3   195  PHE195      0.0534
     40  CG         9.0520   60.6170   17.2580 C.ar  195  PHE195     -0.0203
     41  CD1       10.4180   60.8350   17.0940 C.ar  195  PHE195     -0.0042
     42  CD2        8.5350   60.5780   18.5460 C.ar  195  PHE195     -0.0042
     43  CE1       11.2500   61.0190   18.1940 C.ar  195  PHE195     -0.0003
     44  CE2        9.3580   60.7710   19.6450 C.ar  195  PHE195     -0.0003
     45  CZ        10.7190   60.9860   19.4670 C.ar  195  PHE195     -0.0000
     46  N         11.3780   55.7190   18.1330 N.3   200  THR200     -0.1218
     47  CA        11.3810   55.4480   19.5700 C.3   200  THR200      0.1862
     48  C         11.2870   53.9610   19.9010 C.2   200  THR200      0.2287
     49  O         11.8320   53.5100   20.8930 O.2   200  THR200     -0.2866
     50  CB        10.2700   56.2250   20.3200 C.3   200  THR200      0.1770
     51  OG1        8.9960   55.7830   19.8580 O.3   200  THR200     -0.2211
     52  CG2       10.3880   57.7180   20.0610 C.3   200  THR200      0.0375
     53  N         14.7520   52.6670   19.6420 N.3   203  GLN203     -0.1231
     54  CA        15.5590   53.4120   20.6050 C.3   203  GLN203      0.1698
     55  C         15.3260   52.8790   22.0230 C.2   203  GLN203      0.2592
     56  O         16.2770   52.6460   22.7680 O.2   203  GLN203     -0.2718
     57  CB        15.2390   54.9120   20.5460 C.3   203  GLN203      0.0381
     58  CG        15.7620   55.7360   21.7150 C.3   203  GLN203      0.0905
     59  CD        17.2770   55.7130   21.8070 C.2   203  GLN203      0.2608
     60  OE1       17.9610   55.2610   20.8870 O.2   203  GLN203     -0.2717
     61  NE2       17.8110   56.1970   22.9250 N.am  203  GLN203     -0.0878
     62  N         14.0630   52.7010   22.3970 N.am  204  PHE204     -0.1976
     63  CA        13.7620   52.2040   23.7530 C.3   204  PHE204      0.1639
     64  C         14.2870   50.7780   23.9670 C.2   204  PHE204      0.2290
     65  O         14.8320   50.4710   25.0210 O.2   204  PHE204     -0.2864
     66  CB        12.2660   52.3300   24.0770 C.3   204  PHE204      0.0560
     67  CG        11.8680   53.7100   24.6040 C.ar  204  PHE204     -0.0200
     68  CD1       12.4090   54.8650   24.0580 C.ar  204  PHE204     -0.0042
     69  CD2       10.9550   53.8370   25.6450 C.ar  204  PHE204     -0.0042
     70  CE1       12.0490   56.1400   24.5400 C.ar  204  PHE204     -0.0003
     71  CE2       10.5840   55.0960   26.1300 C.ar  204  PHE204     -0.0003
     72  CZ        11.1380   56.2490   25.5760 C.ar  204  PHE204     -0.0000
     73  N         17.9620   51.1760   24.5310 N.3   207  LEU207     -0.1245
     74  CA        18.1880   51.8340   25.8100 C.3   207  LEU207      0.1561
     75  C         18.0180   50.8700   26.9820 C.2   207  LEU207      0.2260
     76  O         18.8250   50.8740   27.9250 O.2   207  LEU207     -0.2867
     77  CB        17.2370   53.0230   25.9820 C.3   207  LEU207      0.0270
     78  CG        17.4970   53.9070   27.2050 C.3   207  LEU207      0.0019
     79  CD1       18.9230   54.4650   27.1760 C.3   207  LEU207      0.0001
     80  CD2       16.4720   55.0590   27.2720 C.3   207  LEU207      0.0001
     81  N         16.9510   65.9790   15.7770 N.3   267  LEU267     -0.1231
     82  CA        16.9070   65.9210   17.2380 C.3   267  LEU267      0.1693
     83  C         17.5380   64.6300   17.7610 C.2   267  LEU267      0.2592
     84  O         18.2900   64.6410   18.7610 O.2   267  LEU267     -0.2718
     85  CB        15.4720   66.0360   17.7360 C.3   267  LEU267      0.0284
     86  CG        15.2840   66.2510   19.2420 C.3   267  LEU267      0.0019
     87  CD1       15.9220   67.5550   19.7340 C.3   267  LEU267      0.0001
     88  CD2       13.7900   66.2410   19.5590 C.3   267  LEU267      0.0001
     89  N         17.2130   63.5160   17.1050 N.am  268  PHE268     -0.1976
     90  CA        17.7410   62.2180   17.4920 C.3   268  PHE268      0.1639
     91  C         19.2650   62.2610   17.4760 C.2   268  PHE268      0.2290
     92  O         19.9260   61.7100   18.3540 O.2   268  PHE268     -0.2864
     93  CB        17.2250   61.1490   16.5280 C.3   268  PHE268      0.0560
     94  CG        17.3660   59.7410   17.0340 C.ar  268  PHE268     -0.0200
     95  CD1       16.6150   59.2990   18.1180 C.ar  268  PHE268     -0.0042
     96  CD2       18.2180   58.8480   16.4020 C.ar  268  PHE268     -0.0042
     97  CE1       16.7290   58.0010   18.5770 C.ar  268  PHE268     -0.0003
     98  CE2       18.3370   57.5410   16.8500 C.ar  268  PHE268     -0.0003
     99  CZ        17.5970   57.1140   17.9340 C.ar  268  PHE268     -0.0000
    100  N         20.6820   64.4010   20.6200 N.3   271  LEU271     -0.1231
    101  CA        20.3950   63.8430   21.9430 C.3   271  LEU271      0.1693
    102  C         20.8470   62.4110   22.1530 C.2   271  LEU271      0.2592
    103  O         21.1620   62.0260   23.2780 O.2   271  LEU271     -0.2718
    104  CB        18.8990   63.9490   22.2580 C.3   271  LEU271      0.0284
    105  CG        18.4000   65.3760   22.4270 C.3   271  LEU271      0.0019
    106  CD1       16.9700   65.3370   22.9200 C.3   271  LEU271      0.0001
    107  CD2       19.3000   66.1140   23.4070 C.3   271  LEU271      0.0001
    108  N         20.8620   61.6020   21.1010 N.am  272  THR272     -0.1953
    109  CA        21.2080   60.1860   21.2890 C.3   272  THR272      0.1897
    110  C         22.4780   59.7370   20.5660 C.2   272  THR272      0.2313
    111  O         23.1100   58.7850   20.9810 O.2   272  THR272     -0.2863
    112  CB        20.0370   59.2380   20.9300 C.3   272  THR272      0.1794
    113  OG1       19.9580   59.0680   19.5110 O.3   272  THR272     -0.2208
    114  CG2       18.7090   59.7930   21.4590 C.3   272  THR272      0.0378
@<TRIPOS>BOND
     1    35    36    1
     2    36    39    1
     3    36    37    1
     4    81    82    1
     5    39    40    1
     6    37    38    2
     7    96    98   ar
     8    96    94   ar
     9    93    94    1
    10    93    90    1
    11    98    99   ar
    12    94    95   ar
    13    41    40   ar
    14    41    43   ar
    15    89    90    1
    16    89    83   am
    17    82    85    1
    18    82    83    1
    19    40    42   ar
    20    91    90    1
    21    91    92    2
    22    85    86    1
    23    83    84    2
    24    99    97   ar
    25    95    97   ar
    26    46    47    1
    27    43    45   ar
    28    42    44   ar
    29    24    25    1
    30    27    26    2
    31    86    88    1
    32    86    87    1
    33    26    25    1
    34    25    28    1
    35    45    44   ar
    36   113   112    1
    37    47    48    1
    38    47    50    1
    39    53    54    1
    40    51    50    1
    41    48    49    2
    42    52    50    1
    43    30    32   ar
    44    30    29   ar
    45    32    34   ar
    46    57    54    1
    47    57    58    1
    48   110   111    2
    49   110   109    1
    50    54    55    1
    51   100   101    1
    52    28    29    1
    53    60    59    2
    54   112   109    1
    55   112   114    1
    56    29    31   ar
    57   108   109    1
    58   108   102   am
    59    34    33   ar
    60    58    59    1
    61    59    61   am
    62   101   102    1
    63   101   104    1
    64    31    33   ar
    65    55    62   am
    66    55    56    2
    67   102   103    2
    68   104   105    1
    69    62    63    1
    70   105   106    1
    71   105   107    1
    72    63    64    1
    73    63    66    1
    74    64    65    2
    75    68    70   ar
    76    68    67   ar
    77    66    67    1
    78    73    74    1
    79    70    72   ar
    80    67    69   ar
    81    23    21    1
    82    72    71   ar
    83    69    71   ar
    84    14    13    2
    85    74    77    1
    86    74    75    1
    87    15    12    1
    88    77    78    1
    89    21    20    1
    90    13    12    1
    91    13    16   am
    92    12    11    1
    93    75    76    2
    94    22    20    1
    95    79    78    1
    96    78    80    1
    97    20    17    1
    98    17    16    1
    99    17    18    1
   100    19    18    2
   101     7     9   ar
   102     7     6   ar
   103     9    10   ar
   104     2     5    1
   105     2     1    1
   106     2     3    1
   107     4     3    2
   108     6     5    1
   109     6     8   ar
   110    10     8   ar
