@<TRIPOS>MOLECULE
tmp/3rmkA03.pdb
 99 96 0 0 0
SMALL
GASTEIGER

@<TRIPOS>ATOM
      1  N         30.1010   73.5260   24.4700 N.3   337  TRP337     -0.1241
      2  CA        29.1520   74.3840   25.1690 C.3   337  TRP337      0.1605
      3  C         28.4400   73.6170   26.2860 C.2   337  TRP337      0.2264
      4  O         27.2750   73.8860   26.5820 O.2   337  TRP337     -0.2867
      5  CB        28.1020   74.9710   24.2030 C.3   337  TRP337      0.0550
      6  CG        28.5750   76.1950   23.4450 C.ar  337  TRP337      0.0003
      7  CD1       28.3070   77.5070   23.7440 C.ar  337  TRP337      0.0946
      8  CD2       29.4060   76.2120   22.2760 C.ar  337  TRP337      0.0152
      9  NE1       28.9190   78.3390   22.8200 N.ar  337  TRP337     -0.2442
     10  CE2       29.5980   77.5680   21.9130 C.ar  337  TRP337      0.0810
     11  CE3       29.9790   75.2110   21.4800 C.ar  337  TRP337      0.0012
     12  CZ2       30.3640   77.9460   20.8080 C.ar  337  TRP337      0.0191
     13  CZ3       30.7450   75.5850   20.3870 C.ar  337  TRP337      0.0001
     14  CH2       30.9250   76.9490   20.0570 C.ar  337  TRP337      0.0015
     15  N         25.8780   74.9370   28.9950 N.3   340  THR340     -0.1218
     16  CA        24.4840   75.2510   28.6480 C.3   340  THR340      0.1862
     17  C         23.5370   74.0300   28.6760 C.2   340  THR340      0.2287
     18  O         22.3290   74.1800   28.4960 O.2   340  THR340     -0.2866
     19  CB        24.3480   75.9160   27.2310 C.3   340  THR340      0.1770
     20  OG1       24.7100   74.9780   26.2130 O.3   340  THR340     -0.2211
     21  CG2       25.2150   77.1490   27.1130 C.3   340  THR340      0.0375
     22  N         33.4130   78.5030   25.9390 N.3   389  PRO389     -0.2102
     23  CA        32.9850   79.3930   24.8560 C.3   389  PRO389      0.1504
     24  C         32.7440   80.8310   25.3020 C.2   389  PRO389      0.2576
     25  O         32.3350   81.0710   26.4360 O.2   389  PRO389     -0.2718
     26  CB        31.6640   78.7680   24.4030 C.3   389  PRO389      0.0282
     27  CG        31.1180   78.1280   25.6370 C.3   389  PRO389      0.0208
     28  CD        32.3210   77.6350   26.4080 C.3   389  PRO389      0.0893
     29  N         32.9810   81.7740   24.3970 N.am  390  GLU390     -0.1966
     30  CA        32.7660   83.1880   24.6900 C.3   390  GLU390      0.1733
     31  C         31.8350   83.8280   23.6720 C.2   390  GLU390      0.2617
     32  O         31.7170   85.0520   23.5970 O.2   390  GLU390     -0.2715
     33  CB        34.1050   83.9200   24.7840 C.3   390  GLU390      0.0429
     34  CG        34.8480   83.5550   26.0610 C.3   390  GLU390      0.1163
     35  CD        36.1940   84.2340   26.1700 C.2   390  GLU390      0.3649
     36  OE1       36.2850   85.4290   25.8480 O.co2 390  GLU390     -0.2457
     37  OE2       37.1630   83.5650   26.5800 O.co2 390  GLU390     -0.2457
     38  N         31.1730   82.9850   22.8880 N.am  391  THR391     -0.1937
     39  CA        30.0970   83.4300   22.0080 C.3   391  THR391      0.2028
     40  C         29.0630   82.3060   21.8160 C.2   391  THR391      0.2642
     41  O         29.2400   81.1970   22.3360 O.2   391  THR391     -0.2714
     42  CB        30.6210   83.9400   20.6430 C.3   391  THR391      0.1808
     43  OG1       29.5830   84.6880   19.9850 O.3   391  THR391     -0.2208
     44  CG2       31.0640   82.7560   19.7510 C.3   391  THR391      0.0379
     45  N         27.9830   82.6060   21.1010 N.am  392  LEU392     -0.1977
     46  CA        26.9510   81.6230   20.7780 C.3   392  LEU392      0.1596
     47  C         27.2180   80.9650   19.4440 C.2   392  LEU392      0.2287
     48  O         27.7470   81.5870   18.5320 O.2   392  LEU392     -0.2864
     49  CB        25.5590   82.2730   20.7020 C.3   392  LEU392      0.0297
     50  CG        24.8720   82.8780   21.9250 C.3   392  LEU392      0.0022
     51  CD1       25.5810   84.1590   22.3850 C.3   392  LEU392      0.0001
     52  CD2       23.4070   83.1710   21.6230 C.3   392  LEU392      0.0001
     53  N         18.6070   86.6700   21.3110 N.3   453  PHE453     -0.1241
     54  CA        19.8270   87.3350   21.7670 C.3   453  PHE453      0.1605
     55  C         20.0640   88.6420   21.0020 C.2   453  PHE453      0.2264
     56  O         20.3440   89.6850   21.5970 O.2   453  PHE453     -0.2867
     57  CB        21.0100   86.4040   21.5410 C.3   453  PHE453      0.0534
     58  CG        22.2770   86.8350   22.2190 C.ar  453  PHE453     -0.0203
     59  CD1       22.4530   86.6440   23.5850 C.ar  453  PHE453     -0.0042
     60  CD2       23.3190   87.3860   21.4810 C.ar  453  PHE453     -0.0042
     61  CE1       23.6500   87.0230   24.2130 C.ar  453  PHE453     -0.0003
     62  CE2       24.5020   87.7760   22.1030 C.ar  453  PHE453     -0.0003
     63  CZ        24.6690   87.5860   23.4650 C.ar  453  PHE453     -0.0000
     64  N         23.8810   90.6580   27.6360 N.3   461  MET461     -0.1230
     65  CA        24.2580   89.9160   26.4360 C.3   461  MET461      0.1702
     66  C         25.5930   89.2150   26.6580 C.2   461  MET461      0.2593
     67  O         26.5860   89.4920   25.9740 O.2   461  MET461     -0.2718
     68  CB        24.3160   90.8370   25.2190 C.3   461  MET461      0.0401
     69  CG        22.9520   91.3470   24.7740 C.3   461  MET461      0.0596
     70  SD        22.9680   92.1960   23.1820 S.3   461  MET461     -0.1393
     71  CE        23.5970   90.9430   22.0740 C.3   461  MET461      0.0692
     72  N         25.6080   88.3270   27.6390 N.am  462  THR462     -0.1939
     73  CA        26.8020   87.5970   28.0170 C.3   462  THR462      0.2028
     74  C         26.4520   86.1330   28.2660 C.2   462  THR462      0.2642
     75  O         25.2840   85.7370   28.1760 O.2   462  THR462     -0.2714
     76  CB        27.3920   88.1630   29.3000 C.3   462  THR462      0.1808
     77  OG1       26.4230   88.0650   30.3470 O.3   462  THR462     -0.2208
     78  CG2       27.7900   89.6410   29.1040 C.3   462  THR462      0.0379
     79  N         27.4700   85.3330   28.5830 N.am  463  LEU463     -0.1977
     80  CA        27.2740   83.9190   28.8940 C.3   463  LEU463      0.1596
     81  C         26.3630   83.7490   30.0970 C.2   463  LEU463      0.2287
     82  O         25.4370   82.9330   30.0690 O.2   463  LEU463     -0.2864
     83  CB        28.6140   83.2260   29.1640 C.3   463  LEU463      0.0297
     84  CG        28.5370   81.8160   29.7600 C.3   463  LEU463      0.0022
     85  CD1       27.7250   80.8930   28.8530 C.3   463  LEU463      0.0001
     86  CD2       29.9370   81.2490   29.9980 C.3   463  LEU463      0.0001
     87  N         22.7710   84.5110   29.1080 N.3   466  ALA466     -0.1245
     88  CA        22.1470   83.4210   28.3680 C.3   466  ALA466      0.1562
     89  C         21.7810   82.2710   29.2990 C.2   466  ALA466      0.2260
     90  O         20.6910   81.6800   29.1780 O.2   466  ALA466     -0.2867
     91  CB        23.0530   82.9420   27.2430 C.3   466  ALA466      0.0290
     92  N         18.2010   80.7300   30.0390 N.3   470  MET470     -0.1245
     93  CA        17.9420   79.3180   29.7530 C.3   470  MET470      0.1570
     94  C         17.3570   78.5830   30.9560 C.2   470  MET470      0.2261
     95  O         16.9960   77.4080   30.8540 O.2   470  MET470     -0.2867
     96  CB        19.2120   78.6160   29.2680 C.3   470  MET470      0.0387
     97  CG        19.6820   79.0430   27.8600 C.3   470  MET470      0.0595
     98  SD        20.9320   77.8910   27.2490 S.3   470  MET470     -0.1393
     99  CE        21.6390   78.8100   25.8790 C.3   470  MET470      0.0692
@<TRIPOS>BOND
     1    48    47    2
     2    47    46    1
     3    44    42    1
     4    43    42    1
     5    14    13   ar
     6    14    12   ar
     7    13    11   ar
     8    42    39    1
     9    49    46    1
    10    49    50    1
    11    46    45    1
    12    12    10   ar
    13    55    56    2
    14    55    54    1
    15    45    40   am
    16    53    54    1
    17    11     8   ar
    18    60    62   ar
    19    60    58   ar
    20    57    54    1
    21    57    58    1
    22    52    50    1
    23    40    39    1
    24    40    41    2
    25    10     8   ar
    26    10     9   ar
    27    50    51    1
    28    39    38    1
    29    71    70    1
    30    62    63   ar
    31    58    59   ar
    32     8     6   ar
    33     9     7   ar
    34    38    31   am
    35    70    69    1
    36     6     7   ar
    37     6     5    1
    38    63    61   ar
    39    59    61   ar
    40    32    31    2
    41    31    30    1
    42     5     2    1
    43    29    30    1
    44    29    24   am
    45    26    23    1
    46    26    27    1
    47     1     2    1
    48    30    33    1
    49    69    68    1
    50    33    34    1
    51    23    24    1
    52    23    22    1
    53     2     3    1
    54    68    65    1
    55    24    25    2
    56    27    28    1
    57    36    35   ar
    58    99    98    1
    59    22    28    1
    60    67    66    2
    61    34    35    1
    62    35    37   ar
    63    20    19    1
    64     3     4    2
    65    65    66    1
    66    65    64    1
    67    66    72   am
    68    21    19    1
    69    19    16    1
    70    91    88    1
    71    98    97    1
    72    72    73    1
    73    97    96    1
    74    73    74    1
    75    73    76    1
    76    75    74    2
    77    74    79   am
    78    88    87    1
    79    88    89    1
    80    18    17    2
    81    79    80    1
    82    16    17    1
    83    16    15    1
    84    85    84    1
    85    80    83    1
    86    80    81    1
    87    78    76    1
    88    83    84    1
    89    90    89    2
    90    96    93    1
    91    76    77    1
    92    93    92    1
    93    93    94    1
    94    84    86    1
    95    82    81    2
    96    95    94    2
