@<TRIPOS>MOLECULE
tmp/3rmkA00.pdb
 109 101 0 0 0
SMALL
GASTEIGER

@<TRIPOS>ATOM
      1  N         12.5570   63.7100   27.5080 N.3    99  ILE99      -0.1245
      2  CA        11.4490   62.7960   27.2200 C.3    99  ILE99       0.1561
      3  C         10.2190   62.8860   28.1280 C.2    99  ILE99       0.2260
      4  O          9.0900   62.7530   27.6480 O.2    99  ILE99      -0.2867
      5  CB        11.9300   61.3280   27.2070 C.3    99  ILE99       0.0252
      6  CG1       12.9480   61.1140   26.0780 C.3    99  ILE99       0.0019
      7  CG2       10.7370   60.3770   27.0460 C.3    99  ILE99       0.0019
      8  CD1       12.4030   61.4680   24.6880 C.3    99  ILE99       0.0001
      9  N          7.5730   65.5230   27.4640 N.3   102  GLY102     -0.1210
     10  CA         7.1830   65.2450   26.0800 C.3   102  GLY102      0.1956
     11  C          6.2400   64.0460   25.9690 C.2   102  GLY102      0.2611
     12  O          5.3060   64.0680   25.1580 O.2   102  GLY102     -0.2717
     13  N          6.4780   62.9890   26.7570 N.am  103  GLU103     -0.1979
     14  CA         5.5190   61.8840   26.8120 C.3   103  GLU103      0.1602
     15  C          4.1610   62.4370   27.2070 C.2   103  GLU103      0.2287
     16  O          3.1480   62.0870   26.6080 O.2   103  GLU103     -0.2864
     17  CB         5.9230   60.7960   27.8120 C.3   103  GLU103      0.0415
     18  CG         7.2300   60.0720   27.4890 C.3   103  GLU103      0.1163
     19  CD         7.0170   58.7330   26.8110 C.2   103  GLU103      0.3649
     20  OE1        5.9030   58.4750   26.2950 O.co2 103  GLU103     -0.2457
     21  OE2        7.9750   57.9260   26.8120 O.co2 103  GLU103     -0.2457
     22  N          2.4560   64.1310   24.4740 N.3   106  ALA106     -0.1245
     23  CA         1.8860   63.1860   23.5000 C.3   106  ALA106      0.1562
     24  C          0.4460   62.7800   23.8560 C.2   106  ALA106      0.2260
     25  O         -0.3110   62.3520   22.9900 O.2   106  ALA106     -0.2867
     26  CB         2.7850   61.9480   23.3310 C.3   106  ALA106      0.0290
     27  N          0.2630   57.3230   27.0770 N.3   133  GLU133     -0.1245
     28  CA         1.2330   58.4080   27.1870 C.3   133  GLU133      0.1567
     29  C          1.1290   59.0350   28.5750 C.2   133  GLU133      0.2260
     30  O          2.1190   59.5270   29.1200 O.2   133  GLU133     -0.2867
     31  CB         1.0690   59.4320   26.0570 C.3   133  GLU133      0.0388
     32  CG         1.2300   58.8390   24.6310 C.3   133  GLU133      0.1160
     33  CD         2.5880   58.1420   24.3780 C.2   133  GLU133      0.3649
     34  OE1        3.3660   57.9160   25.3270 O.co2 133  GLU133     -0.2457
     35  OE2        2.8630   57.7940   23.2150 O.co2 133  GLU133     -0.2457
     36  N          8.5350   68.6240   18.9240 N.3   175  PHE175     -0.1241
     37  CA         7.3170   67.9600   19.4230 C.3   175  PHE175      0.1605
     38  C          6.0570   68.8140   19.2700 C.2   175  PHE175      0.2264
     39  O          4.9560   68.2930   19.0510 O.2   175  PHE175     -0.2867
     40  CB         7.4900   67.5110   20.8790 C.3   175  PHE175      0.0534
     41  CG         8.4770   66.4040   21.0440 C.ar  175  PHE175     -0.0203
     42  CD1        8.3870   65.2630   20.2630 C.ar  175  PHE175     -0.0042
     43  CD2        9.5020   66.5010   21.9670 C.ar  175  PHE175     -0.0042
     44  CE1        9.3110   64.2410   20.3940 C.ar  175  PHE175     -0.0003
     45  CE2       10.4180   65.4610   22.1220 C.ar  175  PHE175     -0.0003
     46  CZ        10.3230   64.3390   21.3270 C.ar  175  PHE175     -0.0000
     47  N          3.4480   66.8140   17.3330 N.3   179  ILE179     -0.1245
     48  CA         2.5220   66.2710   18.3360 C.3   179  ILE179      0.1561
     49  C          1.3360   67.1780   18.6270 C.2   179  ILE179      0.2260
     50  O          0.1940   66.7770   18.4470 O.2   179  ILE179     -0.2867
     51  CB         3.2140   65.9630   19.6830 C.3   179  ILE179      0.0252
     52  CG1        4.3610   64.9710   19.4770 C.3   179  ILE179      0.0019
     53  CG2        2.1950   65.3880   20.6760 C.3   179  ILE179      0.0019
     54  CD1        5.0340   64.5150   20.8020 C.3   179  ILE179      0.0001
     55  N          3.6910   61.6970   14.2660 N.3   191  LEU191     -0.1245
     56  CA         3.9890   61.1130   15.5660 C.3   191  LEU191      0.1561
     57  C          3.9970   59.5810   15.5350 C.2   191  LEU191      0.2260
     58  O          5.0280   58.9820   15.7320 O.2   191  LEU191     -0.2867
     59  CB         3.0380   61.6210   16.6600 C.3   191  LEU191      0.0270
     60  CG         3.1460   60.8990   18.0170 C.3   191  LEU191      0.0019
     61  CD1        4.5320   61.0920   18.6790 C.3   191  LEU191      0.0001
     62  CD2        2.0350   61.3590   18.9640 C.3   191  LEU191      0.0001
     63  N          7.7130   59.0490   14.0460 N.3   195  PHE195     -0.1227
     64  CA         8.5300   59.1510   15.2470 C.3   195  PHE195      0.1736
     65  C          8.5040   57.9160   16.1530 C.2   195  PHE195      0.2595
     66  O          9.5620   57.4180   16.5460 O.2   195  PHE195     -0.2718
     67  CB         8.1590   60.3980   16.0620 C.3   195  PHE195      0.0547
     68  CG         9.0520   60.6170   17.2580 C.ar  195  PHE195     -0.0202
     69  CD1       10.4180   60.8350   17.0940 C.ar  195  PHE195     -0.0042
     70  CD2        8.5350   60.5780   18.5460 C.ar  195  PHE195     -0.0042
     71  CE1       11.2500   61.0190   18.1940 C.ar  195  PHE195     -0.0003
     72  CE2        9.3580   60.7710   19.6450 C.ar  195  PHE195     -0.0003
     73  CZ        10.7190   60.9860   19.4670 C.ar  195  PHE195     -0.0000
     74  N          7.3060   57.4420   16.4900 N.am  196  GLU196     -0.1979
     75  CA         7.1590   56.3160   17.4230 C.3   196  GLU196      0.1602
     76  C          7.5400   54.9780   16.8140 C.2   196  GLU196      0.2287
     77  O          8.4190   54.2890   17.3120 O.2   196  GLU196     -0.2864
     78  CB         5.7330   56.2730   17.9890 C.3   196  GLU196      0.0415
     79  CG         5.4750   57.4500   18.9410 C.3   196  GLU196      0.1163
     80  CD         4.0830   57.4540   19.5500 C.2   196  GLU196      0.3649
     81  OE1        3.1010   57.3890   18.8020 O.co2 196  GLU196     -0.2457
     82  OE2        3.9740   57.5340   20.7810 O.co2 196  GLU196     -0.2457
     83  N         11.3780   55.7190   18.1330 N.3   200  THR200     -0.1218
     84  CA        11.3810   55.4480   19.5700 C.3   200  THR200      0.1862
     85  C         11.2870   53.9610   19.9010 C.2   200  THR200      0.2287
     86  O         11.8320   53.5100   20.8930 O.2   200  THR200     -0.2866
     87  CB        10.2700   56.2250   20.3200 C.3   200  THR200      0.1770
     88  OG1        8.9960   55.7830   19.8580 O.3   200  THR200     -0.2211
     89  CG2       10.3880   57.7180   20.0610 C.3   200  THR200      0.0375
     90  N         14.0630   52.7010   22.3970 N.3   204  PHE204     -0.1241
     91  CA        13.7620   52.2040   23.7530 C.3   204  PHE204      0.1605
     92  C         14.2870   50.7780   23.9670 C.2   204  PHE204      0.2264
     93  O         14.8320   50.4710   25.0210 O.2   204  PHE204     -0.2867
     94  CB        12.2660   52.3300   24.0770 C.3   204  PHE204      0.0534
     95  CG        11.8680   53.7100   24.6040 C.ar  204  PHE204     -0.0203
     96  CD1       12.4090   54.8650   24.0580 C.ar  204  PHE204     -0.0042
     97  CD2       10.9550   53.8370   25.6450 C.ar  204  PHE204     -0.0042
     98  CE1       12.0490   56.1400   24.5400 C.ar  204  PHE204     -0.0003
     99  CE2       10.5840   55.0960   26.1300 C.ar  204  PHE204     -0.0003
    100  CZ        11.1380   56.2490   25.5760 C.ar  204  PHE204     -0.0000
    101  N          4.1650   50.4660   23.2410 N.3   230  GLU230     -0.1245
    102  CA         4.3200   51.3260   22.0680 C.3   230  GLU230      0.1567
    103  C          3.3920   50.9860   20.9100 C.2   230  GLU230      0.2260
    104  O          2.7220   51.8670   20.3840 O.2   230  GLU230     -0.2867
    105  CB         5.7840   51.3870   21.5820 C.3   230  GLU230      0.0388
    106  CG         6.1040   52.6760   20.8130 C.3   230  GLU230      0.1160
    107  CD         5.8880   53.9310   21.6730 C.2   230  GLU230      0.3649
    108  OE1        6.2780   53.9060   22.8630 O.co2 230  GLU230     -0.2457
    109  OE2        5.3170   54.9340   21.1730 O.co2 230  GLU230     -0.2457
@<TRIPOS>BOND
     1    63    64    1
     2    55    56    1
     3    64    67    1
     4    64    65    1
     5    57    56    1
     6    57    58    2
     7    56    59    1
     8    67    68    1
     9    65    74   am
    10    65    66    2
    11    74    75    1
    12    59    60    1
    13    76    77    2
    14    76    75    1
    15    69    68   ar
    16    69    71   ar
    17    68    70   ar
    18    47    48    1
    19    75    78    1
    20    78    79    1
    21    60    61    1
    22    60    62    1
    23    83    84    1
    24    71    73   ar
    25    48    49    1
    26    48    51    1
    27    50    49    2
    28    70    72   ar
    29    81    80   ar
    30    36    37    1
    31    79    80    1
    32    39    38    2
    33    38    37    1
    34    37    40    1
    35    73    72   ar
    36    52    51    1
    37    52    54    1
    38    80    82   ar
    39    84    85    1
    40    84    87    1
    41    51    53    1
    42    88    87    1
    43    85    86    2
    44    89    87    1
    45    42    44   ar
    46    42    41   ar
    47   104   103    2
    48    44    46   ar
    49   106   105    1
    50   106   107    1
    51    40    41    1
    52   103   102    1
    53    41    43   ar
    54   109   107   ar
    55    46    45   ar
    56   105   102    1
    57   107   108   ar
    58    43    45   ar
    59   102   101    1
    60    90    91    1
    61    25    24    2
    62    35    33   ar
    63    26    23    1
    64    23    24    1
    65    23    22    1
    66    91    92    1
    67    91    94    1
    68    92    93    2
    69    96    98   ar
    70    96    95   ar
    71    94    95    1
    72    33    32    1
    73    33    34   ar
    74    98   100   ar
    75    95    97   ar
    76    32    31    1
    77     8     6    1
    78    12    11    2
    79   100    99   ar
    80    97    99   ar
    81    11    10    1
    82    11    13   am
    83    31    28    1
    84     6     5    1
    85    10     9    1
    86    20    19   ar
    87    16    15    2
    88    13    14    1
    89    19    21   ar
    90    19    18    1
    91    14    15    1
    92    14    17    1
    93     7     5    1
    94    27    28    1
    95    28    29    1
    96     5     2    1
    97     2     1    1
    98     2     3    1
    99    18    17    1
   100     4     3    2
   101    29    30    2
