@<TRIPOS>MOLECULE
tmp/3rmnB02.pdb
 191 189 0 0 0
SMALL
GASTEIGER

@<TRIPOS>ATOM
      1  N         22.3730   -6.1410   18.3120 N.3    43  HIS43      -0.1241
      2  CA        22.2370   -7.5000   17.7920 C.3    43  HIS43       0.1621
      3  C         21.4850   -7.5660   16.4540 C.2    43  HIS43       0.2264
      4  O         21.5250   -8.5870   15.7800 O.2    43  HIS43      -0.2867
      5  CB        21.6190   -8.4480   18.8320 C.3    43  HIS43       0.0745
      6  CG        20.1270   -8.3990   18.8860 C.ar   43  HIS43       0.0817
      7  ND1       19.4410   -7.6770   19.8370 N.ar   43  HIS43      -0.2268
      8  CD2       19.1870   -8.9880   18.1070 C.ar   43  HIS43       0.1154
      9  CE1       18.1420   -7.8130   19.6360 C.ar   43  HIS43       0.1986
     10  NE2       17.9610   -8.6040   18.5930 N.ar   43  HIS43      -0.2212
     11  N         25.6940  -10.1720   15.2990 N.3    47  TYR47      -0.1241
     12  CA        25.3870  -11.2940   16.1710 C.3    47  TYR47       0.1605
     13  C         26.0470  -12.5660   15.6530 C.2    47  TYR47       0.2264
     14  O         25.4170  -13.3830   14.9860 O.2    47  TYR47      -0.2867
     15  CB        23.8750  -11.4770   16.3440 C.3    47  TYR47       0.0534
     16  CG        23.5320  -12.3670   17.5110 C.ar   47  TYR47      -0.0201
     17  CD1       23.8410  -11.9810   18.8090 C.ar   47  TYR47      -0.0009
     18  CD2       22.9120  -13.6010   17.3160 C.ar   47  TYR47      -0.0009
     19  CE1       23.5440  -12.7960   19.8930 C.ar   47  TYR47       0.0417
     20  CE2       22.6070  -14.4210   18.3930 C.ar   47  TYR47       0.0417
     21  CZ        22.9240  -14.0140   19.6760 C.ar   47  TYR47       0.1957
     22  OH        22.6280  -14.8220   20.7460 O.3    47  TYR47      -0.2866
     23  N         24.7170  -16.2450   15.1370 N.3    50  TRP50      -0.1241
     24  CA        23.8260  -16.5370   14.0100 C.3    50  TRP50       0.1605
     25  C         24.4300  -16.0970   12.6820 C.2    50  TRP50       0.2264
     26  O         23.7050  -15.9180   11.7030 O.2    50  TRP50      -0.2867
     27  CB        22.4700  -15.8430   14.1880 C.3    50  TRP50       0.0550
     28  CG        21.6570  -16.3460   15.3460 C.ar   50  TRP50       0.0003
     29  CD1       21.9380  -17.4130   16.1500 C.ar   50  TRP50       0.0946
     30  CD2       20.4250  -15.7920   15.8290 C.ar   50  TRP50       0.0152
     31  NE1       20.9570  -17.5570   17.1060 N.ar   50  TRP50      -0.2442
     32  CE2       20.0160  -16.5760   16.9270 C.ar   50  TRP50       0.0810
     33  CE3       19.6330  -14.7090   15.4400 C.ar   50  TRP50       0.0012
     34  CZ2       18.8470  -16.3110   17.6400 C.ar   50  TRP50       0.0191
     35  CZ3       18.4660  -14.4500   16.1460 C.ar   50  TRP50       0.0001
     36  CH2       18.0880  -15.2470   17.2350 C.ar   50  TRP50       0.0015
     37  N         25.4150  -12.0480   27.3370 N.3    95  ASN95      -0.1225
     38  CA        24.0480  -11.7000   27.7230 C.3    95  ASN95       0.1785
     39  C         23.4390  -10.4890   27.0150 C.2    95  ASN95       0.2597
     40  O         22.4150   -9.9740   27.4540 O.2    95  ASN95      -0.2718
     41  CB        24.0190  -11.4500   29.2290 C.3    95  ASN95       0.1169
     42  CG        24.9510  -10.3180   29.6400 C.2    95  ASN95       0.2627
     43  OD1       25.6990   -9.7970   28.8130 O.2    95  ASN95      -0.2716
     44  ND2       24.9290   -9.9510   30.9200 N.am   95  ASN95      -0.0877
     45  N         24.0650  -10.0360   25.9310 N.am   96  LEU96      -0.1980
     46  CA        23.5950   -8.8500   25.1940 C.3    96  LEU96       0.1596
     47  C         23.6510   -7.5620   26.0140 C.2    96  LEU96       0.2287
     48  O         22.8440   -6.6500   25.8090 O.2    96  LEU96      -0.2864
     49  CB        22.1770   -9.0570   24.6250 C.3    96  LEU96       0.0297
     50  CG        22.0280  -10.1590   23.5800 C.3    96  LEU96       0.0022
     51  CD1       20.5870  -10.2530   23.0600 C.3    96  LEU96       0.0001
     52  CD2       22.9900   -9.9070   22.4340 C.3    96  LEU96       0.0001
     53  N          5.2370  -17.0730   19.3650 N.3   146  GLU146     -0.1245
     54  CA         6.5770  -17.6450   19.4150 C.3   146  GLU146      0.1567
     55  C          6.8030  -18.7090   18.3380 C.2   146  GLU146      0.2260
     56  O          7.8710  -18.7640   17.7230 O.2   146  GLU146     -0.2867
     57  CB         6.8790  -18.2240   20.7980 C.3   146  GLU146      0.0388
     58  CG         8.2600  -18.8320   20.8820 C.3   146  GLU146      0.1160
     59  CD         8.5550  -19.4380   22.2360 C.2   146  GLU146      0.3649
     60  OE1        8.0170  -18.9420   23.2490 O.co2 146  GLU146     -0.2457
     61  OE2        9.3240  -20.4160   22.2760 O.co2 146  GLU146     -0.2457
     62  N         20.0720  -16.1920   33.0890 N.3   172  ILE172     -0.1245
     63  CA        20.9730  -15.2390   32.4320 C.3   172  ILE172      0.1561
     64  C         21.3170  -14.1130   33.4070 C.2   172  ILE172      0.2260
     65  O         20.4750  -13.6950   34.2060 O.2   172  ILE172     -0.2867
     66  CB        20.3420  -14.6890   31.1280 C.3   172  ILE172      0.0252
     67  CG1       20.1390  -15.8350   30.1320 C.3   172  ILE172      0.0019
     68  CG2       21.2060  -13.5800   30.4960 C.3   172  ILE172      0.0019
     69  CD1       19.2060  -15.4870   28.9900 C.3   172  ILE172      0.0001
     70  N          4.1060   -9.2610   24.8190 N.3   192  ASP192     -0.1225
     71  CA         5.5650   -9.2650   24.7880 C.3   192  ASP192      0.1805
     72  C          6.0070   -8.8760   23.3830 C.2   192  ASP192      0.2598
     73  O          5.2110   -8.9070   22.4450 O.2   192  ASP192     -0.2718
     74  CB         6.0670  -10.6830   25.1230 C.3   192  ASP192      0.1424
     75  CG         7.5900  -10.7630   25.3770 C.2   192  ASP192      0.3668
     76  OD1        8.2500   -9.7260   25.5470 O.co2 192  ASP192     -0.2456
     77  OD2        8.1270  -11.8980   25.4220 O.co2 192  ASP192     -0.2456
     78  N          7.2760   -8.5190   23.2420 N.am  193  ALA193     -0.1966
     79  CA         7.8990   -8.4400   21.9330 C.3   193  ALA193      0.1728
     80  C          8.2110   -9.8550   21.4630 C.2   193  ALA193      0.2616
     81  O          8.1060  -10.8070   22.2370 O.2   193  ALA193     -0.2715
     82  CB         9.1800   -7.6000   22.0050 C.3   193  ALA193      0.0334
     83  N          8.5840  -10.0000   20.1940 N.am  194  CYS194     -0.1954
     84  CA         8.9400  -11.3100   19.6640 C.3   194  CYS194      0.1843
     85  C          9.9910  -11.1390   18.5740 C.2   194  CYS194      0.2625
     86  O         10.4710  -10.0260   18.3360 O.2   194  CYS194     -0.2714
     87  CB         7.6960  -12.0180   19.1080 C.3   194  CYS194      0.0997
     88  SG         7.8260  -13.8410   18.9830 S.3   194  CYS194     -0.0797
     89  N         10.3450  -12.2410   17.9190 N.am  195  GLU195     -0.1977
     90  CA        11.2880  -12.2030   16.8060 C.3   195  GLU195      0.1602
     91  C         10.8730  -11.1640   15.7570 C.2   195  GLU195      0.2287
     92  O          9.7290  -11.1490   15.3040 O.2   195  GLU195     -0.2864
     93  CB        11.4030  -13.5900   16.1710 C.3   195  GLU195      0.0415
     94  CG        12.2570  -13.6150   14.9250 C.3   195  GLU195      0.1163
     95  CD        12.3810  -15.0050   14.3320 C.2   195  GLU195      0.3649
     96  OE1       11.9050  -15.9750   14.9640 O.co2 195  GLU195     -0.2457
     97  OE2       12.9550  -15.1220   13.2290 O.co2 195  GLU195     -0.2457
     98  N         12.9860   -6.8270   17.6140 N.3   198  SER198     -0.1217
     99  CA        14.3190   -6.4200   18.0690 C.3   198  SER198      0.1889
    100  C         14.6560   -5.0400   17.5560 C.2   198  SER198      0.2288
    101  O         14.4010   -4.7550   16.3880 O.2   198  SER198     -0.2866
    102  CB        15.3790   -7.3840   17.5050 C.3   198  SER198      0.2089
    103  OG        15.3620   -8.6550   18.1370 O.3   198  SER198     -0.2183
    104  N         14.0060   -2.8240   22.3960 N.3   218  VAL218     -0.1231
    105  CA        13.6770   -4.2500   22.4220 C.3   218  VAL218      0.1692
    106  C         14.9570   -5.0640   22.2410 C.2   218  VAL218      0.2593
    107  O         15.6410   -4.9410   21.2220 O.2   218  VAL218     -0.2718
    108  CB        12.6840   -4.6030   21.3060 C.3   218  VAL218      0.0266
    109  CG1       12.4290   -6.1320   21.2530 C.3   218  VAL218      0.0020
    110  CG2       11.3850   -3.8390   21.5040 C.3   218  VAL218      0.0020
    111  N         15.2890   -5.8950   23.2210 N.am  219  SER219     -0.1938
    112  CA        16.5900   -6.5830   23.1970 C.3   219  SER219      0.2055
    113  C         16.4580   -8.1010   23.1960 C.2   219  SER219      0.2643
    114  O         16.7930   -8.7520   22.2090 O.2   219  SER219     -0.2714
    115  CB        17.4770   -6.1000   24.3670 C.3   219  SER219      0.2130
    116  OG        18.7520   -6.7500   24.3930 O.3   219  SER219     -0.2179
    117  N         15.9720   -8.6790   24.2870 N.am  220  TRP220     -0.1959
    118  CA        15.8910  -10.1420   24.3340 C.3   220  TRP220      0.1771
    119  C         14.8150  -10.7050   25.2550 C.2   220  TRP220      0.2620
    120  O         14.3210  -10.0310   26.1560 O.2   220  TRP220     -0.2715
    121  CB        17.2600  -10.7600   24.6760 C.3   220  TRP220      0.0590
    122  CG        17.7910  -10.4000   26.0340 C.ar  220  TRP220      0.0006
    123  CD1       18.5270   -9.3000   26.3640 C.ar  220  TRP220      0.0946
    124  CD2       17.6420  -11.1590   27.2420 C.ar  220  TRP220      0.0152
    125  NE1       18.8470   -9.3270   27.7000 N.ar  220  TRP220     -0.2442
    126  CE2       18.3040  -10.4510   28.2640 C.ar  220  TRP220      0.0810
    127  CE3       17.0010  -12.3620   27.5580 C.ar  220  TRP220      0.0012
    128  CZ2       18.3550  -10.9110   29.5850 C.ar  220  TRP220      0.0191
    129  CZ3       17.0480  -12.8180   28.8740 C.ar  220  TRP220      0.0001
    130  CH2       17.7220  -12.0940   29.8670 C.ar  220  TRP220      0.0015
    131  N         14.4450  -11.9540   25.0010 N.am  221  GLY221     -0.1940
    132  CA        13.5380  -12.6700   25.8790 C.3   221  GLY221      0.2014
    133  C         13.6100  -14.1610   25.5960 C.2   221  GLY221      0.2639
    134  O         13.8980  -14.5850   24.4830 O.2   221  GLY221     -0.2714
    135  N         13.3790  -14.9670   26.6220 N.am  222  GLU222     -0.1963
    136  CA        13.4150  -16.4060   26.4490 C.3   222  GLU222      0.1733
    137  C         12.0720  -16.8850   25.8850 C.2   222  GLU222      0.2617
    138  O         11.1170  -17.1000   26.6180 O.2   222  GLU222     -0.2715
    139  CB        13.8000  -17.0790   27.7670 C.3   222  GLU222      0.0429
    140  CG        15.1920  -16.6560   28.2340 C.3   222  GLU222      0.1163
    141  CD        15.5470  -17.1880   29.6170 C.2   222  GLU222      0.3649
    142  OE1       15.0580  -16.6320   30.6160 O.co2 222  GLU222     -0.2457
    143  OE2       16.3090  -18.1710   29.6900 O.co2 222  GLU222     -0.2457
    144  N         12.0110  -17.0280   24.5650 N.am  223  GLY223     -0.1940
    145  CA        10.7530  -17.3010   23.8900 C.3   223  GLY223      0.2014
    146  C         10.0360  -15.9850   23.6340 C.2   223  GLY223      0.2639
    147  O         10.6800  -14.9390   23.5610 O.2   223  GLY223     -0.2714
    148  N          8.7140  -16.0380   23.4930 N.am  224  CYS224     -0.1967
    149  CA         7.8930  -14.8380   23.3620 C.3   224  CYS224      0.1712
    150  C          6.6430  -15.0340   24.2070 C.2   224  CYS224      0.2296
    151  O          5.9360  -16.0350   24.0500 O.2   224  CYS224     -0.2864
    152  CB         7.4650  -14.6100   21.9030 C.3   224  CYS224      0.0983
    153  SG         8.7850  -14.4800   20.6810 S.3   224  CYS224     -0.0798
    154  N          6.0600  -15.9410   27.2060 N.3   226  ARG226     -0.1245
    155  CA         5.9590  -17.1270   28.0510 C.3   226  ARG226      0.1563
    156  C          5.6090  -16.7440   29.4790 C.2   226  ARG226      0.2260
    157  O          6.0990  -15.7390   29.9930 O.2   226  ARG226     -0.2867
    158  CB         7.2610  -17.9180   28.0460 C.3   226  ARG226      0.0307
    159  CG         7.5580  -18.6140   26.7340 C.3   226  ARG226      0.0489
    160  CD         8.7960  -19.4840   26.8860 C.3   226  ARG226      0.2205
    161  NE         9.1060  -20.1850   25.6510 N.pl3 226  ARG226     -0.0865
    162  CZ         9.9020  -21.2440   25.5720 C.cat 226  ARG226      0.5346
    163  NH1       10.4720  -21.7340   26.6680 N.pl3 226  ARG226      0.1354
    164  NH2       10.1200  -21.8170   24.3980 N.pl3 226  ARG226      0.1354
    165  N         10.2460   -9.5890   28.9530 N.3   231  GLY231     -0.1210
    166  CA        11.0330   -9.0000   27.8840 C.3   231  GLY231      0.1956
    167  C         12.1080   -8.1340   28.5000 C.2   231  GLY231      0.2612
    168  O         11.8700   -7.4780   29.5130 O.2   231  GLY231     -0.2717
    169  N         13.3020   -8.1530   27.9180 N.am  232  PHE232     -0.1962
    170  CA        14.3940   -7.3390   28.4320 C.3   232  PHE232      0.1771
    171  C         14.7510   -6.2640   27.4390 C.2   232  PHE232      0.2619
    172  O         14.8570   -6.5330   26.2420 O.2   232  PHE232     -0.2715
    173  CB        15.6260   -8.1890   28.7790 C.3   232  PHE232      0.0574
    174  CG        15.4600   -8.9720   30.0430 C.ar  232  PHE232     -0.0200
    175  CD1       14.7150  -10.1390   30.0520 C.ar  232  PHE232     -0.0042
    176  CD2       16.0180   -8.5200   31.2340 C.ar  232  PHE232     -0.0042
    177  CE1       14.5320  -10.8540   31.2260 C.ar  232  PHE232     -0.0003
    178  CE2       15.8480   -9.2320   32.4140 C.ar  232  PHE232     -0.0003
    179  CZ        15.1110  -10.4050   32.4080 C.ar  232  PHE232     -0.0000
    180  N         14.9430   -5.0490   27.9610 N.am  233  TYR233     -0.1974
    181  CA        15.1130   -3.8660   27.1340 C.3   233  TYR233      0.1639
    182  C         16.4140   -3.1540   27.4760 C.2   233  TYR233      0.2290
    183  O         16.7570   -3.0220   28.6400 O.2   233  TYR233     -0.2864
    184  CB        13.9140   -2.9210   27.3420 C.3   233  TYR233      0.0560
    185  CG        12.6220   -3.5730   26.9140 C.ar  233  TYR233     -0.0198
    186  CD1       11.9720   -4.4740   27.7430 C.ar  233  TYR233     -0.0009
    187  CD2       12.0700   -3.3160   25.6600 C.ar  233  TYR233     -0.0009
    188  CE1       10.7990   -5.1100   27.3370 C.ar  233  TYR233      0.0417
    189  CE2       10.9010   -3.9460   25.2510 C.ar  233  TYR233      0.0417
    190  CZ        10.2740   -4.8440   26.0960 C.ar  233  TYR233      0.1957
    191  OH         9.1160   -5.4790   25.6950 O.3   233  TYR233     -0.2866
@<TRIPOS>BOND
     1    26    25    2
     2    25    24    1
     3    97    95   ar
     4    24    27    1
     5    24    23    1
     6    27    28    1
     7    95    94    1
     8    95    96   ar
     9    94    93    1
    10    14    13    2
    11    11    12    1
    12    92    91    2
    13    28    30   ar
    14    28    29   ar
    15    33    30   ar
    16    33    35   ar
    17    13    12    1
    18    91    90    1
    19     4     3    2
    20    30    32   ar
    21    35    36   ar
    22    29    31   ar
    23    93    90    1
    24    12    15    1
    25    15    16    1
    26   101   100    2
    27     3     2    1
    28    90    89    1
    29    32    31   ar
    30    32    34   ar
    31    36    34   ar
    32    18    16   ar
    33    18    20   ar
    34   102    99    1
    35   102   103    1
    36    16    17   ar
    37   100    99    1
    38    98    99    1
    39    56    55    2
    40     2     1    1
    41     2     5    1
    42    89    85   am
    43     8    10   ar
    44     8     6   ar
    45    86    85    2
    46    55    54    1
    47    20    21   ar
    48    85    84    1
    49    10     9   ar
    50    17    19   ar
    51     5     6    1
    52     6     7   ar
    53    88    87    1
    54    88   153    1
    55    87    84    1
    56    53    54    1
    57    54    57    1
    58     9     7   ar
    59    84    83    1
    60    21    19   ar
    61    21    22    1
    62    83    80   am
    63   153   152    1
    64    57    58    1
    65    58    59    1
    66   107   106    2
    67   109   108    1
    68   108   110    1
    69   108   105    1
    70    80    79    1
    71    80    81    2
    72   152   149    1
    73    79    82    1
    74    79    78    1
    75   114   113    2
    76    59    61   ar
    77    59    60   ar
    78   106   105    1
    79   106   111   am
    80   104   105    1
    81    52    50    1
    82    73    72    2
    83    51    50    1
    84   113   112    1
    85   113   117   am
    86   112   111    1
    87   112   115    1
    88    78    72   am
    89   149   148    1
    90   149   150    1
    91    72    71    1
    92   148   146   am
    93   147   146    2
    94    50    49    1
    95   146   145    1
    96   145   144    1
    97   151   150    2
    98   117   118    1
    99   118   121    1
   100   118   119    1
   101   115   116    1
   102   164   162    1
   103   134   133    2
   104   144   137   am
   105    49    46    1
   106   121   122    1
   107    71    70    1
   108    71    74    1
   109   131   119   am
   110   131   132    1
   111    74    75    1
   112    46    45    1
   113    46    47    1
   114   189   187   ar
   115   189   190   ar
   116   119   120    2
   117    75    77   ar
   118    75    76   ar
   119   162   161    2
   120   162   163    1
   121   133   132    1
   122   133   135   am
   123   161   160    1
   124   187   185   ar
   125   191   190    1
   126    48    47    2
   127   137   136    1
   128   137   138    2
   129    45    39   am
   130   122   123   ar
   131   122   124   ar
   132   190   188   ar
   133   172   171    2
   134   123   125   ar
   135   136   135    1
   136   136   139    1
   137   159   160    1
   138   159   158    1
   139   185   184    1
   140   185   186   ar
   141    39    40    2
   142    39    38    1
   143   181   184    1
   144   181   182    1
   145   181   180    1
   146   154   155    1
   147   124   127   ar
   148   124   126   ar
   149    37    38    1
   150   188   186   ar
   151   171   180   am
   152   171   170    1
   153   182   183    2
   154   127   129   ar
   155   125   126   ar
   156    38    41    1
   157   139   140    1
   158   166   167    1
   159   166   165    1
   160   169   170    1
   161   169   167   am
   162   158   155    1
   163   155   156    1
   164   140   141    1
   165   126   128   ar
   166   170   173    1
   167   167   168    2
   168   173   174    1
   169    43    42    2
   170   129   130   ar
   171    69    67    1
   172    41    42    1
   173   156   157    2
   174   128   130   ar
   175   141   143   ar
   176   141   142   ar
   177    42    44   am
   178   174   175   ar
   179   174   176   ar
   180   175   177   ar
   181    67    66    1
   182    68    66    1
   183    66    63    1
   184   177   179   ar
   185   176   178   ar
   186   179   178   ar
   187    63    62    1
   188    63    64    1
   189    64    65    2
