@<TRIPOS>MOLECULE
tmp/3rmoB02.pdb
 223 221 0 0 0
SMALL
GASTEIGER

@<TRIPOS>ATOM
      1  N         22.4520   -5.7290   18.2740 N.3    43  HIS43      -0.1241
      2  CA        22.3090   -7.0940   17.7550 C.3    43  HIS43       0.1621
      3  C         21.5480   -7.1360   16.4280 C.2    43  HIS43       0.2264
      4  O         21.5440   -8.1540   15.7380 O.2    43  HIS43      -0.2867
      5  CB        21.6840   -8.0540   18.7870 C.3    43  HIS43       0.0745
      6  CG        20.1910   -7.9710   18.8870 C.ar   43  HIS43       0.0817
      7  ND1       19.5490   -7.2550   19.8750 N.ar   43  HIS43      -0.2268
      8  CD2       19.2130   -8.5240   18.1270 C.ar   43  HIS43       0.1154
      9  CE1       18.2410   -7.3620   19.7140 C.ar   43  HIS43       0.1986
     10  NE2       18.0110   -8.1350   18.6660 N.ar   43  HIS43      -0.2212
     11  N         25.7370   -9.7150   15.2860 N.3    47  TYR47      -0.1241
     12  CA        25.4770  -10.8280   16.1880 C.3    47  TYR47       0.1605
     13  C         26.1680  -12.0850   15.6570 C.2    47  TYR47       0.2264
     14  O         25.5690  -12.8890   14.9450 O.2    47  TYR47      -0.2867
     15  CB        23.9710  -11.0370   16.4110 C.3    47  TYR47       0.0534
     16  CG        23.7010  -11.9420   17.5820 C.ar   47  TYR47      -0.0201
     17  CD1       24.1510  -11.6080   18.8560 C.ar   47  TYR47      -0.0009
     18  CD2       23.0410  -13.1540   17.4140 C.ar   47  TYR47      -0.0009
     19  CE1       23.9370  -12.4520   19.9370 C.ar   47  TYR47       0.0417
     20  CE2       22.8180  -14.0020   18.4880 C.ar   47  TYR47       0.0417
     21  CZ        23.2730  -13.6500   19.7480 C.ar   47  TYR47       0.1957
     22  OH        23.0680  -14.4970   20.8230 O.3    47  TYR47      -0.2866
     23  N         24.9690  -15.8060   15.1090 N.3    50  TRP50      -0.1241
     24  CA        24.0650  -16.0650   13.9910 C.3    50  TRP50       0.1605
     25  C         24.6640  -15.6170   12.6600 C.2    50  TRP50       0.2264
     26  O         23.9410  -15.4680   11.6700 O.2    50  TRP50      -0.2867
     27  CB        22.7250  -15.3540   14.1950 C.3    50  TRP50       0.0550
     28  CG        21.9040  -15.8800   15.3270 C.ar   50  TRP50       0.0003
     29  CD1       22.1720  -16.9720   16.1030 C.ar   50  TRP50       0.0946
     30  CD2       20.6720  -15.3360   15.8110 C.ar   50  TRP50       0.0152
     31  NE1       21.1820  -17.1410   17.0390 N.ar   50  TRP50      -0.2442
     32  CE2       20.2490  -16.1480   16.8820 C.ar   50  TRP50       0.0810
     33  CE3       19.8840  -14.2410   15.4420 C.ar   50  TRP50       0.0012
     34  CZ2       19.0730  -15.8990   17.5890 C.ar   50  TRP50       0.0191
     35  CZ3       18.7180  -13.9960   16.1460 C.ar   50  TRP50       0.0001
     36  CH2       18.3230  -14.8210   17.2050 C.ar   50  TRP50       0.0015
     37  N         28.0110   -9.0370   22.9220 N.3    92  TRP92      -0.1241
     38  CA        27.2480  -10.0430   22.1900 C.3    92  TRP92       0.1605
     39  C         27.6030  -11.4540   22.6370 C.2    92  TRP92       0.2264
     40  O         26.9160  -12.4120   22.2860 O.2    92  TRP92      -0.2867
     41  CB        27.4650   -9.9110   20.6770 C.3    92  TRP92       0.0550
     42  CG        28.9120   -9.8680   20.2520 C.ar   92  TRP92       0.0003
     43  CD1       29.6630   -8.7500   20.0290 C.ar   92  TRP92       0.0946
     44  CD2       29.7690  -10.9880   19.9780 C.ar   92  TRP92       0.0152
     45  NE1       30.9340   -9.1030   19.6380 N.ar   92  TRP92      -0.2442
     46  CE2       31.0260  -10.4710   19.6030 C.ar   92  TRP92       0.0810
     47  CE3       29.5960  -12.3760   20.0160 C.ar   92  TRP92       0.0012
     48  CZ2       32.1030  -11.2920   19.2690 C.ar   92  TRP92       0.0191
     49  CZ3       30.6640  -13.1890   19.6780 C.ar   92  TRP92       0.0001
     50  CH2       31.9010  -12.6440   19.3130 C.ar   92  TRP92       0.0015
     51  N         27.8560  -12.6710   25.8250 N.3    94  GLU94      -0.1231
     52  CA        27.2200  -13.1760   27.0350 C.3    94  GLU94       0.1699
     53  C         25.7400  -12.8410   27.1550 C.2    94  GLU94       0.2592
     54  O         24.9030  -13.7390   27.1720 O.2    94  GLU94      -0.2718
     55  CB        27.9370  -12.6780   28.2900 C.3    94  GLU94       0.0402
     56  CG        27.2990  -13.2370   29.5480 C.3    94  GLU94       0.1161
     57  CD        27.8100  -12.6040   30.8250 C.2    94  GLU94       0.3649
     58  OE1       28.7270  -11.7550   30.7650 O.co2  94  GLU94      -0.2457
     59  OE2       27.2780  -12.9610   31.8970 O.co2  94  GLU94      -0.2457
     60  N         25.4190  -11.5520   27.2490 N.am   95  ASN95      -0.1960
     61  CA        24.1010  -11.1380   27.7260 C.3    95  ASN95       0.1819
     62  C         23.5290   -9.9080   27.0160 C.2    95  ASN95       0.2621
     63  O         22.5730   -9.3010   27.4970 O.2    95  ASN95      -0.2715
     64  CB        24.1510  -10.8680   29.2350 C.3    95  ASN95       0.1195
     65  CG        25.1580   -9.8000   29.6010 C.2    95  ASN95       0.2630
     66  OD1       25.8590   -9.2690   28.7350 O.2    95  ASN95      -0.2716
     67  ND2       25.2200   -9.4550   30.8850 N.am   95  ASN95      -0.0877
     68  N         24.1090   -9.5470   25.8750 N.am   96  LEU96      -0.1977
     69  CA        23.6810   -8.3610   25.1240 C.3    96  LEU96       0.1596
     70  C         23.7870   -7.0680   25.9470 C.2    96  LEU96       0.2287
     71  O         23.0340   -6.1210   25.7260 O.2    96  LEU96      -0.2864
     72  CB        22.2570   -8.5470   24.5740 C.3    96  LEU96       0.0297
     73  CG        22.0920   -9.6870   23.5640 C.3    96  LEU96       0.0022
     74  CD1       20.6520   -9.7600   23.0610 C.3    96  LEU96       0.0001
     75  CD2       23.0440   -9.5240   22.3980 C.3    96  LEU96       0.0001
     76  N          5.3230  -16.5210   19.4350 N.3   146  GLU146     -0.1245
     77  CA         6.6500  -17.1140   19.4750 C.3   146  GLU146      0.1567
     78  C          6.8100  -18.1790   18.3960 C.2   146  GLU146      0.2260
     79  O          7.8410  -18.2490   17.7280 O.2   146  GLU146     -0.2867
     80  CB         6.9440  -17.7130   20.8500 C.3   146  GLU146      0.0388
     81  CG         8.3210  -18.3440   20.9310 C.3   146  GLU146      0.1160
     82  CD         8.6150  -18.9550   22.2840 C.2   146  GLU146      0.3649
     83  OE1        8.0820  -18.4740   23.3060 O.co2 146  GLU146     -0.2457
     84  OE2        9.3880  -19.9290   22.3210 O.co2 146  GLU146     -0.2457
     85  N         20.2090  -15.5840   32.8990 N.3   172  ILE172     -0.1245
     86  CA        21.0950  -14.6150   32.2660 C.3   172  ILE172      0.1561
     87  C         21.5130  -13.5510   33.2760 C.2   172  ILE172      0.2260
     88  O         20.7060  -13.1320   34.1120 O.2   172  ILE172     -0.2867
     89  CB        20.3920  -13.9290   31.0710 C.3   172  ILE172      0.0252
     90  CG1       20.0590  -14.9600   29.9850 C.3   172  ILE172      0.0019
     91  CG2       21.2520  -12.7930   30.5160 C.3   172  ILE172      0.0019
     92  CD1       21.2540  -15.3950   29.1840 C.3   172  ILE172      0.0001
     93  N          4.2280   -8.7980   24.8470 N.3   192  ASP192     -0.1225
     94  CA         5.6860   -8.8250   24.7880 C.3   192  ASP192      0.1805
     95  C          6.1080   -8.4030   23.3940 C.2   192  ASP192      0.2598
     96  O          5.3010   -8.4000   22.4620 O.2   192  ASP192     -0.2718
     97  CB         6.1970  -10.2500   25.0720 C.3   192  ASP192      0.1424
     98  CG         7.6960  -10.3090   25.3860 C.2   192  ASP192      0.3668
     99  OD1        8.3360   -9.2530   25.5730 O.co2 192  ASP192     -0.2456
    100  OD2        8.2340  -11.4380   25.4610 O.co2 192  ASP192     -0.2456
    101  N          7.3780   -8.0450   23.2570 N.am  193  ALA193     -0.1966
    102  CA         8.0010   -7.9750   21.9470 C.3   193  ALA193      0.1728
    103  C          8.2850   -9.3980   21.4790 C.2   193  ALA193      0.2616
    104  O          8.1670  -10.3570   22.2490 O.2   193  ALA193     -0.2715
    105  CB         9.2800   -7.1810   22.0220 C.3   193  ALA193      0.0334
    106  N          8.6460   -9.5370   20.2110 N.am  194  CYS194     -0.1954
    107  CA         8.9970  -10.8400   19.6720 C.3   194  CYS194      0.1843
    108  C         10.0320  -10.6780   18.5600 C.2   194  CYS194      0.2625
    109  O         10.5100   -9.5700   18.2980 O.2   194  CYS194     -0.2714
    110  CB         7.7400  -11.5600   19.1640 C.3   194  CYS194      0.0997
    111  SG         7.8770  -13.3900   19.0680 S.3   194  CYS194     -0.0797
    112  N         10.3940  -11.7870   17.9270 N.am  195  GLU195     -0.1977
    113  CA        11.3040  -11.7710   16.7930 C.3   195  GLU195      0.1602
    114  C         10.8580  -10.7450   15.7550 C.2   195  GLU195      0.2287
    115  O          9.6950  -10.7280   15.3430 O.2   195  GLU195     -0.2864
    116  CB        11.3620  -13.1620   16.1560 C.3   195  GLU195      0.0415
    117  CG        12.2960  -13.2560   14.9740 C.3   195  GLU195      0.1163
    118  CD        12.3420  -14.6460   14.3710 C.2   195  GLU195      0.3649
    119  OE1       11.7320  -15.5780   14.9400 O.co2 195  GLU195     -0.2457
    120  OE2       12.9960  -14.8030   13.3240 O.co2 195  GLU195     -0.2457
    121  N         13.0540   -6.4400   17.6100 N.3   198  SER198     -0.1217
    122  CA        14.4030   -6.0250   17.9970 C.3   198  SER198      0.1889
    123  C         14.7440   -4.6390   17.4910 C.2   198  SER198      0.2288
    124  O         14.5010   -4.3330   16.3300 O.2   198  SER198     -0.2866
    125  CB        15.4330   -6.9960   17.4200 C.3   198  SER198      0.2089
    126  OG        15.3990   -8.2310   18.1000 O.3   198  SER198     -0.2183
    127  N         14.1640   -2.4130   22.3390 N.3   218  VAL218     -0.1231
    128  CA        13.8140   -3.8320   22.3930 C.3   218  VAL218      0.1692
    129  C         15.0880   -4.6620   22.2160 C.2   218  VAL218      0.2593
    130  O         15.7420   -4.5820   21.1760 O.2   218  VAL218     -0.2718
    131  CB        12.7860   -4.2010   21.2860 C.3   218  VAL218      0.0266
    132  CG1       12.5080   -5.7130   21.2840 C.3   218  VAL218      0.0020
    133  CG2       11.4890   -3.4200   21.4500 C.3   218  VAL218      0.0020
    134  N         15.4420   -5.4460   23.2320 N.am  219  SER219     -0.1938
    135  CA        16.7160   -6.1560   23.2380 C.3   219  SER219      0.2055
    136  C         16.5590   -7.6770   23.2390 C.2   219  SER219      0.2643
    137  O         16.9070   -8.3310   22.2500 O.2   219  SER219     -0.2714
    138  CB        17.5920   -5.6770   24.4050 C.3   219  SER219      0.2130
    139  OG        18.8710   -6.2920   24.3850 O.3   219  SER219     -0.2179
    140  N         16.0540   -8.2510   24.3290 N.am  220  TRP220     -0.1959
    141  CA        15.9740   -9.7110   24.3990 C.3   220  TRP220      0.1771
    142  C         14.8740  -10.2470   25.2970 C.2   220  TRP220      0.2620
    143  O         14.3540   -9.5470   26.1700 O.2   220  TRP220     -0.2715
    144  CB        17.3220  -10.3250   24.7880 C.3   220  TRP220      0.0590
    145  CG        17.8530   -9.9590   26.1540 C.ar  220  TRP220      0.0006
    146  CD1       18.6710   -8.9050   26.4630 C.ar  220  TRP220      0.0946
    147  CD2       17.6500  -10.6790   27.3800 C.ar  220  TRP220      0.0152
    148  NE1       18.9750   -8.9170   27.8050 N.ar  220  TRP220     -0.2442
    149  CE2       18.3600   -9.9920   28.3900 C.ar  220  TRP220      0.0810
    150  CE3       16.9290  -11.8300   27.7250 C.ar  220  TRP220      0.0012
    151  CZ2       18.3770  -10.4200   29.7180 C.ar  220  TRP220      0.0191
    152  CZ3       16.9480  -12.2550   29.0530 C.ar  220  TRP220      0.0001
    153  CH2       17.6620  -11.5450   30.0310 C.ar  220  TRP220      0.0015
    154  N         14.5260  -11.5050   25.0530 N.am  221  GLY221     -0.1940
    155  CA        13.5330  -12.2030   25.8310 C.3   221  GLY221      0.2014
    156  C         13.6590  -13.6870   25.5520 C.2   221  GLY221      0.2639
    157  O         13.9550  -14.1080   24.4280 O.2   221  GLY221     -0.2714
    158  N         13.4400  -14.4930   26.5780 N.am  222  GLU222     -0.1963
    159  CA        13.5120  -15.9350   26.4200 C.3   222  GLU222      0.1733
    160  C         12.1920  -16.4360   25.8400 C.2   222  GLU222      0.2617
    161  O         11.2370  -16.7010   26.5680 O.2   222  GLU222     -0.2715
    162  CB        13.8330  -16.5700   27.7630 C.3   222  GLU222      0.0429
    163  CG        15.2020  -16.1350   28.2720 C.3   222  GLU222      0.1163
    164  CD        15.5580  -16.7330   29.6100 C.2   222  GLU222      0.3649
    165  OE1       15.1520  -16.1680   30.6370 O.co2 222  GLU222     -0.2457
    166  OE2       16.2440  -17.7750   29.6260 O.co2 222  GLU222     -0.2457
    167  N         12.1480  -16.5470   24.5160 N.am  223  GLY223     -0.1940
    168  CA        10.9060  -16.7880   23.7970 C.3   223  GLY223      0.2014
    169  C         10.1700  -15.4750   23.5780 C.2   223  GLY223      0.2639
    170  O         10.7940  -14.4100   23.5230 O.2   223  GLY223     -0.2714
    171  N          8.8460  -15.5410   23.4480 N.am  224  CYS224     -0.1967
    172  CA         8.0110  -14.3370   23.4050 C.3   224  CYS224      0.1712
    173  C          6.7620  -14.5600   24.2480 C.2   224  CYS224      0.2296
    174  O          6.0760  -15.5700   24.0820 O.2   224  CYS224     -0.2864
    175  CB         7.5800  -14.0010   21.9710 C.3   224  CYS224      0.0983
    176  SG         8.8890  -14.0230   20.7330 S.3   224  CYS224     -0.0798
    177  N          6.1820  -15.4820   27.2670 N.3   226  ARG226     -0.1245
    178  CA         6.0730  -16.6550   28.1250 C.3   226  ARG226      0.1563
    179  C          5.7240  -16.2550   29.5490 C.2   226  ARG226      0.2260
    180  O          6.2180  -15.2450   30.0630 O.2   226  ARG226     -0.2867
    181  CB         7.3650  -17.4710   28.1300 C.3   226  ARG226      0.0307
    182  CG         7.7020  -18.1060   26.8040 C.3   226  ARG226      0.0489
    183  CD         8.8680  -19.0600   26.9540 C.3   226  ARG226      0.2205
    184  NE         9.1800  -19.7180   25.6930 N.pl3 226  ARG226     -0.0865
    185  CZ        10.0600  -20.7040   25.5660 C.cat 226  ARG226      0.5346
    186  NH1       10.7160  -21.1530   26.6300 N.pl3 226  ARG226      0.1354
    187  NH2       10.2780  -21.2450   24.3780 N.pl3 226  ARG226      0.1354
    188  N          8.4360  -15.0440   32.2270 N.3   229  LYS229     -0.1245
    189  CA         9.5400  -14.3500   31.5660 C.3   229  LYS229      0.1561
    190  C          9.1570  -12.8910   31.3370 C.2   229  LYS229      0.2260
    191  O          7.9780  -12.5350   31.4150 O.2   229  LYS229     -0.2867
    192  CB         9.8850  -15.0090   30.2290 C.3   229  LYS229      0.0271
    193  CG        10.3020  -16.4710   30.3410 C.3   229  LYS229      0.0035
    194  CD        11.6090  -16.6310   31.1150 C.3   229  LYS229      0.0206
    195  CE        12.1440  -18.0620   31.0450 C.3   229  LYS229      0.1093
    196  NZ        13.4420  -18.1880   31.7710 N.3   229  LYS229     -0.1314
    197  N         10.3930   -9.0990   28.9740 N.3   231  GLY231     -0.1210
    198  CA        11.1870   -8.5340   27.9050 C.3   231  GLY231      0.1956
    199  C         12.2410   -7.6490   28.5250 C.2   231  GLY231      0.2612
    200  O         11.9790   -6.9610   29.5170 O.2   231  GLY231     -0.2717
    201  N         13.4400   -7.6930   27.9560 N.am  232  PHE232     -0.1962
    202  CA        14.5400   -6.8690   28.4180 C.3   232  PHE232      0.1771
    203  C         14.8840   -5.8020   27.3870 C.2   232  PHE232      0.2619
    204  O         14.9650   -6.0680   26.1710 O.2   232  PHE232     -0.2715
    205  CB        15.7540   -7.7360   28.7750 C.3   232  PHE232      0.0574
    206  CG        15.5800   -8.4880   30.0590 C.ar  232  PHE232     -0.0200
    207  CD1       14.7910   -9.6340   30.1090 C.ar  232  PHE232     -0.0042
    208  CD2       16.1670   -8.0300   31.2320 C.ar  232  PHE232     -0.0042
    209  CE1       14.6070  -10.3190   31.3030 C.ar  232  PHE232     -0.0003
    210  CE2       15.9920   -8.7140   32.4290 C.ar  232  PHE232     -0.0003
    211  CZ        15.2110   -9.8610   32.4610 C.ar  232  PHE232     -0.0000
    212  N         15.0850   -4.5870   27.8960 N.am  233  TYR233     -0.1974
    213  CA        15.2450   -3.3940   27.0850 C.3   233  TYR233      0.1639
    214  C         16.5450   -2.6800   27.4380 C.2   233  TYR233      0.2290
    215  O         16.8990   -2.5570   28.6120 O.2   233  TYR233     -0.2864
    216  CB        14.0410   -2.4570   27.3100 C.3   233  TYR233      0.0560
    217  CG        12.7410   -3.1060   26.9060 C.ar  233  TYR233     -0.0198
    218  CD1       12.0690   -3.9700   27.7670 C.ar  233  TYR233     -0.0009
    219  CD2       12.2220   -2.9230   25.6270 C.ar  233  TYR233     -0.0009
    220  CE1       10.8950   -4.6120   27.3670 C.ar  233  TYR233      0.0417
    221  CE2       11.0500   -3.5500   25.2270 C.ar  233  TYR233      0.0417
    222  CZ        10.3950   -4.3940   26.0990 C.ar  233  TYR233      0.1957
    223  OH         9.2470   -5.0250   25.6860 O.3   233  TYR233     -0.2866
@<TRIPOS>BOND
     1    26    25    2
     2    25    24    1
     3   120   118   ar
     4    24    27    1
     5    24    23    1
     6    27    28    1
     7   118   119   ar
     8   118   117    1
     9    14    13    2
    10   117   116    1
    11    11    12    1
    12    28    30   ar
    13    28    29   ar
    14   115   114    2
    15    33    30   ar
    16    33    35   ar
    17    13    12    1
    18     4     3    2
    19   114   113    1
    20    30    32   ar
    21    29    31   ar
    22    35    36   ar
    23   116   113    1
    24    12    15    1
    25   124   123    2
    26    15    16    1
    27     3     2    1
    28   113   112    1
    29    32    31   ar
    30    32    34   ar
    31    36    34   ar
    32    18    16   ar
    33    18    20   ar
    34   125   122    1
    35   125   126    1
    36   123   122    1
    37    16    17   ar
    38   121   122    1
    39    79    78    2
    40     2     1    1
    41     2     5    1
    42   112   108   am
    43     8    10   ar
    44     8     6   ar
    45   109   108    2
    46    78    77    1
    47    20    21   ar
    48   108   107    1
    49    10     9   ar
    50     5     6    1
    51    17    19   ar
    52     6     7   ar
    53   111   110    1
    54   111   176    1
    55   110   107    1
    56    48    50   ar
    57    48    46   ar
    58    50    49   ar
    59    76    77    1
    60    77    80    1
    61    46    45   ar
    62    46    44   ar
    63    45    43   ar
    64   107   106    1
    65    49    47   ar
    66     9     7   ar
    67    21    19   ar
    68    21    22    1
    69    44    47   ar
    70    44    42   ar
    71    43    42   ar
    72   106   103   am
    73    42    41    1
    74    41    38    1
    75   176   175    1
    76    80    81    1
    77    81    82    1
    78   130   129    2
    79   132   131    1
    80   131   133    1
    81   131   128    1
    82   103   102    1
    83   103   104    2
    84   102   105    1
    85   102   101    1
    86   175   172    1
    87    38    39    1
    88    38    37    1
    89   129   128    1
    90   129   134   am
    91   137   136    2
    92    82    84   ar
    93    82    83   ar
    94    40    39    2
    95   127   128    1
    96    75    73    1
    97    96    95    2
    98    74    73    1
    99   134   135    1
   100   135   136    1
   101   135   138    1
   102   136   140   am
   103   101    95   am
   104    95    94    1
   105   172   171    1
   106   172   173    1
   107   171   169   am
   108   170   169    2
   109    73    72    1
   110   169   168    1
   111   168   167    1
   112   174   173    2
   113   140   141    1
   114   187   185    1
   115   139   138    1
   116   141   144    1
   117   141   142    1
   118   157   156    2
   119   167   160   am
   120    72    69    1
   121    94    93    1
   122    94    97    1
   123   144   145    1
   124   154   142   am
   125   154   155    1
   126    97    98    1
   127    69    68    1
   128    69    70    1
   129   221   219   ar
   130   221   222   ar
   131   142   143    2
   132    98   100   ar
   133    98    99   ar
   134   156   155    1
   135   156   158   am
   136   185   184    2
   137   185   186    1
   138   219   217   ar
   139   223   222    1
   140   184   183    1
   141    71    70    2
   142    51    52    1
   143   160   159    1
   144   160   161    2
   145    68    62   am
   146   222   220   ar
   147   145   146   ar
   148   145   147   ar
   149   204   203    2
   150   159   158    1
   151   159   162    1
   152   146   148   ar
   153   182   183    1
   154   182   181    1
   155   217   216    1
   156   217   218   ar
   157    62    63    2
   158    62    61    1
   159    52    53    1
   160    52    55    1
   161   213   216    1
   162   213   214    1
   163   213   212    1
   164    53    54    2
   165    53    60   am
   166    60    61    1
   167   177   178    1
   168   220   218   ar
   169   147   150   ar
   170   147   149   ar
   171   203   212   am
   172   203   202    1
   173   214   215    2
   174   150   152   ar
   175    61    64    1
   176   162   163    1
   177   148   149   ar
   178   198   199    1
   179   198   197    1
   180   201   202    1
   181   201   199   am
   182   178   181    1
   183   178   179    1
   184   163   164    1
   185    55    56    1
   186   149   151   ar
   187   202   205    1
   188   199   200    2
   189    66    65    2
   190   205   206    1
   191   152   153   ar
   192    92    90    1
   193    64    65    1
   194    56    57    1
   195   179   180    2
   196    65    67   am
   197   164   166   ar
   198   164   165   ar
   199   151   153   ar
   200    90    89    1
   201   206   207   ar
   202   206   208   ar
   203   207   209   ar
   204   192   193    1
   205   192   189    1
   206   193   194    1
   207    91    89    1
   208    58    57   ar
   209    57    59   ar
   210   195   194    1
   211   195   196    1
   212    89    86    1
   213   208   210   ar
   214   209   211   ar
   215   190   191    2
   216   190   189    1
   217   189   188    1
   218    86    85    1
   219    86    87    1
   220   210   211   ar
   221    87    88    2
