@<TRIPOS>MOLECULE
tmp/3rmwA00.pdb
 172 163 0 0 0
SMALL
GASTEIGER

@<TRIPOS>ATOM
      1  N         14.2020   19.5430    9.4550 N.3    10  LEU10      -0.1231
      2  CA        14.8470   20.6740    8.8130 C.3    10  LEU10       0.1693
      3  C         14.5390   20.6470    7.3560 C.2    10  LEU10       0.2593
      4  O         14.6970   19.6030    6.7080 O.2    10  LEU10      -0.2718
      5  CB        16.3830   20.5860    8.9720 C.3    10  LEU10       0.0284
      6  CG        17.2460   21.5570    8.1480 C.3    10  LEU10       0.0019
      7  CD1       17.0340   23.0120    8.6220 C.3    10  LEU10       0.0001
      8  CD2       18.7280   21.1580    8.2540 C.3    10  LEU10       0.0001
      9  N         14.1000   21.7750    6.8230 N.am   11  THR11      -0.1939
     10  CA        14.0800   21.9480    5.3850 C.3    11  THR11       0.2028
     11  C         14.4850   23.3360    4.9480 C.2    11  THR11       0.2643
     12  O         13.9140   24.3160    5.4110 O.2    11  THR11      -0.2714
     13  CB        12.7260   21.5890    4.7450 C.3    11  THR11       0.1808
     14  OG1       12.8840   21.6420    3.3170 O.3    11  THR11      -0.2208
     15  CG2       11.5550   22.5640    5.1940 C.3    11  THR11       0.0379
     16  N         15.4240   23.4020    3.9850 N.am   12  THR12      -0.1936
     17  CA        15.8830   24.6720    3.4040 C.3    12  THR12       0.2028
     18  C         15.3170   24.9400    1.9950 C.2    12  THR12       0.2642
     19  O         15.5930   25.9770    1.4120 O.2    12  THR12      -0.2714
     20  CB        17.4390   24.7350    3.3480 C.3    12  THR12       0.1808
     21  OG1       17.9040   23.7470    2.4190 O.3    12  THR12      -0.2208
     22  CG2       18.0370   24.4470    4.7230 C.3    12  THR12       0.0379
     23  N         14.4860   24.0410    1.4780 N.am   13  ASN13      -0.1971
     24  CA        13.8390   24.2440    0.1830 C.3    13  ASN13       0.1688
     25  C         12.5470   23.4210    0.0610 C.2    13  ASN13       0.2292
     26  O         12.2020   22.6550    0.9700 O.2    13  ASN13      -0.2864
     27  CB        14.8090   23.9640   -0.9860 C.3    13  ASN13       0.1181
     28  CG        15.3750   22.5680   -0.9500 C.2    13  ASN13       0.2629
     29  OD1       14.6280   21.5670   -0.8700 O.2    13  ASN13      -0.2716
     30  ND2       16.6880   22.4810   -0.9630 N.am   13  ASN13      -0.0877
     31  N         12.9530   19.2070   -0.0650 N.3    16  TYR16      -0.1241
     32  CA        13.0770   18.5420    1.2040 C.3    16  TYR16       0.1605
     33  C         11.8360   18.7550    2.0620 C.2    16  TYR16       0.2264
     34  O         11.5440   17.9170    2.9040 O.2    16  TYR16      -0.2867
     35  CB        14.3260   18.9900    1.9420 C.3    16  TYR16       0.0534
     36  CG        15.5920   18.2670    1.5060 C.ar   16  TYR16      -0.0201
     37  CD1       16.3430   18.7160    0.4100 C.ar   16  TYR16      -0.0009
     38  CD2       16.0240   17.1140    2.1680 C.ar   16  TYR16      -0.0009
     39  CE1       17.5350   18.0610    0.0270 C.ar   16  TYR16       0.0417
     40  CE2       17.2150   16.4350    1.7760 C.ar   16  TYR16       0.0417
     41  CZ        17.9440   16.9130    0.6940 C.ar   16  TYR16       0.1957
     42  OH        19.1280   16.2870    0.3240 O.3    16  TYR16      -0.2866
     43  N         23.5050   25.1760    5.1640 N.3    83  VAL83      -0.1245
     44  CA        22.5640   24.1770    5.5600 C.3    83  VAL83       0.1561
     45  C         22.9010   23.5700    6.9130 C.2    83  VAL83       0.2260
     46  O         22.0230   23.4000    7.7440 O.2    83  VAL83      -0.2867
     47  CB        22.4310   23.0630    4.5090 C.3    83  VAL83       0.0252
     48  CG1       21.4860   21.9640    5.0490 C.3    83  VAL83       0.0019
     49  CG2       21.9600   23.6660    3.1710 C.3    83  VAL83       0.0019
     50  N         20.8280   23.6190   10.4900 N.3    87  LYS87      -0.1245
     51  CA        20.5630   22.4280   11.2710 C.3    87  LYS87       0.1561
     52  C         20.9810   22.5830   12.7340 C.2    87  LYS87       0.2260
     53  O         20.2560   22.1480   13.6220 O.2    87  LYS87      -0.2867
     54  CB        21.2710   21.2100   10.6820 C.3    87  LYS87       0.0271
     55  CG        20.9330   19.9400   11.4270 C.3    87  LYS87       0.0035
     56  CD        21.5610   18.7450   10.8550 C.3    87  LYS87       0.0206
     57  CE        21.4710   17.5740   11.8500 C.3    87  LYS87       0.1093
     58  NZ        21.8720   16.3310   11.2260 N.3    87  LYS87      -0.1314
     59  N         16.1510   14.9020   16.8030 N.3   101  PHE101     -0.1241
     60  CA        16.3320   15.3650   15.4470 C.3   101  PHE101      0.1605
     61  C         16.1620   14.2160   14.4620 C.2   101  PHE101      0.2264
     62  O         16.7120   13.1390   14.6560 O.2   101  PHE101     -0.2867
     63  CB        17.7110   15.9410   15.2300 C.3   101  PHE101      0.0534
     64  CG        17.8670   16.5300   13.8920 C.ar  101  PHE101     -0.0203
     65  CD1       18.3160   15.7570   12.8330 C.ar  101  PHE101     -0.0042
     66  CD2       17.3650   17.7950   13.6300 C.ar  101  PHE101     -0.0042
     67  CE1       18.3420   16.2620   11.5580 C.ar  101  PHE101     -0.0003
     68  CE2       17.4070   18.3130   12.3370 C.ar  101  PHE101     -0.0003
     69  CZ        17.9180   17.5360   11.3050 C.ar  101  PHE101     -0.0000
     70  N         16.3690   13.7920   10.0780 N.3   103  ASP103     -0.1225
     71  CA        16.4890   14.2280    8.6790 C.3   103  ASP103      0.1805
     72  C         15.1420   14.2320    7.9440 C.2   103  ASP103      0.2598
     73  O         14.2880   13.3790    8.1750 O.2   103  ASP103     -0.2718
     74  CB        17.4190   13.2660    7.9110 C.3   103  ASP103      0.1424
     75  CG        18.9110   13.6970    7.9020 C.2   103  ASP103      0.3668
     76  OD1       19.2870   14.5900    8.7080 O.co2 103  ASP103     -0.2456
     77  OD2       19.6860   13.0850    7.0740 O.co2 103  ASP103     -0.2456
     78  N         14.9940   15.1460    6.9870 N.am  104  ALA104     -0.1966
     79  CA        13.7620   15.2520    6.2330 C.3   104  ALA104      0.1728
     80  C         13.5940   14.0860    5.2630 C.2   104  ALA104      0.2616
     81  O         12.5020   13.8680    4.7540 O.2   104  ALA104     -0.2715
     82  CB        13.7080   16.5770    5.4780 C.3   104  ALA104      0.0334
     83  N         14.6790   13.3430    5.0180 N.am  105  ASP105     -0.1971
     84  CA        14.6620   12.1180    4.1950 C.3   105  ASP105      0.1709
     85  C         14.5310   10.8420    5.0220 C.2   105  ASP105      0.2293
     86  O         15.0730    9.7720    4.6630 O.2   105  ASP105     -0.2864
     87  CB        15.9100   12.0590    3.2720 C.3   105  ASP105      0.1436
     88  CG        17.2590   11.9120    4.0430 C.2   105  ASP105      0.3671
     89  OD1       17.4560   12.4220    5.1720 O.co2 105  ASP105     -0.2456
     90  OD2       18.1770   11.2810    3.5000 O.co2 105  ASP105     -0.2456
     91  N         25.4980    8.1600   12.7950 N.3   134  ASN134     -0.1225
     92  CA        24.8290    8.8960   11.7270 C.3   134  ASN134      0.1785
     93  C         24.0080    9.9840   12.3550 C.2   134  ASN134      0.2598
     94  O         23.2610    9.7340   13.2900 O.2   134  ASN134     -0.2718
     95  CB        23.9270    7.9630   10.8910 C.3   134  ASN134      0.1169
     96  CG        23.3210    8.6670    9.6760 C.2   134  ASN134      0.2627
     97  OD1       22.2350    9.1850    9.7510 O.2   134  ASN134     -0.2716
     98  ND2       24.0350    8.6400    8.5280 N.am  134  ASN134     -0.0877
     99  N         24.1030   11.1870   11.7990 N.am  135  SER135     -0.1938
    100  CA        23.5160   12.3610   12.4160 C.3   135  SER135      0.2055
    101  C         22.0970   12.6680   11.8660 C.2   135  SER135      0.2643
    102  O         21.5660   13.7860   12.0550 O.2   135  SER135     -0.2714
    103  CB        24.4530   13.5400   12.2080 C.3   135  SER135      0.2130
    104  OG        24.5230   13.8940   10.8490 O.3   135  SER135     -0.2179
    105  N         21.5250   11.6920   11.1560 N.am  136  GLY136     -0.1954
    106  CA        20.1690   11.7820   10.6550 C.3   136  GLY136      0.1869
    107  C         19.0910   11.5030   11.6890 C.2   136  GLY136      0.2309
    108  O         17.9300   11.8210   11.4590 O.2   136  GLY136     -0.2863
    109  N         32.2740   17.8000    3.3900 N.3   161  ASP161     -0.1239
    110  CA        31.0860   17.4900    2.5590 C.3   161  ASP161      0.1674
    111  C         29.8720   18.3770    2.8490 C.2   161  ASP161      0.2266
    112  O         28.8200   18.2200    2.2190 O.2   161  ASP161     -0.2867
    113  CB        30.7160   15.9890    2.6230 C.3   161  ASP161      0.1410
    114  CG        30.1260   15.5600    3.9570 C.2   161  ASP161      0.3668
    115  OD1       29.8320   16.4160    4.8300 O.co2 161  ASP161     -0.2456
    116  OD2       29.9340   14.3250    4.1150 O.co2 161  ASP161     -0.2456
    117  N         28.1990   18.4900    5.4860 N.3   163  GLY163     -0.1210
    118  CA        27.3800   17.8570    6.5150 C.3   163  GLY163      0.1956
    119  C         27.8050   18.1730    7.9360 C.2   163  GLY163      0.2612
    120  O         28.9120   18.6420    8.1950 O.2   163  GLY163     -0.2717
    121  N         26.9140   17.8770    8.8630 N.am  164  ASP164     -0.1959
    122  CA        27.1740   18.1110   10.2610 C.3   164  ASP164      0.1840
    123  C         27.7050   16.8850   10.9840 C.2   164  ASP164      0.2622
    124  O         28.0830   16.9650   12.1480 O.2   164  ASP164     -0.2715
    125  CB        25.8840   18.5300   10.9230 C.3   164  ASP164      0.1450
    126  CG        24.9140   17.3830   11.0450 C.2   164  ASP164      0.3671
    127  OD1       24.5450   16.7910   10.0060 O.co2 164  ASP164     -0.2456
    128  OD2       24.5090   17.0920   12.1730 O.co2 164  ASP164     -0.2456
    129  N         27.7740   15.7480   10.3020 N.am  165  GLN165     -0.1963
    130  CA        28.1080   14.5010   10.9950 C.3   165  GLN165      0.1733
    131  C         29.4940   14.5090   11.6070 C.2   165  GLN165      0.2616
    132  O         29.6840   14.0560   12.7700 O.2   165  GLN165     -0.2715
    133  CB        27.9080   13.2920   10.0910 C.3   165  GLN165      0.0408
    134  CG        28.1480   11.9800   10.7980 C.3   165  GLN165      0.0908
    135  CD        27.6450   10.8180   10.0180 C.2   165  GLN165      0.2608
    136  OE1       26.4580   10.7640    9.6630 O.2   165  GLN165     -0.2717
    137  NE2       28.5340    9.8700    9.7270 N.am  165  GLN165     -0.0878
    138  N         30.4590   15.0900   10.8880 N.am  166  GLY166     -0.1955
    139  CA        31.8380   15.1330   11.3680 C.3   166  GLY166      0.1869
    140  C         31.9620   16.0020   12.6010 C.2   166  GLY166      0.2309
    141  O         32.6540   15.6630   13.5520 O.2   166  GLY166     -0.2863
    142  N         15.8120    5.5930    6.4030 N.3   208  HIS208     -0.1241
    143  CA        16.5380    6.8100    6.0490 C.3   208  HIS208      0.1621
    144  C         17.0790    6.6450    4.6140 C.2   208  HIS208      0.2264
    145  O         17.8610    5.7310    4.3390 O.2   208  HIS208     -0.2867
    146  CB        17.6830    6.9960    7.0470 C.3   208  HIS208      0.0745
    147  CG        18.4300    8.2960    6.9170 C.ar  208  HIS208      0.0817
    148  ND1       19.5490    8.5720    7.6700 N.ar  208  HIS208     -0.2268
    149  CD2       18.2500    9.3640    6.0930 C.ar  208  HIS208      0.1154
    150  CE1       20.0080    9.7770    7.3390 C.ar  208  HIS208      0.1986
    151  NE2       19.2410   10.2790    6.3780 N.ar  208  HIS208     -0.2212
    152  N         19.2530    7.8010    2.8640 N.3   210  LEU210     -0.1231
    153  CA        20.5710    8.3820    2.8390 C.3   210  LEU210      0.1693
    154  C         21.1570    8.2020    1.4350 C.2   210  LEU210      0.2592
    155  O         20.9430    7.1640    0.7980 O.2   210  LEU210     -0.2718
    156  CB        21.4320    7.6720    3.8920 C.3   210  LEU210      0.0284
    157  CG        22.9150    8.0090    3.9680 C.3   210  LEU210      0.0019
    158  CD1       23.4070    7.9960    5.3980 C.3   210  LEU210      0.0001
    159  CD2       23.7120    7.0480    3.1150 C.3   210  LEU210      0.0001
    160  N         21.8730    9.2150    0.9480 N.am  211  GLY211     -0.1957
    161  CA        22.5100    9.1480   -0.3690 C.3   211  GLY211      0.1869
    162  C         21.8620   10.0610   -1.3980 C.2   211  GLY211      0.2309
    163  O         20.8630   10.7110   -1.1130 O.2   211  GLY211     -0.2863
    164  N         16.7260   11.1910   -3.6190 N.3   214  LYS214     -0.1245
    165  CA        15.7450   11.1680   -2.5690 C.3   214  LYS214      0.1561
    166  C         14.4320   10.7030   -3.2010 C.2   214  LYS214      0.2260
    167  O         14.2710   10.7580   -4.3960 O.2   214  LYS214     -0.2867
    168  CB        15.6340   12.5680   -1.9170 C.3   214  LYS214      0.0271
    169  CG        16.9750   13.0980   -1.3270 C.3   214  LYS214      0.0035
    170  CD        17.6090   12.0770   -0.3740 C.3   214  LYS214      0.0206
    171  CE        18.8450   12.6570    0.3320 C.3   214  LYS214      0.1093
    172  NZ        19.4700   11.6520    1.2050 N.3   214  LYS214     -0.1314
@<TRIPOS>BOND
     1   167   166    2
     2   164   165    1
     3   166   165    1
     4   165   168    1
     5   168   169    1
     6   162   163    2
     7   162   161    1
     8   169   170    1
     9    27    28    1
    10    27    24    1
    11    30    28   am
    12    28    29    2
    13   170   171    1
    14   161   160    1
    15    31    32    1
    16    39    37   ar
    17    39    41   ar
    18    25    24    1
    19    25    26    2
    20    24    23    1
    21    42    41    1
    22   171   172    1
    23    37    36   ar
    24    41    40   ar
    25   155   154    2
    26   160   154   am
    27    32    35    1
    28    32    33    1
    29    19    18    2
    30   154   153    1
    31    23    18   am
    32    36    35    1
    33    36    38   ar
    34    40    38   ar
    35    18    17    1
    36    33    34    2
    37   112   111    2
    38    21    20    1
    39   110   113    1
    40   110   111    1
    41   110   109    1
    42   113   114    1
    43   153   152    1
    44   153   156    1
    45   159   157    1
    46    49    47    1
    47    87    88    1
    48    87    84    1
    49    14    13    1
    50    20    17    1
    51    20    22    1
    52    17    16    1
    53    90    88   ar
    54   156   157    1
    55   114   116   ar
    56   114   115   ar
    57   157   158    1
    58    16    11   am
    59    88    89   ar
    60    84    83    1
    61    84    85    1
    62   145   144    2
    63    47    48    1
    64    47    44    1
    65   144   143    1
    66    86    85    2
    67    13    15    1
    68    13    10    1
    69    81    80    2
    70    11    10    1
    71    11    12    2
    72    83    80   am
    73    43    44    1
    74    80    79    1
    75    10     9    1
    76    82    79    1
    77   117   118    1
    78    44    45    1
    79   143   142    1
    80   143   146    1
    81   149   151   ar
    82   149   147   ar
    83    79    78    1
    84   151   150   ar
    85   118   119    1
    86     4     3    2
    87     9     3   am
    88    45    46    2
    89   147   146    1
    90   147   148   ar
    91    78    72   am
    92    77    75   ar
    93   150   148   ar
    94     3     2    1
    95    75    74    1
    96    75    76   ar
    97    74    71    1
    98   119   120    2
    99   119   121   am
   100    72    73    2
   101    72    71    1
   102     6     8    1
   103     6     7    1
   104     6     5    1
   105    98    96   am
   106    71    70    1
   107     2     5    1
   108     2     1    1
   109   121   122    1
   110   136   135    2
   111    96    97    2
   112    96    95    1
   113   137   135   am
   114   127   126   ar
   115   135   134    1
   116   133   134    1
   117   133   130    1
   118   122   125    1
   119   122   123    1
   120   129   123   am
   121   129   130    1
   122    50    51    1
   123   106   105    1
   124   106   107    1
   125    54    51    1
   126    54    55    1
   127   104   103    1
   128    56    55    1
   129    56    57    1
   130   138   139    1
   131   138   131   am
   132    95    92    1
   133   125   126    1
   134   123   124    2
   135   130   131    1
   136   126   128   ar
   137   105   101   am
   138    58    57    1
   139    51    52    1
   140    69    67   ar
   141    69    68   ar
   142   139   140    1
   143   108   107    2
   144    67    65   ar
   145   131   132    2
   146    92    93    1
   147    92    91    1
   148    99    93   am
   149    99   100    1
   150   101   102    2
   151   101   100    1
   152   103   100    1
   153    68    66   ar
   154    93    94    2
   155   140   141    2
   156    52    53    2
   157    65    64   ar
   158    66    64   ar
   159    64    63    1
   160    61    62    2
   161    61    60    1
   162    63    60    1
   163    60    59    1
