@<TRIPOS>MOLECULE
tmp/3rmzD00.pdb
 71 67 0 0 0
SMALL
GASTEIGER

@<TRIPOS>ATOM
      1  N         13.5220   -1.6160  -28.2480 N.3   136  PRO136     -0.2116
      2  CA        12.7380   -2.2970  -27.1770 C.3   136  PRO136      0.1372
      3  C         13.5340   -2.4070  -25.9080 C.2   136  PRO136      0.2244
      4  O         12.9760   -2.4130  -24.8120 O.2   136  PRO136     -0.2868
      5  CB        12.5720   -3.7240  -27.7180 C.3   136  PRO136      0.0268
      6  CG        12.7540   -3.6390  -29.1310 C.3   136  PRO136      0.0207
      7  CD        13.5510   -2.3950  -29.5150 C.3   136  PRO136      0.0892
      8  N         12.2510   -2.9100  -33.9910 N.3   177  THR177     -0.1218
      9  CA        11.7230   -4.2270  -33.6000 C.3   177  THR177      0.1862
     10  C         12.6600   -4.9710  -32.7400 C.2   177  THR177      0.2287
     11  O         12.2890   -5.9890  -32.1690 O.2   177  THR177     -0.2866
     12  CB        11.4100   -5.0690  -34.8290 C.3   177  THR177      0.1770
     13  OG1       12.5050   -4.9680  -35.7640 O.3   177  THR177     -0.2211
     14  CG2       10.2040   -4.5210  -35.4660 C.3   177  THR177      0.0375
     15  N          1.7880    2.1710  -33.2470 N.3   223  TYR223     -0.1241
     16  CA         2.7590    1.0550  -33.2920 C.3   223  TYR223      0.1605
     17  C          2.8960    0.5870  -31.8650 C.2   223  TYR223      0.2264
     18  O          3.1690    1.4130  -30.9420 O.2   223  TYR223     -0.2867
     19  CB         4.1020    1.5260  -33.8750 C.3   223  TYR223      0.0534
     20  CG         5.1450    0.4480  -33.7970 C.ar  223  TYR223     -0.0201
     21  CD1        4.8950   -0.7890  -34.3350 C.ar  223  TYR223     -0.0009
     22  CD2        6.3410    0.6460  -33.1760 C.ar  223  TYR223     -0.0009
     23  CE1        5.8320   -1.8370  -34.2220 C.ar  223  TYR223      0.0417
     24  CE2        7.2960   -0.3500  -33.1250 C.ar  223  TYR223      0.0417
     25  CZ         7.0380   -1.5870  -33.6410 C.ar  223  TYR223      0.1957
     26  OH         8.0070   -2.5980  -33.5440 O.3   223  TYR223     -0.2866
     27  N          5.0900   -1.6160  -29.7340 N.3   225  GLN225     -0.1231
     28  CA         6.3890   -2.2890  -29.8830 C.3   225  GLN225      0.1698
     29  C          6.3480   -3.6330  -29.1680 C.2   225  GLN225      0.2592
     30  O          6.9000   -4.6470  -29.6680 O.2   225  GLN225     -0.2718
     31  CB         7.5140   -1.3550  -29.4080 C.3   225  GLN225      0.0381
     32  CG         8.8920   -1.9190  -29.6570 C.3   225  GLN225      0.0905
     33  CD         9.9380   -0.8690  -29.2570 C.2   225  GLN225      0.2608
     34  OE1       10.0000   -0.4450  -28.0940 O.2   225  GLN225     -0.2717
     35  NE2       10.7670   -0.4730  -30.1950 N.am  225  GLN225     -0.0878
     36  N          5.6280   -3.7170  -28.0420 N.am  226  LYS226     -0.1966
     37  CA         5.6160   -5.0130  -27.3470 C.3   226  LYS226      0.1728
     38  C          4.8020   -6.0320  -28.1110 C.2   226  LYS226      0.2616
     39  O          5.0740   -7.2160  -28.0230 O.2   226  LYS226     -0.2715
     40  CB         5.0770   -4.8220  -25.9350 C.3   226  LYS226      0.0311
     41  CG         6.1950   -4.2870  -25.0970 C.3   226  LYS226      0.0038
     42  CD         5.6880   -3.6730  -23.8450 C.3   226  LYS226      0.0206
     43  CE         5.3010   -4.6680  -22.8770 C.3   226  LYS226      0.1093
     44  NZ         5.6910   -3.9720  -21.5640 N.3   226  LYS226     -0.1314
     45  N          3.8190   -5.5980  -28.8890 N.am  227  ALA227     -0.1963
     46  CA         3.0060   -6.5400  -29.7580 C.3   227  ALA227      0.1728
     47  C          3.6880   -6.7430  -31.1090 C.2   227  ALA227      0.2616
     48  O          3.4020   -7.7020  -31.8420 O.2   227  ALA227     -0.2715
     49  CB         1.6120   -5.9730  -29.9920 C.3   227  ALA227      0.0334
     50  N          4.5780   -5.8250  -31.4620 N.am  228  GLY228     -0.1955
     51  CA         5.1050   -5.7960  -32.8270 C.3   228  GLY228      0.1869
     52  C          4.0090   -5.4620  -33.8350 C.2   228  GLY228      0.2309
     53  O          4.1020   -5.8850  -35.0090 O.2   228  GLY228     -0.2863
     54  N          4.9710   -7.3780  -36.9810 N.3   244  LEU244     -0.1231
     55  CA         6.4150   -7.3750  -36.9970 C.3   244  LEU244      0.1693
     56  C          6.9750   -8.2930  -35.9140 C.2   244  LEU244      0.2592
     57  O          8.1850   -8.3280  -35.7200 O.2   244  LEU244     -0.2718
     58  CB         6.9280   -5.9170  -36.8340 C.3   244  LEU244      0.0284
     59  CG         6.4370   -4.9020  -37.8920 C.3   244  LEU244      0.0019
     60  CD1        6.9860   -3.5060  -37.5550 C.3   244  LEU244      0.0001
     61  CD2        6.8130   -5.2610  -39.3290 C.3   244  LEU244      0.0001
     62  N          6.0990   -9.0140  -35.2130 N.am  245  SER245     -0.1952
     63  CA         6.5260   -9.7640  -34.0120 C.3   245  SER245      0.1924
     64  C          7.5150  -10.9280  -34.3200 C.2   245  SER245      0.2314
     65  O          8.3040  -11.3460  -33.4170 O.2   245  SER245     -0.2863
     66  CB         5.3420  -10.2940  -33.2190 C.3   245  SER245      0.2116
     67  OG         4.7400  -11.3090  -33.9580 O.3   245  SER245     -0.2180
     68  N          9.9650  -10.5760  -36.3480 N.3   247  GLY247     -0.1225
     69  CA        11.1560   -9.8870  -36.8280 C.3   247  GLY247      0.1811
     70  C         11.0280   -9.5900  -38.3070 C.2   247  GLY247      0.2280
     71  O         11.8190   -8.8150  -38.8580 O.2   247  GLY247     -0.2866
@<TRIPOS>BOND
     1    61    59    1
     2    71    70    2
     3    70    69    1
     4    59    60    1
     5    59    58    1
     6    55    54    1
     7    55    58    1
     8    55    56    1
     9    69    68    1
    10    56    57    2
    11    56    62   am
    12    13    12    1
    13    14    12    1
    14    62    63    1
    15    53    52    2
    16    12     9    1
    17    21    23   ar
    18    21    20   ar
    19    64    63    1
    20    64    65    2
    21    23    25   ar
    22    63    66    1
    23     8     9    1
    24    67    66    1
    25    19    20    1
    26    19    16    1
    27    52    51    1
    28    20    22   ar
    29    25    26    1
    30    25    24   ar
    31     9    10    1
    32    16    15    1
    33    16    17    1
    34    22    24   ar
    35    51    50    1
    36    10    11    2
    37    17    18    2
    38    48    47    2
    39    50    47   am
    40    47    46    1
    41    35    33   am
    42    49    46    1
    43    28    27    1
    44    28    31    1
    45    28    29    1
    46    46    45    1
    47    30    29    2
    48    32    31    1
    49    32    33    1
    50     7     6    1
    51     7     1    1
    52    33    34    2
    53    29    36   am
    54     6     5    1
    55    45    38   am
    56     1     2    1
    57    38    39    2
    58    38    37    1
    59    36    37    1
    60     5     2    1
    61    37    40    1
    62     2     3    1
    63    40    41    1
    64     3     4    2
    65    41    42    1
    66    42    43    1
    67    43    44    1
