@<TRIPOS>MOLECULE
tmp/3rn6A01.pdb
 135 127 0 0 0
SMALL
GASTEIGER

@<TRIPOS>ATOM
      1  N        -63.2320   13.5330  -14.6690 N.3    60  HIS60      -0.1241
      2  CA       -64.2670   13.1200  -13.7340 C.3    60  HIS60       0.1621
      3  C        -64.3440   11.6080  -13.7140 C.2    60  HIS60       0.2264
      4  O        -65.1000   11.0150  -14.4800 O.2    60  HIS60      -0.2867
      5  CB       -65.6240   13.6840  -14.1460 C.3    60  HIS60       0.0745
      6  CG       -65.7570   15.1570  -13.9370 C.ar   60  HIS60       0.0817
      7  ND1      -66.4510   15.6970  -12.8770 N.ar   60  HIS60      -0.2268
      8  CD2      -65.3010   16.2060  -14.6580 C.ar   60  HIS60       0.1154
      9  CE1      -66.4200   17.0130  -12.9560 C.ar   60  HIS60       0.1986
     10  NE2      -65.7250   17.3470  -14.0240 N.ar   60  HIS60      -0.2212
     11  N        -67.8160    9.6450  -13.2020 N.3    63  THR63      -0.1218
     12  CA       -68.7960    9.5620  -14.2970 C.3    63  THR63       0.1862
     13  C        -68.2790    8.7700  -15.4940 C.2    63  THR63       0.2287
     14  O        -69.0170    8.4800  -16.4280 O.2    63  THR63      -0.2866
     15  CB       -69.2530   10.9630  -14.7870 C.3    63  THR63       0.1770
     16  OG1      -68.1440   11.6620  -15.3740 O.3    63  THR63      -0.2211
     17  CG2      -69.8170   11.7790  -13.6380 C.3    63  THR63       0.0375
     18  N        -74.0320   21.3910  -21.7200 N.3    78  LEU78      -0.1245
     19  CA       -73.4460   21.2590  -20.3830 C.3    78  LEU78       0.1561
     20  C        -74.5430   21.1160  -19.3110 C.2    78  LEU78       0.2260
     21  O        -74.3230   20.5070  -18.2520 O.2    78  LEU78      -0.2867
     22  CB       -72.5220   22.4470  -20.0790 C.3    78  LEU78       0.0270
     23  CG       -72.5270   22.9670  -18.6400 C.3    78  LEU78       0.0019
     24  CD1      -71.7070   22.0860  -17.6930 C.3    78  LEU78       0.0001
     25  CD2      -72.0270   24.4010  -18.6330 C.3    78  LEU78       0.0001
     26  N        -75.7330   17.4860  -17.0970 N.3    82  ILE82      -0.1245
     27  CA       -76.0330   17.5200  -15.6510 C.3    82  ILE82       0.1561
     28  C        -77.3820   16.8650  -15.2890 C.2    82  ILE82       0.2260
     29  O        -77.5080   16.2670  -14.2180 O.2    82  ILE82      -0.2867
     30  CB       -75.9260   18.9690  -15.0510 C.3    82  ILE82       0.0252
     31  CG1      -74.5410   19.5740  -15.3410 C.3    82  ILE82       0.0019
     32  CG2      -76.1870   18.9700  -13.5480 C.3    82  ILE82       0.0019
     33  CD1      -74.3880   21.0310  -14.9210 C.3    82  ILE82       0.0001
     34  N        -66.2350   18.0680   -5.3950 N.3   151  PHE151     -0.1241
     35  CA       -66.8670   18.8970   -6.4250 C.3   151  PHE151      0.1605
     36  C        -68.3740   18.9160   -6.2310 C.2   151  PHE151      0.2264
     37  O        -69.0570   17.9190   -6.4990 O.2   151  PHE151     -0.2867
     38  CB       -66.4970   18.3610   -7.8170 C.3   151  PHE151      0.0534
     39  CG       -67.2860   18.9690   -8.9430 C.ar  151  PHE151     -0.0203
     40  CD1      -67.3290   20.3470   -9.1190 C.ar  151  PHE151     -0.0042
     41  CD2      -67.9660   18.1570   -9.8360 C.ar  151  PHE151     -0.0042
     42  CE1      -68.0570   20.9000  -10.1520 C.ar  151  PHE151     -0.0003
     43  CE2      -68.6950   18.7010  -10.8780 C.ar  151  PHE151     -0.0003
     44  CZ       -68.7440   20.0690  -11.0380 C.ar  151  PHE151     -0.0000
     45  N        -71.3060   19.4030   -7.5040 N.3   153  GLN153     -0.1245
     46  CA       -71.8640   19.4970   -8.8420 C.3   153  GLN153      0.1566
     47  C        -73.1590   20.2950   -8.9140 C.2   153  GLN153      0.2260
     48  O        -73.4110   20.9710   -9.9100 O.2   153  GLN153     -0.2867
     49  CB       -72.0580   18.1020   -9.4330 C.3   153  GLN153      0.0367
     50  CG       -72.9090   18.0740  -10.6750 C.3   153  GLN153      0.0905
     51  CD       -72.1550   18.5400  -11.9130 C.2   153  GLN153      0.2608
     52  OE1      -71.4190   17.7670  -12.5360 O.2   153  GLN153     -0.2717
     53  NE2      -72.3390   19.8090  -12.2770 N.am  153  GLN153     -0.0878
     54  N        -68.7380   25.7400   -8.0890 N.3   180  ILE180     -0.1245
     55  CA       -69.3050   25.9070   -9.4230 C.3   180  ILE180      0.1561
     56  C        -70.2620   27.1160   -9.4580 C.2   180  ILE180      0.2260
     57  O        -71.4700   26.9730   -9.6250 O.2   180  ILE180     -0.2867
     58  CB       -70.0050   24.6070   -9.8650 C.3   180  ILE180      0.0252
     59  CG1      -70.4650   24.7120  -11.3240 C.3   180  ILE180      0.0019
     60  CG2      -71.1120   24.2550   -8.8890 C.3   180  ILE180      0.0019
     61  CD1      -71.0050   23.4190  -11.9000 C.3   180  ILE180      0.0001
     62  N        -64.8670   25.0180  -11.0000 N.3   211  HIS211     -0.1241
     63  CA       -65.4450   25.0400  -12.3550 C.3   211  HIS211      0.1621
     64  C        -65.9450   26.4620  -12.5730 C.2   211  HIS211      0.2264
     65  O        -67.0210   26.8480  -12.1060 O.2   211  HIS211     -0.2867
     66  CB       -66.5840   24.0330  -12.5470 C.3   211  HIS211      0.0745
     67  CG       -66.1240   22.6210  -12.7350 C.ar  211  HIS211      0.0817
     68  ND1      -65.3530   21.9540  -11.8050 N.ar  211  HIS211     -0.2268
     69  CD2      -66.3460   21.7370  -13.7360 C.ar  211  HIS211      0.1154
     70  CE1      -65.1110   20.7260  -12.2340 C.ar  211  HIS211      0.1986
     71  NE2      -65.7000   20.5710  -13.4030 N.ar  211  HIS211     -0.2212
     72  N        -67.9530   28.1580  -16.7750 N.3   214  GLU214     -0.1245
     73  CA       -68.1470   27.2570  -17.9090 C.3   214  GLU214      0.1567
     74  C        -69.4970   27.5410  -18.5860 C.2   214  GLU214      0.2260
     75  O        -70.4610   26.7970  -18.3980 O.2   214  GLU214     -0.2867
     76  CB       -68.0890   25.7860  -17.4770 C.3   214  GLU214      0.0388
     77  CG       -67.8300   24.8210  -18.6380 C.3   214  GLU214      0.1160
     78  CD       -68.1520   23.3560  -18.3270 C.2   214  GLU214      0.3649
     79  OE1      -68.1630   22.5390  -19.2820 O.co2 214  GLU214     -0.2457
     80  OE2      -68.3930   23.0060  -17.1460 O.co2 214  GLU214     -0.2457
     81  N        -61.8410   25.6800  -16.9080 N.3   243  HIS243     -0.1241
     82  CA       -62.7350   26.0660  -18.0050 C.3   243  HIS243      0.1621
     83  C        -62.6240   27.5580  -18.3190 C.2   243  HIS243      0.2264
     84  O        -62.0140   27.9320  -19.3070 O.2   243  HIS243     -0.2867
     85  CB       -64.1990   25.6990  -17.7420 C.3   243  HIS243      0.0745
     86  CG       -64.4600   24.2270  -17.6600 C.ar  243  HIS243      0.0817
     87  ND1      -64.5590   23.4220  -18.7770 N.ar  243  HIS243     -0.2268
     88  CD2      -64.6750   23.4170  -16.5930 C.ar  243  HIS243      0.1154
     89  CE1      -64.8070   22.1790  -18.3990 C.ar  243  HIS243      0.1986
     90  NE2      -64.8790   22.1480  -17.0790 N.ar  243  HIS243     -0.2212
     91  N        -63.7620   18.7470  -24.8540 N.3   275  VAL275     -0.1245
     92  CA       -65.1060   18.9330  -24.3450 C.3   275  VAL275      0.1561
     93  C        -65.6240   20.3400  -24.6300 C.2   275  VAL275      0.2260
     94  O        -66.7740   20.5070  -25.0320 O.2   275  VAL275     -0.2867
     95  CB       -65.1740   18.6290  -22.8420 C.3   275  VAL275      0.0252
     96  CG1      -66.5030   19.0530  -22.2830 C.3   275  VAL275      0.0019
     97  CG2      -64.9340   17.1430  -22.6010 C.3   275  VAL275      0.0019
     98  N        -69.2360   21.2580  -26.4050 N.3   279  LEU279     -0.1245
     99  CA       -70.3630   21.7200  -25.5870 C.3   279  LEU279      0.1561
    100  C        -70.6020   23.2210  -25.6430 C.2   279  LEU279      0.2260
    101  O        -71.6750   23.6880  -25.2800 O.2   279  LEU279     -0.2867
    102  CB       -70.1780   21.3180  -24.1190 C.3   279  LEU279      0.0270
    103  CG       -70.2310   19.8440  -23.7130 C.3   279  LEU279      0.0019
    104  CD1      -69.9210   19.7130  -22.2210 C.3   279  LEU279      0.0001
    105  CD2      -71.5780   19.2190  -24.0500 C.3   279  LEU279      0.0001
    106  N        -61.0130   16.2220  -19.1660 N.3   310  ASP310     -0.1225
    107  CA       -62.3120   16.4880  -18.5180 C.3   310  ASP310      0.1805
    108  C        -63.2600   15.2790  -18.4050 C.2   310  ASP310      0.2597
    109  O        -63.6160   14.8750  -17.2950 O.2   310  ASP310     -0.2718
    110  CB       -63.0240   17.7160  -19.1310 C.3   310  ASP310      0.1424
    111  CG       -64.2330   18.1730  -18.3040 C.2   310  ASP310      0.3668
    112  OD1      -65.0310   19.0180  -18.7700 O.co2 310  ASP310     -0.2456
    113  OD2      -64.3890   17.6850  -17.1670 O.co2 310  ASP310     -0.2456
    114  N        -63.6750   14.7220  -19.5410 N.am  311  ASP311     -0.1974
    115  CA       -64.6070   13.5960  -19.5610 C.3   311  ASP311      0.1709
    116  C        -64.1400   12.5090  -20.5160 C.2   311  ASP311      0.2293
    117  O        -63.7790   12.8040  -21.6630 O.2   311  ASP311     -0.2864
    118  CB       -65.9890   14.0530  -20.0140 C.3   311  ASP311      0.1436
    119  CG       -66.6790   14.9330  -18.9990 C.2   311  ASP311      0.3671
    120  OD1      -66.6880   16.1800  -19.1830 O.co2 311  ASP311     -0.2456
    121  OD2      -67.2260   14.3690  -18.0210 O.co2 311  ASP311     -0.2456
    122  N        -71.5060   13.8330  -20.9090 N.3   316  TRP316     -0.1241
    123  CA       -70.9220   15.0410  -21.4590 C.3   316  TRP316      0.1605
    124  C        -70.0310   14.8130  -22.6900 C.2   316  TRP316      0.2264
    125  O        -69.8230   15.7290  -23.4790 O.2   316  TRP316     -0.2867
    126  CB       -70.0740   15.7180  -20.3940 C.3   316  TRP316      0.0550
    127  CG       -70.8210   16.2880  -19.2280 C.ar  316  TRP316      0.0003
    128  CD1      -71.2910   17.5700  -19.0960 C.ar  316  TRP316      0.0946
    129  CD2      -71.1390   15.6190  -18.0020 C.ar  316  TRP316      0.0152
    130  NE1      -71.8960   17.7320  -17.8710 N.ar  316  TRP316     -0.2442
    131  CE2      -71.8170   16.5510  -17.1800 C.ar  316  TRP316      0.0810
    132  CE3      -70.9260   14.3210  -17.5210 C.ar  316  TRP316      0.0012
    133  CZ2      -72.2830   16.2260  -15.9060 C.ar  316  TRP316      0.0191
    134  CZ3      -71.3920   13.9980  -16.2530 C.ar  316  TRP316      0.0001
    135  CH2      -72.0600   14.9490  -15.4610 C.ar  316  TRP316      0.0015
@<TRIPOS>BOND
     1    98    99    1
     2   100    99    1
     3   100   101    2
     4    99   102    1
     5    94    93    2
     6    91    92    1
     7    93    92    1
     8    92    95    1
     9   102   103    1
    10   105   103    1
    11   103   104    1
    12   125   124    2
    13    95    97    1
    14    95    96    1
    15   124   123    1
    16    18    19    1
    17   117   116    2
    18   123   122    1
    19   123   126    1
    20   116   115    1
    21   126   127    1
    22    19    22    1
    23    19    20    1
    24    22    23    1
    25   118   115    1
    26   118   119    1
    27   115   114    1
    28   114   108   am
    29    20    21    2
    30    84    83    2
    31    79    78   ar
    32   127   128   ar
    33   127   129   ar
    34   120   119   ar
    35   106   107    1
    36   110   107    1
    37   110   111    1
    38   128   130   ar
    39   119   121   ar
    40    87    89   ar
    41    87    86   ar
    42   112   111   ar
    43    23    25    1
    44    23    24    1
    45    77    78    1
    46    77    76    1
    47    74    75    2
    48    74    73    1
    49   107   108    1
    50   108   109    2
    51    89    90   ar
    52    78    80   ar
    53    83    82    1
    54   111   113   ar
    55    82    85    1
    56    82    81    1
    57   129   132   ar
    58   129   131   ar
    59    73    76    1
    60    73    72    1
    61   130   131   ar
    62    85    86    1
    63    86    88   ar
    64   132   134   ar
    65   131   133   ar
    66    26    27    1
    67    90    88   ar
    68    14    13    2
    69   134   135   ar
    70   133   135   ar
    71    27    28    1
    72    27    30    1
    73    13    12    1
    74    16    15    1
    75    31    30    1
    76    31    33    1
    77    28    29    2
    78    30    32    1
    79    15    12    1
    80    15    17    1
    81     1     2    1
    82     8    10   ar
    83     8     6   ar
    84     4     3    2
    85    12    11    1
    86     5     6    1
    87     5     2    1
    88    10     9   ar
    89     6     7   ar
    90    69    71   ar
    91    69    67   ar
    92     2     3    1
    93    71    70   ar
    94     9     7   ar
    95    67    66    1
    96    67    68   ar
    97    64    63    1
    98    64    65    2
    99    66    63    1
   100    52    51    2
   101    63    62    1
   102    53    51   am
   103    70    68   ar
   104    51    50    1
   105    61    59    1
   106    59    58    1
   107    44    43   ar
   108    44    42   ar
   109    43    41   ar
   110    50    49    1
   111    42    40   ar
   112    48    47    2
   113    58    55    1
   114    58    60    1
   115    41    39   ar
   116    57    56    2
   117    56    55    1
   118    49    46    1
   119    55    54    1
   120    40    39   ar
   121    39    38    1
   122    47    46    1
   123    46    45    1
   124    38    35    1
   125    37    36    2
   126    35    36    1
   127    35    34    1
