@<TRIPOS>MOLECULE
tmp/3rn8B01.pdb
 99 95 0 0 0
SMALL
GASTEIGER

@<TRIPOS>ATOM
      1  N         59.3970   73.2310   57.6280 N.3    90  ILE90      -0.1245
      2  CA        58.4780   73.4920   58.7160 C.3    90  ILE90       0.1561
      3  C         57.1890   72.6820   58.4720 C.2    90  ILE90       0.2260
      4  O         56.5090   72.8260   57.4310 O.2    90  ILE90      -0.2867
      5  CB        58.1120   75.0210   58.7420 C.3    90  ILE90       0.0252
      6  CG1       59.3880   75.8620   58.9310 C.3    90  ILE90       0.0019
      7  CG2       57.0080   75.3020   59.7850 C.3    90  ILE90       0.0019
      8  CD1       59.2130   77.3490   58.6680 C.3    90  ILE90       0.0001
      9  N         60.6580   81.9300   61.7910 N.3   102  LYS102     -0.1231
     10  CA        60.0220   82.2360   60.5210 C.3   102  LYS102      0.1678
     11  C         60.9010   81.6540   59.3930 C.2   102  LYS102      0.2434
     12  O         62.1320   81.5470   59.5370 O.2   102  LYS102     -0.2733
     13  CB        59.8900   83.7560   60.3380 C.3   102  LYS102      0.0284
     14  CG        58.8740   84.4190   61.3260 C.3   102  LYS102      0.0035
     15  CD        57.5300   83.8980   61.0610 C.3   102  LYS102      0.0206
     16  CE        56.4820   84.5600   61.9710 C.3   102  LYS102      0.1093
     17  NZ        56.5920   84.2900   63.4040 N.3   102  LYS102     -0.1314
     18  N         60.2690   81.2710   58.2690 N.am  103  PRO103     -0.2718
     19  CA        61.0160   80.6100   57.1700 C.3   103  PRO103      0.1535
     20  C         62.0220   81.5640   56.5140 C.2   103  PRO103      0.2599
     21  O         61.7910   82.7810   56.3950 O.2   103  PRO103     -0.2715
     22  CB        59.9120   80.2060   56.1870 C.3   103  PRO103      0.0310
     23  CG        58.8060   81.2160   56.4530 C.3   103  PRO103      0.0237
     24  CD        58.8320   81.4380   57.9380 C.3   103  PRO103      0.0939
     25  N         63.1800   81.0200   56.1460 N.am  104  PHE104     -0.1960
     26  CA        64.1730   81.8230   55.4290 C.3   104  PHE104      0.1771
     27  C         64.1400   81.5360   53.9150 C.2   104  PHE104      0.2619
     28  O         64.8620   82.1910   53.1510 O.2   104  PHE104     -0.2715
     29  CB        65.6020   81.5460   55.9910 C.3   104  PHE104      0.0574
     30  CG        66.0200   80.0890   55.9550 C.ar  104  PHE104     -0.0200
     31  CD1       66.5810   79.5360   54.7820 C.ar  104  PHE104     -0.0042
     32  CD2       65.9250   79.2720   57.1080 C.ar  104  PHE104     -0.0042
     33  CE1       67.0270   78.1950   54.7460 C.ar  104  PHE104     -0.0003
     34  CE2       66.3700   77.9230   57.0560 C.ar  104  PHE104     -0.0003
     35  CZ        66.9000   77.3990   55.8970 C.ar  104  PHE104     -0.0000
     36  N         63.3110   80.5850   53.4640 N.am  105  MET105     -0.1963
     37  CA        63.1910   80.2700   52.0580 C.3   105  MET105      0.1736
     38  C         61.8620   79.5800   51.8340 C.2   105  MET105      0.2617
     39  O         61.3840   78.8350   52.6930 O.2   105  MET105     -0.2715
     40  CB        64.3660   79.3340   51.6040 C.3   105  MET105      0.0427
     41  CG        64.5320   79.1950   50.0760 C.3   105  MET105      0.0599
     42  SD        66.0080   78.2200   49.7640 S.3   105  MET105     -0.1393
     43  CE        67.3080   79.3140   50.3060 C.3   105  MET105      0.0692
     44  N         61.2330   79.8750   50.7020 N.am  106  SER106     -0.1950
     45  CA        60.0250   79.1400   50.2920 C.3   106  SER106      0.1924
     46  C         60.3670   78.0420   49.2940 C.2   106  SER106      0.2314
     47  O         61.4040   78.1230   48.5660 O.2   106  SER106     -0.2863
     48  CB        58.9940   80.0930   49.6640 C.3   106  SER106      0.2116
     49  OG        59.6480   80.9480   48.7260 O.3   106  SER106     -0.2180
     50  N         53.0460   74.3970   48.9500 N.3   215  SER215     -0.1202
     51  CA        53.8310   75.5880   49.3250 C.3   215  SER215      0.2020
     52  C         54.2140   75.4410   50.7750 C.2   215  SER215      0.2619
     53  O         53.3460   75.1970   51.6290 O.2   215  SER215     -0.2717
     54  CB        53.0110   76.8690   49.1310 C.3   215  SER215      0.2103
     55  OG        52.6730   77.0160   47.7390 O.3   215  SER215     -0.2182
     56  N         55.4980   75.5810   51.0510 N.am  216  LYS216     -0.1965
     57  CA        55.9270   75.5850   52.4380 C.3   216  LYS216      0.1728
     58  C         57.2400   76.3370   52.5980 C.2   216  LYS216      0.2616
     59  O         57.6500   77.0700   51.6860 O.2   216  LYS216     -0.2715
     60  CB        55.9890   74.2150   52.9830 C.3   216  LYS216      0.0311
     61  CG        56.9510   73.3840   52.2750 C.3   216  LYS216      0.0038
     62  CD        56.2160   72.3410   51.5120 C.3   216  LYS216      0.0206
     63  CE        57.0610   71.0810   51.3550 C.3   216  LYS216      0.1093
     64  NZ        56.1990   69.7940   51.4540 N.3   216  LYS216     -0.1314
     65  N         57.8690   76.1950   53.7740 N.am  217  GLY217     -0.1955
     66  CA        59.0980   76.9660   53.9980 C.3   217  GLY217      0.1869
     67  C         60.1150   76.1510   54.7830 C.2   217  GLY217      0.2309
     68  O         59.7410   75.1600   55.4370 O.2   217  GLY217     -0.2863
     69  N         66.5370   85.9570   61.6430 N.3   236  VAL236     -0.1231
     70  CA        66.0730   85.6120   60.2830 C.3   236  VAL236      0.1692
     71  C         65.3170   86.7790   59.6370 C.2   236  VAL236      0.2591
     72  O         65.5400   87.0920   58.4540 O.2   236  VAL236     -0.2718
     73  CB        65.1570   84.3340   60.2970 C.3   236  VAL236      0.0266
     74  CG1       64.4760   84.1380   58.9390 C.3   236  VAL236      0.0020
     75  CG2       66.0450   83.0730   60.6770 C.3   236  VAL236      0.0020
     76  N         64.4600   87.4290   60.4170 N.am  237  LEU237     -0.1980
     77  CA        63.6800   88.5610   59.8760 C.3   237  LEU237      0.1596
     78  C         64.5970   89.7480   59.4860 C.2   237  LEU237      0.2287
     79  O         64.3840   90.3370   58.4150 O.2   237  LEU237     -0.2864
     80  CB        62.6030   89.0240   60.8550 C.3   237  LEU237      0.0297
     81  CG        61.5280   87.9620   61.1330 C.3   237  LEU237      0.0022
     82  CD1       60.5690   88.4860   62.1650 C.3   237  LEU237      0.0001
     83  CD2       60.7840   87.6720   59.8530 C.3   237  LEU237      0.0001
     84  N         66.3230   88.9250   56.2490 N.3   240  ASN240     -0.1240
     85  CA        65.5380   88.9960   55.0190 C.3   240  ASN240      0.1653
     86  C         65.3740   90.4160   54.5250 C.2   240  ASN240      0.2266
     87  O         65.4750   90.7180   53.3040 O.2   240  ASN240     -0.2867
     88  CB        64.1570   88.3840   55.2030 C.3   240  ASN240      0.1155
     89  CG        63.4070   88.3240   53.8950 C.2   240  ASN240      0.2627
     90  OD1       63.9570   87.9040   52.8510 O.2   240  ASN240     -0.2716
     91  ND2       62.1790   88.7050   53.9280 N.am  240  ASN240     -0.0877
     92  N         69.2080   87.3660   52.5850 N.3   245  LEU245     -0.1245
     93  CA        68.7530   86.0680   52.1160 C.3   245  LEU245      0.1561
     94  C         68.7060   86.0090   50.5960 C.2   245  LEU245      0.2260
     95  O         69.0930   85.0110   50.0000 O.2   245  LEU245     -0.2867
     96  CB        67.3950   85.6970   52.7440 C.3   245  LEU245      0.0270
     97  CG        67.3930   85.6690   54.2850 C.3   245  LEU245      0.0019
     98  CD1       65.9810   85.3180   54.8110 C.3   245  LEU245      0.0001
     99  CD2       68.4380   84.6100   54.7670 C.3   245  LEU245      0.0001
@<TRIPOS>BOND
     1    55    54    1
     2    47    46    2
     3    49    48    1
     4    50    51    1
     5    54    51    1
     6    46    45    1
     7    51    52    1
     8    48    45    1
     9    42    41    1
    10    42    43    1
    11    95    94    2
    12    41    40    1
    13    45    44    1
    14    94    93    1
    15    44    38   am
    16    52    56   am
    17    52    53    2
    18    56    57    1
    19    63    64    1
    20    63    62    1
    21    62    61    1
    22    40    37    1
    23    59    58    2
    24    38    37    1
    25    38    39    2
    26    37    36    1
    27    93    92    1
    28    93    96    1
    29    61    60    1
    30    57    58    1
    31    57    60    1
    32    58    65   am
    33    96    97    1
    34    90    89    2
    35    28    27    2
    36    87    86    2
    37    36    27   am
    38    65    66    1
    39    89    91   am
    40    89    88    1
    41    27    26    1
    42    66    67    1
    43    97    99    1
    44    97    98    1
    45    86    85    1
    46    33    31   ar
    47    33    35   ar
    48    31    30   ar
    49    67    68    2
    50    85    88    1
    51    85    84    1
    52    26    29    1
    53    26    25    1
    54    35    34   ar
    55    30    29    1
    56    30    32   ar
    57    25    20   am
    58    22    23    1
    59    22    19    1
    60    21    20    2
    61    23    24    1
    62    20    19    1
    63    34    32   ar
    64    19    18    1
    65     4     3    2
    66     1     2    1
    67    24    18    1
    68    18    11   am
    69    79    78    2
    70    72    71    2
    71     3     2    1
    72     8     6    1
    73     2     5    1
    74     5     6    1
    75     5     7    1
    76    74    73    1
    77    11    12    2
    78    11    10    1
    79    78    77    1
    80    71    70    1
    81    71    76   am
    82    83    81    1
    83    77    76    1
    84    77    80    1
    85    70    73    1
    86    70    69    1
    87    73    75    1
    88    13    10    1
    89    13    14    1
    90    10     9    1
    91    80    81    1
    92    15    14    1
    93    15    16    1
    94    81    82    1
    95    16    17    1
