@<TRIPOS>MOLECULE
tmp/3rn9A00.pdb
 149 144 0 0 0
SMALL
GASTEIGER

@<TRIPOS>ATOM
      1  N         -1.6600  -65.2180    5.9130 N.3   166  TRP166     -0.1241
      2  CA        -1.8300  -65.4740    4.4740 C.3   166  TRP166      0.1605
      3  C         -0.5090  -65.4320    3.7160 C.2   166  TRP166      0.2264
      4  O         -0.3080  -66.1290    2.7040 O.2   166  TRP166     -0.2867
      5  CB        -2.8340  -64.5140    3.8460 C.3   166  TRP166      0.0550
      6  CG        -2.4040  -63.0820    3.9320 C.ar  166  TRP166      0.0003
      7  CD1       -2.6270  -62.2060    4.9650 C.ar  166  TRP166      0.0946
      8  CD2       -1.6550  -62.3780    2.9640 C.ar  166  TRP166      0.0152
      9  NE1       -2.0720  -60.9940    4.6780 N.ar  166  TRP166     -0.2442
     10  CE2       -1.4570  -61.0720    3.4580 C.ar  166  TRP166      0.0810
     11  CE3       -1.1360  -62.7190    1.7120 C.ar  166  TRP166      0.0012
     12  CZ2       -0.7350  -60.0980    2.7470 C.ar  166  TRP166      0.0191
     13  CZ3       -0.4320  -61.7470    0.9920 C.ar  166  TRP166      0.0001
     14  CH2       -0.2360  -60.4480    1.5150 C.ar  166  TRP166      0.0015
     15  N         -2.7090  -53.9870   -1.5230 N.3   333  GLY333     -0.1225
     16  CA        -3.2960  -55.0940   -0.7860 C.3   333  GLY333      0.1811
     17  C         -2.6860  -55.2040    0.6100 C.2   333  GLY333      0.2280
     18  O         -3.4170  -55.2640    1.6430 O.2   333  GLY333     -0.2866
     19  N         -4.7300  -54.1640    4.0210 N.3   337  TRP337     -0.1241
     20  CA        -4.9350  -55.2640    4.9730 C.3   337  TRP337      0.1605
     21  C         -3.8060  -55.4080    5.9750 C.2   337  TRP337      0.2264
     22  O         -3.5380  -56.5060    6.4590 O.2   337  TRP337     -0.2867
     23  CB        -5.1150  -56.5610    4.2300 C.3   337  TRP337      0.0550
     24  CG        -6.5230  -56.7590    3.8170 C.ar  337  TRP337      0.0003
     25  CD1       -7.4790  -57.4640    4.4890 C.ar  337  TRP337      0.0946
     26  CD2       -7.1540  -56.2550    2.6350 C.ar  337  TRP337      0.0152
     27  NE1       -8.6750  -57.4260    3.8080 N.ar  337  TRP337     -0.2442
     28  CE2       -8.5100  -56.6900    2.6650 C.ar  337  TRP337      0.0810
     29  CE3       -6.7220  -55.4640    1.5630 C.ar  337  TRP337      0.0012
     30  CZ2       -9.4420  -56.3590    1.6490 C.ar  337  TRP337      0.0191
     31  CZ3       -7.6630  -55.1260    0.5480 C.ar  337  TRP337      0.0001
     32  CH2       -8.9970  -55.5850    0.6020 C.ar  337  TRP337      0.0015
     33  N         -3.3370  -55.0430    9.1380 N.3   339  PRO339     -0.2102
     34  CA        -3.3550  -55.8110   10.3880 C.3   339  PRO339      0.1504
     35  C         -3.1210  -57.3170   10.1840 C.2   339  PRO339      0.2576
     36  O         -2.8290  -58.0300   11.1590 O.2   339  PRO339     -0.2718
     37  CB        -4.7710  -55.5770   10.9440 C.3   339  PRO339      0.0282
     38  CG        -5.2800  -54.3610   10.2470 C.3   339  PRO339      0.0208
     39  CD        -4.6420  -54.4010    8.8790 C.3   339  PRO339      0.0893
     40  N         -3.2450  -57.7870    8.9460 N.am  340  THR340     -0.1953
     41  CA        -3.0800  -59.2080    8.6460 C.3   340  THR340      0.1897
     42  C         -1.6330  -59.6810    8.3610 C.2   340  THR340      0.2313
     43  O         -1.4300  -60.8600    8.1200 O.2   340  THR340     -0.2863
     44  CB        -3.9450  -59.6470    7.4390 C.3   340  THR340      0.1794
     45  OG1       -3.3770  -59.1240    6.2340 O.3   340  THR340     -0.2208
     46  CG2       -5.3750  -59.1800    7.5980 C.3   340  THR340      0.0378
     47  N         -9.0880  -49.4390    6.7450 N.3   388  VAL388     -0.1231
     48  CA        -8.9070  -50.8160    7.2310 C.3   388  VAL388      0.1678
     49  C        -10.1290  -51.5800    6.7560 C.2   388  VAL388      0.2434
     50  O        -11.1750  -50.9970    6.5910 O.2   388  VAL388     -0.2733
     51  CB        -8.7180  -50.9060    8.7920 C.3   388  VAL388      0.0265
     52  CG1       -7.2860  -50.4600    9.1780 C.3   388  VAL388      0.0020
     53  CG2       -9.7800  -50.1180    9.5770 C.3   388  VAL388      0.0020
     54  N         -9.9900  -52.8850    6.4950 N.am  389  PRO389     -0.2729
     55  CA       -11.0480  -53.6350    5.7820 C.3   389  PRO389      0.1401
     56  C        -12.0920  -54.3230    6.6570 C.2   389  PRO389      0.2269
     57  O        -11.8610  -54.6140    7.8520 O.2   389  PRO389     -0.2865
     58  CB       -10.2620  -54.6990    5.0410 C.3   389  PRO389      0.0296
     59  CG        -9.1480  -55.0140    6.0170 C.3   389  PRO389      0.0237
     60  CD        -8.8130  -53.7320    6.7690 C.3   389  PRO389      0.0939
     61  N        -13.7770  -57.0170    5.0110 N.3   391  THR391     -0.1203
     62  CA       -13.9290  -58.2890    4.3540 C.3   391  THR391      0.1994
     63  C        -12.5660  -58.8310    3.8790 C.2   391  THR391      0.2618
     64  O        -11.5440  -58.1750    4.1050 O.2   391  THR391     -0.2717
     65  CB       -14.9200  -58.1910    3.2260 C.3   391  THR391      0.1784
     66  OG1      -15.2120  -59.5150    2.7620 O.3   391  THR391     -0.2211
     67  CG2      -14.3640  -57.2990    2.0840 C.3   391  THR391      0.0376
     68  N        -12.5370  -60.0090    3.2680 N.am  392  LEU392     -0.1966
     69  CA       -11.2720  -60.5800    2.8090 C.3   392  LEU392      0.1713
     70  C        -11.2050  -60.5430    1.2910 C.2   392  LEU392      0.2458
     71  O        -12.1830  -60.8810    0.6230 O.2   392  LEU392     -0.2730
     72  CB       -11.1170  -62.0170    3.3100 C.3   392  LEU392      0.0310
     73  CG       -11.9870  -62.4160    4.5040 C.3   392  LEU392      0.0022
     74  CD1      -11.6030  -63.7980    5.0110 C.3   392  LEU392      0.0001
     75  CD2      -11.8800  -61.3840    5.6160 C.3   392  LEU392      0.0001
     76  N        -10.0690  -60.1320    0.7320 N.am  393  PRO393     -0.2727
     77  CA       -10.0040  -60.0310   -0.7220 C.3   393  PRO393      0.1402
     78  C        -10.0930  -61.4150   -1.3150 C.2   393  PRO393      0.2269
     79  O         -9.8670  -62.3930   -0.6130 O.2   393  PRO393     -0.2865
     80  CB        -8.6110  -59.4430   -0.9610 C.3   393  PRO393      0.0296
     81  CG        -7.8010  -59.9130    0.1430 C.3   393  PRO393      0.0237
     82  CD        -8.7440  -59.9350    1.3510 C.3   393  PRO393      0.0939
     83  N         -8.5800  -64.4850   -2.8850 N.3   395  ILE395     -0.1245
     84  CA        -7.2530  -65.1010   -2.9970 C.3   395  ILE395      0.1561
     85  C         -7.1090  -65.9220   -4.2840 C.2   395  ILE395      0.2260
     86  O         -7.9830  -66.7010   -4.6100 O.2   395  ILE395     -0.2867
     87  CB        -6.9570  -66.0450   -1.8080 C.3   395  ILE395      0.0252
     88  CG1       -7.0860  -65.3150   -0.4730 C.3   395  ILE395      0.0019
     89  CG2       -5.5680  -66.6520   -1.9380 C.3   395  ILE395      0.0019
     90  CD1       -6.3060  -64.0800   -0.4420 C.3   395  ILE395      0.0001
     91  N         -3.7150  -61.9670   -3.2240 N.3   402  PRO402     -0.2116
     92  CA        -4.9230  -61.2850   -3.6800 C.3   402  PRO402      0.1372
     93  C         -4.9270  -61.1200   -5.1670 C.2   402  PRO402      0.2244
     94  O         -3.8470  -61.0410   -5.7770 O.2   402  PRO402     -0.2868
     95  CB        -4.8740  -59.9110   -2.9890 C.3   402  PRO402      0.0268
     96  CG        -3.6420  -59.8780   -2.2260 C.3   402  PRO402      0.0207
     97  CD        -3.1900  -61.3130   -2.0310 C.3   402  PRO402      0.0892
     98  N         -7.1760  -69.4830    1.8920 N.3   449  LEU449     -0.1231
     99  CA        -7.7280  -68.9020    3.1140 C.3   449  LEU449      0.1693
    100  C         -9.2130  -68.5340    3.0030 C.2   449  LEU449      0.2591
    101  O         -9.9860  -68.6910    3.9850 O.2   449  LEU449     -0.2718
    102  CB        -6.9270  -67.6510    3.4580 C.3   449  LEU449      0.0284
    103  CG        -6.8880  -67.2160    4.9160 C.3   449  LEU449      0.0019
    104  CD1       -6.7280  -68.4310    5.8120 C.3   449  LEU449      0.0001
    105  CD2       -5.7290  -66.2860    5.1310 C.3   449  LEU449      0.0001
    106  N         -9.5880  -68.0280    1.8220 N.am  450  VAL450     -0.1980
    107  CA       -10.9630  -67.6520    1.5260 C.3   450  VAL450      0.1595
    108  C        -11.8540  -68.9200    1.4920 C.2   450  VAL450      0.2287
    109  O        -12.9210  -68.9480    2.1360 O.2   450  VAL450     -0.2864
    110  CB       -11.0760  -66.7670    0.2250 C.3   450  VAL450      0.0276
    111  CG1      -12.5090  -66.6810   -0.2900 C.3   450  VAL450      0.0022
    112  CG2      -10.5550  -65.3770    0.4580 C.3   450  VAL450      0.0022
    113  N        -13.9300  -61.5220   11.0730 N.3   463  LEU463     -0.1245
    114  CA       -12.5630  -61.0410   10.9740 C.3   463  LEU463      0.1561
    115  C        -11.6580  -61.3500   12.1620 C.2   463  LEU463      0.2260
    116  O        -10.4650  -61.5690   11.9640 O.2   463  LEU463     -0.2867
    117  CB       -12.5630  -59.5420   10.7490 C.3   463  LEU463      0.0270
    118  CG       -13.2310  -58.9680    9.5110 C.3   463  LEU463      0.0019
    119  CD1      -12.9080  -57.4380    9.5170 C.3   463  LEU463      0.0001
    120  CD2      -12.8870  -59.6750    8.1510 C.3   463  LEU463      0.0001
    121  N        -10.7050  -64.9020   11.8610 N.3   466  ALA466     -0.1231
    122  CA        -9.6340  -65.0580   10.8910 C.3   466  ALA466      0.1694
    123  C         -8.2960  -64.6020   11.4690 C.2   466  ALA466      0.2591
    124  O         -7.2700  -65.1220   11.0750 O.2   466  ALA466     -0.2718
    125  CB        -9.9420  -64.3500    9.5990 C.3   466  ALA466      0.0304
    126  N         -8.3010  -63.6660   12.4130 N.am  467  LEU467     -0.1980
    127  CA        -7.0580  -63.1790   13.0080 C.3   467  LEU467      0.1596
    128  C         -6.4120  -64.1920   13.9210 C.2   467  LEU467      0.2287
    129  O         -5.2030  -64.2870   13.9390 O.2   467  LEU467     -0.2864
    130  CB        -7.2340  -61.8250   13.7640 C.3   467  LEU467      0.0297
    131  CG        -7.3250  -60.5590   12.8630 C.3   467  LEU467      0.0022
    132  CD1       -7.8490  -59.3360   13.6420 C.3   467  LEU467      0.0001
    133  CD2       -6.0220  -60.2500   12.0500 C.3   467  LEU467      0.0001
    134  N         -4.9700  -67.1640   12.1000 N.3   470  MET470     -0.1245
    135  CA        -3.7290  -66.7650   11.4750 C.3   470  MET470      0.1570
    136  C         -2.6870  -66.4190   12.5250 C.2   470  MET470      0.2261
    137  O         -1.6330  -65.8560   12.2040 O.2   470  MET470     -0.2867
    138  CB        -3.9670  -65.5480   10.5640 C.3   470  MET470      0.0387
    139  CG        -4.8110  -65.8610    9.3160 C.3   470  MET470      0.0595
    140  SD        -4.7180  -64.6110    7.9910 S.3   470  MET470     -0.1393
    141  CE        -5.0790  -63.0890    8.8820 C.3   470  MET470      0.0692
    142  N          0.1790  -57.6730   14.8740 N.3   477  MET477     -0.1245
    143  CA        -0.6480  -57.1500   13.7710 C.3   477  MET477      0.1570
    144  C         -0.1590  -55.7830   13.2540 C.2   477  MET477      0.2261
    145  O          0.0330  -54.8380   14.0360 O.2   477  MET477     -0.2867
    146  CB        -2.1020  -57.0510   14.1920 C.3   477  MET477      0.0387
    147  CG        -2.6930  -58.3440   14.7370 C.3   477  MET477      0.0595
    148  SD        -4.1780  -57.9880   15.7100 S.3   477  MET477     -0.1393
    149  CE        -5.1680  -57.1320   14.4480 C.3   477  MET477      0.0692
@<TRIPOS>BOND
     1    94    93    2
     2    93    92    1
     3    86    85    2
     4    85    84    1
     5    92    91    1
     6    92    95    1
     7    91    97    1
     8    84    83    1
     9    84    87    1
    10    95    96    1
    11    96    97    1
    12    89    87    1
    13    87    88    1
    14    15    16    1
    15    78    77    1
    16    78    79    2
    17    80    77    1
    18    80    81    1
    19    16    17    1
    20    77    76    1
    21    88    90    1
    22   111   110    1
    23    81    82    1
    24   110   112    1
    25   110   107    1
    26    31    32   ar
    27    31    29   ar
    28    32    30   ar
    29    17    18    2
    30    71    70    2
    31    76    70   am
    32    76    82    1
    33    13    14   ar
    34    13    11   ar
    35    70    69    1
    36   108   107    1
    37   108   109    2
    38    14    12   ar
    39   107   106    1
    40    29    26   ar
    41    30    28   ar
    42    11     8   ar
    43   106   100   am
    44    98    99    1
    45    67    65    1
    46    26    28   ar
    47    26    24   ar
    48    28    27   ar
    49     4     3    2
    50    12    10   ar
    51    66    65    1
    52    69    68    1
    53    69    72    1
    54     8    10   ar
    55     8     6   ar
    56   100    99    1
    57   100   101    2
    58    99   102    1
    59    65    62    1
    60    68    63   am
    61    72    73    1
    62   102   103    1
    63    10     9   ar
    64     3     2    1
    65    27    25   ar
    66    24    23    1
    67    24    25   ar
    68     5     6    1
    69     5     2    1
    70    63    64    2
    71    63    62    1
    72     6     7   ar
    73    19    20    1
    74    23    20    1
    75    62    61    1
    76     2     1    1
    77    73    74    1
    78    73    75    1
    79     9     7   ar
    80   103   105    1
    81   103   104    1
    82    20    21    1
    83    58    55    1
    84    58    59    1
    85    55    54    1
    86    55    56    1
    87    21    22    2
    88    59    60    1
    89    45    44    1
    90    54    49   am
    91    54    60    1
    92    50    49    2
    93    56    57    2
    94    47    48    1
    95    49    48    1
    96    48    51    1
    97    44    46    1
    98    44    41    1
    99   140   141    1
   100   140   139    1
   101    43    42    2
   102   120   118    1
   103    42    41    1
   104    41    40    1
   105    51    52    1
   106    51    53    1
   107    39    33    1
   108    39    38    1
   109    40    35   am
   110    33    34    1
   111   139   138    1
   112   118   119    1
   113   118   117    1
   114   125   122    1
   115    35    34    1
   116    35    36    2
   117    38    37    1
   118    34    37    1
   119   138   135    1
   120   117   114    1
   121   122   123    1
   122   122   121    1
   123   114   113    1
   124   114   115    1
   125   124   123    2
   126   123   126   am
   127   135   134    1
   128   135   136    1
   129   116   115    2
   130   133   131    1
   131   137   136    2
   132   126   127    1
   133   131   132    1
   134   131   130    1
   135   127   130    1
   136   127   128    1
   137   144   143    1
   138   144   145    2
   139   143   146    1
   140   143   142    1
   141   128   129    2
   142   146   147    1
   143   149   148    1
   144   147   148    1
