@<TRIPOS>MOLECULE
tmp/3rndA01.pdb
 122 117 0 0 0
SMALL
GASTEIGER

@<TRIPOS>ATOM
      1  N         -0.4830  -40.1990   -9.8130 N.3    37  THR37      -0.1218
      2  CA        -1.8740  -40.4210  -10.1880 C.3    37  THR37       0.1862
      3  C         -2.0020  -41.7950  -10.8370 C.2    37  THR37       0.2287
      4  O         -1.2470  -42.1250  -11.7550 O.2    37  THR37      -0.2866
      5  CB        -2.3210  -39.3180  -11.1650 C.3    37  THR37       0.1770
      6  OG1       -2.3970  -38.0730  -10.4580 O.3    37  THR37      -0.2211
      7  CG2       -3.6700  -39.6310  -11.7780 C.3    37  THR37       0.0375
      8  N         -1.9630  -37.1490   -6.5270 N.3    72  GLY72      -0.1225
      9  CA        -2.6840  -35.9000   -6.3540 C.3    72  GLY72       0.1811
     10  C         -4.1290  -36.1230   -5.9420 C.2    72  GLY72       0.2280
     11  O         -4.8210  -36.9800   -6.4900 O.2    72  GLY72      -0.2866
     12  N        -11.3710  -35.2310  -13.2840 N.3    82  TYR82      -0.1241
     13  CA       -11.0570  -36.6130  -13.6540 C.3    82  TYR82       0.1605
     14  C        -11.8660  -37.4950  -12.7200 C.2    82  TYR82       0.2264
     15  O        -11.7180  -37.3960  -11.5040 O.2    82  TYR82      -0.2867
     16  CB        -9.5750  -36.9440  -13.4540 C.3    82  TYR82       0.0534
     17  CG        -8.5890  -36.0780  -14.2110 C.ar   82  TYR82      -0.0201
     18  CD1       -8.9350  -35.4630  -15.4120 C.ar   82  TYR82      -0.0009
     19  CD2       -7.3050  -35.8850  -13.7250 C.ar   82  TYR82      -0.0009
     20  CE1       -8.0260  -34.6830  -16.1010 C.ar   82  TYR82       0.0417
     21  CE2       -6.3960  -35.1040  -14.4000 C.ar   82  TYR82       0.0417
     22  CZ        -6.7540  -34.5020  -15.5880 C.ar   82  TYR82       0.1957
     23  OH        -5.8250  -33.7190  -16.2500 O.3    82  TYR82      -0.2866
     24  N         -0.6570  -35.0090   -1.5100 N.3   114  GLN114     -0.1245
     25  CA        -0.5200  -33.9390   -2.4920 C.3   114  GLN114      0.1566
     26  C         -1.8990  -33.3680   -2.8090 C.2   114  GLN114      0.2260
     27  O         -2.8240  -34.1090   -3.1420 O.2   114  GLN114     -0.2867
     28  CB         0.1660  -34.3900   -3.7810 C.3   114  GLN114      0.0367
     29  CG         0.3800  -33.1880   -4.7040 C.3   114  GLN114      0.0905
     30  CD         0.8640  -33.5360   -6.0920 C.2   114  GLN114      0.2608
     31  OE1        0.1510  -34.1620   -6.8760 O.2   114  GLN114     -0.2717
     32  NE2        2.0780  -33.1010   -6.4140 N.am  114  GLN114     -0.0878
     33  N         -4.1520  -31.1570   -5.2390 N.3   116  ILE116     -0.1245
     34  CA        -4.1570  -30.6940   -6.6220 C.3   116  ILE116      0.1561
     35  C         -5.4410  -29.9820   -7.0270 C.2   116  ILE116      0.2260
     36  O         -6.5290  -30.2450   -6.4840 O.2   116  ILE116     -0.2867
     37  CB        -3.8710  -31.8340   -7.6250 C.3   116  ILE116      0.0252
     38  CG1       -4.9280  -32.9310   -7.5230 C.3   116  ILE116      0.0019
     39  CG2       -2.4880  -32.4080   -7.3900 C.3   116  ILE116      0.0019
     40  CD1       -4.9030  -33.8920   -8.6900 C.3   116  ILE116      0.0001
     41  N          0.7340  -28.8180   -4.7810 N.3   191  HIS191     -0.1241
     42  CA         1.1530  -29.0150   -6.1570 C.3   191  HIS191      0.1621
     43  C          1.1160  -27.6930   -6.9080 C.2   191  HIS191      0.2264
     44  O          0.0590  -27.1140   -7.1170 O.2   191  HIS191     -0.2867
     45  CB         0.2570  -30.0400   -6.8450 C.3   191  HIS191      0.0745
     46  CG         0.6680  -30.3590   -8.2490 C.ar  191  HIS191      0.0817
     47  ND1       -0.1110  -30.0420   -9.3390 N.ar  191  HIS191     -0.2268
     48  CD2        1.7690  -30.9770   -8.7380 C.ar  191  HIS191      0.1154
     49  CE1        0.4900  -30.4530  -10.4420 C.ar  191  HIS191      0.1986
     50  NE2        1.6350  -31.0200  -10.1050 N.ar  191  HIS191     -0.2212
     51  N          3.7470  -29.0360  -13.0530 N.3   194  ASN194     -0.1240
     52  CA         3.1380  -29.8830  -14.0780 C.3   194  ASN194      0.1653
     53  C          1.9550  -29.2800  -14.8290 C.2   194  ASN194      0.2266
     54  O          1.1320  -30.0020  -15.3900 O.2   194  ASN194     -0.2867
     55  CB         2.7610  -31.2450  -13.4850 C.3   194  ASN194      0.1155
     56  CG         3.9610  -31.9990  -12.9510 C.2   194  ASN194      0.2627
     57  OD1        5.0200  -32.0050  -13.5570 O.2   194  ASN194     -0.2716
     58  ND2        3.8040  -32.6190  -11.7940 N.am  194  ASN194     -0.0877
     59  N         -0.7250  -27.6630  -13.8110 N.3   196  TYR196     -0.1241
     60  CA        -2.0350  -27.5810  -13.1700 C.3   196  TYR196      0.1605
     61  C         -2.3470  -26.1140  -12.8130 C.2   196  TYR196      0.2264
     62  O         -1.6640  -25.2120  -13.2980 O.2   196  TYR196     -0.2867
     63  CB        -2.1220  -28.5350  -11.9690 C.3   196  TYR196      0.0534
     64  CG        -2.3750  -29.9850  -12.3580 C.ar  196  TYR196     -0.0201
     65  CD1       -2.5340  -30.9700  -11.3910 C.ar  196  TYR196     -0.0009
     66  CD2       -2.4690  -30.3630  -13.6920 C.ar  196  TYR196     -0.0009
     67  CE1       -2.7700  -32.2880  -11.7420 C.ar  196  TYR196      0.0417
     68  CE2       -2.7060  -31.6770  -14.0530 C.ar  196  TYR196      0.0417
     69  CZ        -2.8550  -32.6370  -13.0760 C.ar  196  TYR196      0.1957
     70  OH        -3.0980  -33.9460  -13.4370 O.3   196  TYR196     -0.2866
     71  N          5.6450  -28.2710   -4.4460 N.3   243  ARG243     -0.1245
     72  CA         6.2260  -28.8900   -5.6460 C.3   243  ARG243      0.1563
     73  C          6.2350  -27.9280   -6.8280 C.2   243  ARG243      0.2260
     74  O          5.2230  -27.2840   -7.1230 O.2   243  ARG243     -0.2867
     75  CB         5.5060  -30.1920   -6.0430 C.3   243  ARG243      0.0307
     76  CG         6.3290  -31.0220   -7.0360 C.3   243  ARG243      0.0489
     77  CD         5.7840  -32.4270   -7.2710 C.3   243  ARG243      0.2205
     78  NE         6.8800  -33.3280   -7.6230 N.pl3 243  ARG243     -0.0865
     79  CZ         6.8270  -34.3230   -8.5060 C.cat 243  ARG243      0.5346
     80  NH1        5.7260  -34.5670   -9.2070 N.pl3 243  ARG243      0.1354
     81  NH2        7.9070  -35.0800   -8.6970 N.pl3 243  ARG243      0.1354
     82  N          4.9000  -29.9790  -19.7150 N.3   250  PHE250     -0.1241
     83  CA         3.6640  -30.7440  -19.6200 C.3   250  PHE250      0.1605
     84  C          2.4750  -29.8120  -19.3740 C.2   250  PHE250      0.2264
     85  O          2.5760  -28.8530  -18.6090 O.2   250  PHE250     -0.2867
     86  CB         3.7860  -31.7710  -18.4930 C.3   250  PHE250      0.0534
     87  CG         2.6760  -32.7810  -18.4640 C.ar  250  PHE250     -0.0203
     88  CD1        2.5170  -33.6840  -19.4990 C.ar  250  PHE250     -0.0042
     89  CD2        1.8050  -32.8410  -17.3940 C.ar  250  PHE250     -0.0042
     90  CE1        1.4960  -34.6210  -19.4700 C.ar  250  PHE250     -0.0003
     91  CE2        0.7860  -33.7750  -17.3590 C.ar  250  PHE250     -0.0003
     92  CZ         0.6310  -34.6640  -18.3970 C.ar  250  PHE250     -0.0000
     93  N          6.3280  -36.3030  -18.1750 N.3   295  PRO295     -0.2102
     94  CA         6.4890  -37.6280  -17.5640 C.3   295  PRO295      0.1504
     95  C          5.8520  -38.7630  -18.3580 C.2   295  PRO295      0.2575
     96  O          5.9760  -39.9270  -17.9790 O.2   295  PRO295     -0.2718
     97  CB         5.7980  -37.4670  -16.2060 C.3   295  PRO295      0.0282
     98  CG         4.7480  -36.4510  -16.4520 C.3   295  PRO295      0.0208
     99  CD         5.3280  -35.4870  -17.4640 C.3   295  PRO295      0.0893
    100  N          5.1790  -38.4320  -19.4500 N.am  296  PHE296     -0.1977
    101  CA         4.6300  -39.4750  -20.3060 C.3   296  PHE296      0.1639
    102  C          5.4920  -39.8030  -21.5100 C.2   296  PHE296      0.2290
    103  O          5.1120  -40.6000  -22.3600 O.2   296  PHE296     -0.2864
    104  CB         3.1940  -39.1560  -20.6580 C.3   296  PHE296      0.0560
    105  CG         2.3240  -39.1410  -19.4580 C.ar  296  PHE296     -0.0200
    106  CD1        1.8000  -40.3160  -18.9730 C.ar  296  PHE296     -0.0042
    107  CD2        2.1140  -37.9690  -18.7570 C.ar  296  PHE296     -0.0042
    108  CE1        1.0330  -40.3080  -17.8500 C.ar  296  PHE296     -0.0003
    109  CE2        1.3500  -37.9580  -17.6270 C.ar  296  PHE296     -0.0003
    110  CZ         0.8060  -39.1230  -17.1730 C.ar  296  PHE296     -0.0000
    111  N         -2.7670  -45.8840  -15.7260 N.3   375  TYR375     -0.1241
    112  CA        -4.0830  -45.2560  -15.4470 C.3   375  TYR375      0.1605
    113  C         -5.3530  -46.1530  -15.5400 C.2   375  TYR375      0.2264
    114  O         -6.4490  -45.6550  -15.7890 O.2   375  TYR375     -0.2867
    115  CB        -4.3090  -44.0680  -16.3940 C.3   375  TYR375      0.0534
    116  CG        -3.6560  -42.7400  -16.0330 C.ar  375  TYR375     -0.0201
    117  CD1       -2.7820  -42.6130  -14.9570 C.ar  375  TYR375     -0.0009
    118  CD2       -3.9400  -41.6020  -16.7780 C.ar  375  TYR375     -0.0009
    119  CE1       -2.2080  -41.3800  -14.6430 C.ar  375  TYR375      0.0417
    120  CE2       -3.3720  -40.3790  -16.4740 C.ar  375  TYR375      0.0417
    121  CZ        -2.5060  -40.2690  -15.4090 C.ar  375  TYR375      0.1957
    122  OH        -1.9460  -39.0430  -15.1090 O.3   375  TYR375     -0.2866
@<TRIPOS>BOND
     1   103   102    2
     2   102   101    1
     3   104   101    1
     4   104   105    1
     5   101   100    1
     6    82    83    1
     7    83    84    1
     8    83    86    1
     9    88    90   ar
    10    88    87   ar
    11    90    92   ar
    12   105   106   ar
    13   105   107   ar
    14   100    95   am
    15    84    85    2
    16   106   108   ar
    17   107   109   ar
    18    86    87    1
    19    87    89   ar
    20    92    91   ar
    21    95    96    2
    22    95    94    1
    23    93    94    1
    24    93    99    1
    25   108   110   ar
    26   109   110   ar
    27    94    97    1
    28    99    98    1
    29    89    91   ar
    30   118   120   ar
    31   118   116   ar
    32   120   121   ar
    33    98    97    1
    34   115   116    1
    35   115   112    1
    36    23    22    1
    37    20    22   ar
    38    20    18   ar
    39   116   117   ar
    40   114   113    2
    41   111   112    1
    42    22    21   ar
    43   113   112    1
    44    18    17   ar
    45   121   122    1
    46   121   119   ar
    47    54    53    2
    48   117   119   ar
    49    53    52    1
    50    21    19   ar
    51    17    19   ar
    52    17    16    1
    53    52    55    1
    54    52    51    1
    55    68    66   ar
    56    68    69   ar
    57    59    60    1
    58    66    64   ar
    59    13    16    1
    60    13    12    1
    61    13    14    1
    62    57    56    2
    63    55    56    1
    64    70    69    1
    65    62    61    2
    66    60    61    1
    67    60    63    1
    68    69    67   ar
    69    56    58   am
    70    14    15    2
    71    64    63    1
    72    64    65   ar
    73     7     5    1
    74     4     3    2
    75    67    65   ar
    76     5     6    1
    77     5     2    1
    78     3     2    1
    79    49    50   ar
    80    49    47   ar
    81     2     1    1
    82    50    48   ar
    83    47    46   ar
    84    80    79    1
    85    48    46   ar
    86    81    79    1
    87    40    38    1
    88    79    78    2
    89    46    45    1
    90    37    38    1
    91    37    39    1
    92    37    34    1
    93    78    77    1
    94    77    76    1
    95    74    73    2
    96    44    43    2
    97    76    75    1
    98    35    34    1
    99    35    36    2
   100    43    42    1
   101    31    30    2
   102    45    42    1
   103    73    72    1
   104    34    33    1
   105     8     9    1
   106    11    10    2
   107    32    30   am
   108     9    10    1
   109    42    41    1
   110    30    29    1
   111    75    72    1
   112    72    71    1
   113    29    28    1
   114    28    25    1
   115    27    26    2
   116    26    25    1
   117    25    24    1
