@<TRIPOS>MOLECULE
tmp/3rniA00.pdb
 171 161 0 0 0
SMALL
GASTEIGER

@<TRIPOS>ATOM
      1  N        -42.2080  127.6320   79.0060 N.3     8  GLU8       -0.1245
      2  CA       -41.0970  127.1150   78.2160 C.3     8  GLU8        0.1567
      3  C        -41.2620  125.5970   78.1630 C.2     8  GLU8        0.2260
      4  O        -40.9890  124.8960   79.1330 O.2     8  GLU8       -0.2867
      5  CB       -39.7650  127.4880   78.8630 C.3     8  GLU8        0.0388
      6  CG       -38.5780  127.3750   77.9350 C.3     8  GLU8        0.1160
      7  CD       -38.1210  125.9520   77.7620 C.2     8  GLU8        0.3649
      8  OE1      -37.6120  125.3770   78.7450 O.co2   8  GLU8       -0.2457
      9  OE2      -38.2720  125.4060   76.6490 O.co2   8  GLU8       -0.2457
     10  N        -40.7280  121.8950   77.9020 N.3    10  ILE10      -0.1245
     11  CA       -39.5740  121.0350   78.1140 C.3    10  ILE10       0.1561
     12  C        -39.8310  119.5910   77.6990 C.2    10  ILE10       0.2260
     13  O        -39.0990  118.6810   78.0950 O.2    10  ILE10      -0.2867
     14  CB       -39.1050  121.0820   79.5870 C.3    10  ILE10       0.0252
     15  CG1      -40.2560  120.7280   80.5280 C.3    10  ILE10       0.0019
     16  CG2      -38.5760  122.4700   79.9070 C.3    10  ILE10       0.0019
     17  CD1      -39.8990  120.8410   81.9950 C.3    10  ILE10       0.0001
     18  N        -44.7960  114.7780   77.8010 N.3    13  GLY13      -0.1225
     19  CA       -44.9300  113.5830   78.6130 C.3    13  GLY13       0.1811
     20  C        -45.7870  112.5140   77.9630 C.2    13  GLY13       0.2280
     21  O        -46.2920  112.6870   76.8470 O.2    13  GLY13      -0.2866
     22  N        -45.2140  118.8640   78.9050 N.3    18  VAL18      -0.1245
     23  CA       -44.6030  119.3310   80.1410 C.3    18  VAL18       0.1561
     24  C        -43.9140  120.6560   79.9230 C.2    18  VAL18       0.2260
     25  O        -43.2170  120.8560   78.9330 O.2    18  VAL18      -0.2867
     26  CB       -43.5920  118.3190   80.6810 C.3    18  VAL18       0.0252
     27  CG1      -43.0890  118.7630   82.0740 C.3    18  VAL18       0.0019
     28  CG2      -44.2480  116.9520   80.7550 C.3    18  VAL18       0.0019
     29  N        -41.7930  124.1860   81.8140 N.3    20  LYS20      -0.1245
     30  CA       -41.0240  124.7270   82.9190 C.3    20  LYS20       0.1561
     31  C        -41.8000  126.0140   83.1130 C.2    20  LYS20       0.2260
     32  O        -41.9810  126.7660   82.1570 O.2    20  LYS20      -0.2867
     33  CB       -39.5860  125.0530   82.5120 C.3    20  LYS20       0.0271
     34  CG       -38.8000  125.7270   83.6390 C.3    20  LYS20       0.0035
     35  CD       -37.3800  126.0980   83.2060 C.3    20  LYS20       0.0206
     36  CE       -36.5580  126.6430   84.3840 C.3    20  LYS20       0.1093
     37  NZ       -35.1430  126.8630   83.9640 N.3    20  LYS20      -0.1314
     38  N        -42.2150  122.3640   87.3750 N.3    31  ALA31      -0.1245
     39  CA       -42.4230  121.6040   86.1430 C.3    31  ALA31       0.1562
     40  C        -43.9360  121.4440   86.1180 C.2    31  ALA31       0.2260
     41  O        -44.5210  120.9800   87.0940 O.2    31  ALA31      -0.2867
     42  CB       -41.7480  120.2240   86.2340 C.3    31  ALA31       0.0290
     43  N        -47.1890  119.7300   84.2180 N.3    33  LYS33      -0.1245
     44  CA       -47.6850  118.7870   83.2320 C.3    33  LYS33       0.1561
     45  C        -49.1520  119.0850   82.9410 C.2    33  LYS33       0.2260
     46  O        -49.9810  119.1460   83.8530 O.2    33  LYS33      -0.2867
     47  CB       -47.5370  117.3530   83.7200 C.3    33  LYS33       0.0271
     48  CG       -47.9340  116.3420   82.6610 C.3    33  LYS33       0.0035
     49  CD       -47.7320  114.9270   83.1590 C.3    33  LYS33       0.0206
     50  CE       -47.9160  113.9050   82.0410 C.3    33  LYS33       0.1093
     51  NZ       -47.7940  112.5200   82.5830 N.3    33  LYS33      -0.1314
     52  N        -39.6000  112.5960   92.7190 N.3    60  VAL60      -0.1245
     53  CA       -39.9060  113.9810   92.3960 C.3    60  VAL60       0.1561
     54  C        -41.1700  114.3700   93.1720 C.2    60  VAL60       0.2260
     55  O        -42.1790  113.6770   93.1240 O.2    60  VAL60      -0.2867
     56  CB       -40.1230  114.1630   90.8650 C.3    60  VAL60       0.0252
     57  CG1      -40.6490  115.5570   90.5560 C.3    60  VAL60       0.0019
     58  CG2      -38.7980  113.9610   90.1390 C.3    60  VAL60       0.0019
     59  N        -45.0450  119.8690   89.6730 N.3    76  PHE76      -0.1227
     60  CA       -43.9380  119.1160   90.2780 C.3    76  PHE76       0.1736
     61  C        -42.7230  119.9890   90.5680 C.2    76  PHE76       0.2595
     62  O        -42.5450  121.0390   89.9600 O.2    76  PHE76      -0.2718
     63  CB       -43.4530  118.0180   89.3260 C.3    76  PHE76       0.0547
     64  CG       -44.4750  116.9800   89.0080 C.ar   76  PHE76      -0.0202
     65  CD1      -44.6990  115.9180   89.8770 C.ar   76  PHE76      -0.0042
     66  CD2      -45.1880  117.0400   87.8180 C.ar   76  PHE76      -0.0042
     67  CE1      -45.6180  114.9200   89.5600 C.ar   76  PHE76      -0.0003
     68  CE2      -46.1160  116.0430   87.4860 C.ar   76  PHE76      -0.0003
     69  CZ       -46.3260  114.9840   88.3570 C.ar   76  PHE76      -0.0000
     70  N        -41.8790  119.5260   91.4860 N.am   77  GLU77      -0.1965
     71  CA       -40.6430  120.2210   91.7960 C.3    77  GLU77       0.1733
     72  C        -39.8360  120.0970   90.4970 C.2    77  GLU77       0.2616
     73  O        -39.8560  119.0550   89.8290 O.2    77  GLU77      -0.2715
     74  CB       -39.8980  119.5380   92.9600 C.3    77  GLU77       0.0429
     75  CG       -39.3390  118.1540   92.6560 C.3    77  GLU77       0.1163
     76  CD       -38.3560  117.6300   93.7200 C.2    77  GLU77       0.3649
     77  OE1      -37.2850  118.2450   93.9390 O.co2  77  GLU77      -0.2457
     78  OE2      -38.6430  116.5950   94.3400 O.co2  77  GLU77      -0.2457
     79  N        -39.1400  121.1560   90.1310 N.am   78  PHE78      -0.1960
     80  CA       -38.3650  121.1780   88.8990 C.3    78  PHE78       0.1771
     81  C        -36.9030  120.7270   89.0370 C.2    78  PHE78       0.2619
     82  O        -36.2150  121.1490   89.9620 O.2    78  PHE78      -0.2715
     83  CB       -38.4210  122.5990   88.3240 C.3    78  PHE78       0.0574
     84  CG       -37.5720  122.8040   87.1130 C.ar   78  PHE78      -0.0200
     85  CD1      -36.2680  123.2920   87.2310 C.ar   78  PHE78      -0.0042
     86  CD2      -38.0600  122.4860   85.8500 C.ar   78  PHE78      -0.0042
     87  CE1      -35.4710  123.4500   86.1150 C.ar   78  PHE78      -0.0003
     88  CE2      -37.2640  122.6430   84.7180 C.ar   78  PHE78      -0.0003
     89  CZ       -35.9640  123.1240   84.8520 C.ar   78  PHE78      -0.0000
     90  N        -36.4490  119.8540   88.1350 N.am   79  LEU79      -0.1963
     91  CA       -35.0410  119.4280   88.1200 C.3    79  LEU79       0.1728
     92  C        -34.4950  119.8190   86.7610 C.2    79  LEU79       0.2616
     93  O        -35.2310  119.8220   85.7730 O.2    79  LEU79      -0.2715
     94  CB       -34.8700  117.9230   88.3830 C.3    79  LEU79       0.0311
     95  CG       -34.8930  117.6360   89.8990 C.3    79  LEU79       0.0022
     96  CD1      -36.3360  117.4160   90.3330 C.3    79  LEU79       0.0001
     97  CD2      -34.0690  116.4150   90.2490 C.3    79  LEU79       0.0001
     98  N        -33.2080  120.1300   86.6930 N.am   80  HIS80      -0.1959
     99  CA       -32.6350  120.6050   85.4380 C.3    80  HIS80       0.1787
    100  C        -32.2820  119.6790   84.3010 C.2    80  HIS80       0.2620
    101  O        -32.0620  120.1490   83.1740 O.2    80  HIS80      -0.2715
    102  CB       -31.4210  121.4760   85.7330 C.3    80  HIS80       0.0785
    103  CG       -31.7700  122.8070   86.3210 C.ar   80  HIS80       0.0821
    104  ND1      -32.1100  122.9680   87.6460 N.ar   80  HIS80      -0.2267
    105  CD2      -31.8580  124.0360   85.7540 C.ar   80  HIS80       0.1154
    106  CE1      -32.3910  124.2400   87.8730 C.ar   80  HIS80       0.1986
    107  NE2      -32.2460  124.9080   86.7420 N.ar   80  HIS80      -0.2212
    108  N        -32.2160  118.3780   84.5470 N.am   81  GLN81      -0.1963
    109  CA       -31.8530  117.4890   83.4460 C.3    81  GLN81       0.1733
    110  C        -32.3830  116.0890   83.6930 C.2    81  GLN81       0.2616
    111  O        -32.6040  115.7130   84.8440 O.2    81  GLN81      -0.2715
    112  CB       -30.3240  117.4640   83.3060 C.3    81  GLN81       0.0408
    113  CG       -29.7850  116.7690   82.0600 C.3    81  GLN81       0.0908
    114  CD       -28.3420  117.1330   81.7890 C.2    81  GLN81       0.2608
    115  OE1      -28.0160  118.3040   81.5350 O.2    81  GLN81      -0.2717
    116  NE2      -27.4610  116.1400   81.8390 N.am   81  GLN81      -0.0878
    117  N        -32.5900  115.3220   82.6210 N.am   82  ASP82      -0.1971
    118  CA       -33.0550  113.9440   82.7890 C.3    82  ASP82       0.1709
    119  C        -31.9070  113.0030   82.4330 C.2    82  ASP82       0.2293
    120  O        -30.9520  113.3970   81.7650 O.2    82  ASP82      -0.2864
    121  CB       -34.3050  113.6520   81.9330 C.3    82  ASP82       0.1436
    122  CG       -34.0400  113.7390   80.4440 C.2    82  ASP82       0.3671
    123  OD1      -33.1360  113.0330   79.9440 O.co2  82  ASP82      -0.2456
    124  OD2      -34.7500  114.5170   79.7740 O.co2  82  ASP82      -0.2456
    125  N        -30.8600  112.6130   78.6210 N.3    85  LYS85      -0.1245
    126  CA       -29.9700  113.6530   78.1090 C.3    85  LYS85       0.1561
    127  C        -28.5530  113.5060   78.6630 C.2    85  LYS85       0.2260
    128  O        -27.5660  113.6820   77.9390 O.2    85  LYS85      -0.2867
    129  CB       -30.5250  115.0550   78.4380 C.3    85  LYS85       0.0271
    130  CG       -29.5480  116.1810   78.0970 C.3    85  LYS85       0.0035
    131  CD       -30.2380  117.5480   77.9950 C.3    85  LYS85       0.0206
    132  CE       -29.2550  118.6260   77.5380 C.3    85  LYS85       0.1093
    133  NZ       -29.9370  119.9000   77.1800 N.3    85  LYS85      -0.1314
    134  N        -35.8080  108.9790   80.4080 N.3   127  GLN127     -0.1231
    135  CA       -36.4830  110.2710   80.3110 C.3   127  GLN127      0.1698
    136  C        -37.2480  110.6550   81.5630 C.2   127  GLN127      0.2592
    137  O        -37.4690  111.8400   81.7900 O.2   127  GLN127     -0.2718
    138  CB       -37.4400  110.2970   79.1150 C.3   127  GLN127      0.0381
    139  CG       -36.7700  110.0040   77.7960 C.3   127  GLN127      0.0905
    140  CD       -36.9470  108.5570   77.3600 C.2   127  GLN127      0.2608
    141  OE1      -36.2620  107.6350   77.8540 O.2   127  GLN127     -0.2717
    142  NE2      -37.8920  108.3440   76.4400 N.am  127  GLN127     -0.0878
    143  N        -37.7020  109.6910   82.3630 N.am  128  ASN128     -0.1974
    144  CA       -38.3720  110.1130   83.5860 C.3   128  ASN128      0.1688
    145  C        -37.5710  109.9250   84.8740 C.2   128  ASN128      0.2292
    146  O        -38.1240  109.7960   85.9690 O.2   128  ASN128     -0.2864
    147  CB       -39.7780  109.5320   83.7270 C.3   128  ASN128      0.1181
    148  CG       -39.8380  108.0770   83.4840 C.2   128  ASN128      0.2629
    149  OD1      -39.1040  107.3050   84.1000 O.2   128  ASN128     -0.2716
    150  ND2      -40.7410  107.6670   82.5870 N.am  128  ASN128     -0.0877
    151  N        -34.8440  112.0480   86.8100 N.3   130  LEU130     -0.1245
    152  CA       -34.2810  113.3990   86.8080 C.3   130  LEU130      0.1561
    153  C        -33.0990  113.5590   87.7630 C.2   130  LEU130      0.2260
    154  O        -33.1100  113.0200   88.8670 O.2   130  LEU130     -0.2867
    155  CB       -35.3870  114.3900   87.1640 C.3   130  LEU130      0.0270
    156  CG       -36.6640  114.0830   86.3740 C.3   130  LEU130      0.0019
    157  CD1      -37.7470  114.9750   86.8780 C.3   130  LEU130      0.0001
    158  CD2      -36.4370  114.2760   84.8580 C.3   130  LEU130      0.0001
    159  N        -39.6970  110.1760   88.3410 N.3   140  ALA140     -0.1231
    160  CA       -40.7330  111.1310   87.9520 C.3   140  ALA140      0.1694
    161  C        -41.7410  110.4900   87.0160 C.2   140  ALA140      0.2592
    162  O        -41.5700  109.3510   86.6020 O.2   140  ALA140     -0.2718
    163  CB       -40.1090  112.3270   87.2490 C.3   140  ALA140      0.0304
    164  N        -42.7920  111.2410   86.7020 N.am  141  ASP141     -0.1974
    165  CA       -43.8300  110.8180   85.7620 C.3   141  ASP141      0.1709
    166  C        -44.3460  109.4070   85.9890 C.2   141  ASP141      0.2293
    167  O        -44.3690  108.5980   85.0620 O.2   141  ASP141     -0.2864
    168  CB       -43.2810  110.9460   84.3370 C.3   141  ASP141      0.1436
    169  CG       -44.3570  110.8080   83.2680 C.2   141  ASP141      0.3671
    170  OD1      -45.4500  111.3760   83.4380 O.co2 141  ASP141     -0.2456
    171  OD2      -44.0900  110.1450   82.2440 O.co2 141  ASP141     -0.2456
@<TRIPOS>BOND
     1   142   140   am
     2     9     7   ar
     3    21    20    2
     4   133   132    1
     5   140   139    1
     6   140   141    2
     7   132   131    1
     8    12    13    2
     9    12    11    1
    10     7     6    1
    11     7     8   ar
    12   139   138    1
    13    18    19    1
    14    10    11    1
    15     6     5    1
    16   128   127    2
    17    20    19    1
    18   131   130    1
    19   130   129    1
    20   126   129    1
    21   126   125    1
    22   126   127    1
    23    11    14    1
    24     3     2    1
    25     3     4    2
    26     2     5    1
    27     2     1    1
    28    22    23    1
    29    25    24    2
    30   138   135    1
    31    14    16    1
    32    14    15    1
    33   124   122   ar
    34    24    23    1
    35   123   122   ar
    36    23    26    1
    37   135   134    1
    38   135   136    1
    39   122   121    1
    40    15    17    1
    41    26    28    1
    42    26    27    1
    43   115   114    2
    44   136   137    2
    45   136   143   am
    46   120   119    2
    47   114   116   am
    48   114   113    1
    49    29    30    1
    50   121   118    1
    51    50    51    1
    52    50    49    1
    53   113   112    1
    54    32    31    2
    55   171   169   ar
    56   143   144    1
    57   119   118    1
    58    33    30    1
    59    33    34    1
    60   150   148   am
    61   117   118    1
    62   117   110   am
    63    48    49    1
    64    48    47    1
    65    30    31    1
    66    45    44    1
    67    45    46    2
    68   101   100    2
    69    35    34    1
    70    35    36    1
    71    44    47    1
    72    44    43    1
    73   169   170   ar
    74   169   168    1
    75   112   109    1
    76   109   110    1
    77   109   108    1
    78   148   147    1
    79   148   149    2
    80   144   147    1
    81   144   145    1
    82   110   111    2
    83    37    36    1
    84   100   108   am
    85   100    99    1
    86   168   165    1
    87    88    89   ar
    88    88    86   ar
    89    89    87   ar
    90   158   156    1
    91   145   146    2
    92   167   166    2
    93    99   102    1
    94    99    98    1
    95   102   103    1
    96   105   103   ar
    97   105   107   ar
    98   165   166    1
    99   165   164    1
   100    93    92    2
   101    86    84   ar
   102    87    85   ar
   103    40    39    1
   104    40    41    2
   105    39    42    1
   106    39    38    1
   107   103   104   ar
   108   156   157    1
   109   156   155    1
   110   162   161    2
   111    98    92   am
   112   164   161   am
   113   107   106   ar
   114    92    91    1
   115   152   151    1
   116   152   155    1
   117   152   153    1
   118   161   160    1
   119    84    85   ar
   120    84    83    1
   121   163   160    1
   122    68    66   ar
   123    68    69   ar
   124   104   106   ar
   125   153   154    2
   126    66    64   ar
   127   160   159    1
   128    91    90    1
   129    91    94    1
   130    90    81   am
   131    83    80    1
   132    69    67   ar
   133    94    95    1
   134    80    81    1
   135    80    79    1
   136    64    63    1
   137    64    65   ar
   138    81    82    2
   139    63    60    1
   140    67    65   ar
   141    59    60    1
   142    73    72    2
   143    95    97    1
   144    95    96    1
   145    62    61    2
   146    79    72   am
   147    58    56    1
   148    60    61    1
   149    72    71    1
   150    57    56    1
   151    61    70   am
   152    56    53    1
   153    70    71    1
   154    71    74    1
   155    53    52    1
   156    53    54    1
   157    75    74    1
   158    75    76    1
   159    55    54    2
   160    76    77   ar
   161    76    78   ar
