@<TRIPOS>MOLECULE
tmp/3rnmD01.pdb
 109 105 0 0 0
SMALL
GASTEIGER

@<TRIPOS>ATOM
      1  N        -55.0710  -60.2760   47.2300 N.3   218  GLU218     -0.1245
      2  CA       -54.0700  -59.7650   48.1460 C.3   218  GLU218      0.1567
      3  C        -53.4960  -58.4650   47.6060 C.2   218  GLU218      0.2260
      4  O        -53.3930  -57.4770   48.3410 O.2   218  GLU218     -0.2867
      5  CB       -52.9430  -60.7780   48.3970 C.3   218  GLU218      0.0388
      6  CG       -51.8990  -60.2630   49.3800 C.3   218  GLU218      0.1160
      7  CD       -50.7500  -61.2470   49.6430 C.2   218  GLU218      0.3649
      8  OE1      -50.6350  -62.2720   48.9310 O.co2 218  GLU218     -0.2457
      9  OE2      -49.9600  -60.9820   50.5800 O.co2 218  GLU218     -0.2457
     10  N        -53.7270  -54.7220   49.4680 N.3   222  ASN222     -0.1240
     11  CA       -52.5730  -53.9120   49.8380 C.3   222  ASN222      0.1653
     12  C        -52.5820  -52.5800   49.0980 C.2   222  ASN222      0.2266
     13  O        -52.2200  -51.5440   49.6610 O.2   222  ASN222     -0.2867
     14  CB       -51.2700  -54.6650   49.5990 C.3   222  ASN222      0.1155
     15  CG       -51.1900  -55.9270   50.4060 C.2   222  ASN222      0.2627
     16  OD1      -52.1170  -56.2530   51.1430 O.2   222  ASN222     -0.2716
     17  ND2      -50.0980  -56.6580   50.2660 N.am  222  ASN222     -0.0877
     18  N        -55.1630  -50.2830   50.8320 N.3   225  ARG225     -0.1231
     19  CA       -54.5280  -49.7480   52.0490 C.3   225  ARG225      0.1694
     20  C        -53.6200  -48.5550   51.7400 C.2   225  ARG225      0.2591
     21  O        -53.7950  -47.4640   52.3000 O.2   225  ARG225     -0.2718
     22  CB       -53.7160  -50.8310   52.7760 C.3   225  ARG225      0.0321
     23  CG       -54.4770  -51.6010   53.8670 C.3   225  ARG225      0.0489
     24  CD       -53.8360  -52.9550   54.1700 C.3   225  ARG225      0.2205
     25  NE       -54.8330  -53.9470   54.5590 N.pl3 225  ARG225     -0.0865
     26  CZ       -54.7090  -55.2590   54.3730 C.cat 225  ARG225      0.5346
     27  NH1      -53.6240  -55.7450   53.7870 N.pl3 225  ARG225      0.1354
     28  NH2      -55.6760  -56.0890   54.7680 N.pl3 225  ARG225      0.1354
     29  N        -52.6620  -48.7610   50.8330 N.am  226  ILE226     -0.1980
     30  CA       -51.7290  -47.7040   50.4880 C.3   226  ILE226      0.1595
     31  C        -52.4550  -46.4800   49.9420 C.2   226  ILE226      0.2287
     32  O        -52.1540  -45.3560   50.3420 O.2   226  ILE226     -0.2864
     33  CB       -50.6640  -48.1810   49.4970 C.3   226  ILE226      0.0276
     34  CG1      -49.8450  -49.3070   50.1280 C.3   226  ILE226      0.0022
     35  CG2      -49.7690  -47.0170   49.0970 C.3   226  ILE226      0.0022
     36  CD1      -49.0370  -50.1190   49.1460 C.3   226  ILE226      0.0001
     37  N        -43.0870  -64.2940   47.7090 N.3   379  LYS379     -0.1231
     38  CA       -43.2530  -62.8470   47.8480 C.3   379  LYS379      0.1693
     39  C        -41.9350  -62.1990   48.2050 C.2   379  LYS379      0.2592
     40  O        -41.1180  -62.7940   48.8980 O.2   379  LYS379     -0.2718
     41  CB       -44.2600  -62.5140   48.9420 C.3   379  LYS379      0.0285
     42  CG       -45.5450  -63.2770   48.8330 C.3   379  LYS379      0.0035
     43  CD       -46.5040  -62.8760   49.9280 C.3   379  LYS379      0.0206
     44  CE       -47.7560  -63.7440   49.8870 C.3   379  LYS379      0.1093
     45  NZ       -48.6450  -63.4600   51.0540 N.3   379  LYS379     -0.1314
     46  N        -41.7350  -60.9700   47.7510 N.am  380  PHE380     -0.1963
     47  CA       -40.5580  -60.1990   48.1310 C.3   380  PHE380      0.1756
     48  C        -40.9280  -58.7240   48.2300 C.2   380  PHE380      0.2461
     49  O        -41.4210  -58.1500   47.2720 O.2   380  PHE380     -0.2730
     50  CB       -39.3800  -60.3970   47.1510 C.3   380  PHE380      0.0574
     51  CG       -38.1000  -59.7110   47.6110 C.ar  380  PHE380     -0.0200
     52  CD1      -37.1640  -60.3970   48.3860 C.ar  380  PHE380     -0.0042
     53  CD2      -37.8600  -58.3740   47.3220 C.ar  380  PHE380     -0.0042
     54  CE1      -36.0150  -59.7750   48.8310 C.ar  380  PHE380     -0.0003
     55  CE2      -36.7080  -57.7500   47.7650 C.ar  380  PHE380     -0.0003
     56  CZ       -35.7840  -58.4530   48.5280 C.ar  380  PHE380     -0.0000
     57  N        -40.6900  -58.1060   49.3940 N.am  381  PRO381     -0.2727
     58  CA       -41.1240  -56.7270   49.6300 C.3   381  PRO381      0.1402
     59  C        -40.1490  -55.7230   49.0450 C.2   381  PRO381      0.2269
     60  O        -38.9570  -55.9480   49.1070 O.2   381  PRO381     -0.2865
     61  CB       -41.0900  -56.6130   51.1510 C.3   381  PRO381      0.0296
     62  CG       -39.9610  -57.5190   51.5630 C.3   381  PRO381      0.0237
     63  CD       -39.9840  -58.6760   50.5540 C.3   381  PRO381      0.0939
     64  N        -40.6810  -47.2580   49.2040 N.3   394  THR394     -0.1203
     65  CA       -40.6490  -48.6620   49.5970 C.3   394  THR394      0.1994
     66  C        -41.9780  -49.3830   49.8670 C.2   394  THR394      0.2618
     67  O        -41.9760  -50.4520   50.4780 O.2   394  THR394     -0.2717
     68  CB       -39.7540  -48.8220   50.8080 C.3   394  THR394      0.1784
     69  OG1      -40.3040  -48.0840   51.9060 O.3   394  THR394     -0.2211
     70  CG2      -38.3840  -48.2750   50.4730 C.3   394  THR394      0.0376
     71  N        -43.0930  -48.8190   49.4100 N.am  395  ASP395     -0.1959
     72  CA       -44.3670  -49.5280   49.4350 C.3   395  ASP395      0.1840
     73  C        -44.2800  -50.7570   48.5420 C.2   395  ASP395      0.2623
     74  O        -43.6030  -50.7380   47.5230 O.2   395  ASP395     -0.2715
     75  CB       -45.4730  -48.6510   48.8400 C.3   395  ASP395      0.1450
     76  CG       -45.8520  -47.4800   49.7230 C.2   395  ASP395      0.3671
     77  OD1      -45.9060  -47.6490   50.9680 O.co2 395  ASP395     -0.2456
     78  OD2      -46.1220  -46.3930   49.1470 O.co2 395  ASP395     -0.2456
     79  N        -44.9930  -51.8160   48.8900 N.am  396  GLY396     -0.1940
     80  CA       -45.2790  -52.8420   47.9100 C.3   396  GLY396      0.2014
     81  C        -44.4550  -54.1090   47.9810 C.2   396  GLY396      0.2638
     82  O        -43.6240  -54.2780   48.8760 O.2   396  GLY396     -0.2714
     83  N        -44.7000  -55.0010   47.0240 N.am  397  MET397     -0.1976
     84  CA       -44.0530  -56.3040   46.9730 C.3   397  MET397      0.1605
     85  C        -44.1570  -56.8390   45.5600 C.2   397  MET397      0.2287
     86  O        -45.0050  -56.3920   44.7920 O.2   397  MET397     -0.2864
     87  CB       -44.7710  -57.2830   47.9150 C.3   397  MET397      0.0413
     88  CG       -46.1360  -57.7350   47.4100 C.3   397  MET397      0.0598
     89  SD       -47.0050  -58.9190   48.4790 S.3   397  MET397     -0.1393
     90  CE       -48.3880  -59.3900   47.4490 C.3   397  MET397      0.0692
     91  N        -46.9000  -54.7620   43.0190 N.3   415  LEU415     -0.1245
     92  CA       -47.4020  -53.5320   43.5940 C.3   415  LEU415      0.1561
     93  C        -46.1780  -52.8270   44.0870 C.2   415  LEU415      0.2260
     94  O        -45.4330  -53.3850   44.8930 O.2   415  LEU415     -0.2867
     95  CB       -48.3430  -53.8180   44.7720 C.3   415  LEU415      0.0270
     96  CG       -48.7430  -52.6270   45.6560 C.3   415  LEU415      0.0019
     97  CD1      -49.5870  -51.6150   44.8750 C.3   415  LEU415      0.0001
     98  CD2      -49.5080  -53.0810   46.9050 C.3   415  LEU415      0.0001
     99  N        -34.3990  -61.2530   52.2460 N.3   468  PHE468     -0.1241
    100  CA       -35.5560  -61.2140   53.1140 C.3   468  PHE468      0.1605
    101  C        -35.8870  -62.6000   53.6770 C.2   468  PHE468      0.2264
    102  O        -36.5470  -62.7230   54.7200 O.2   468  PHE468     -0.2867
    103  CB       -36.7490  -60.5970   52.3720 C.3   468  PHE468      0.0534
    104  CG       -37.9050  -60.2800   53.2660 C.ar  468  PHE468     -0.0203
    105  CD1      -37.8730  -59.1550   54.0790 C.ar  468  PHE468     -0.0042
    106  CD2      -39.0150  -61.1200   53.3130 C.ar  468  PHE468     -0.0042
    107  CE1      -38.9260  -58.8680   54.9160 C.ar  468  PHE468     -0.0003
    108  CE2      -40.0700  -60.8430   54.1550 C.ar  468  PHE468     -0.0003
    109  CZ       -40.0320  -59.7210   54.9590 C.ar  468  PHE468     -0.0000
@<TRIPOS>BOND
     1    91    92    1
     2    92    93    1
     3    92    95    1
     4    93    94    2
     5    95    96    1
     6    86    85    2
     7    97    96    1
     8    85    84    1
     9    96    98    1
    10    84    83    1
    11    84    87    1
    12    83    81   am
    13    50    51    1
    14    50    47    1
    15     1     2    1
    16    49    48    2
    17    53    51   ar
    18    53    55   ar
    19    88    87    1
    20    88    89    1
    21    90    89    1
    22    74    73    2
    23     3     2    1
    24     3     4    2
    25    51    52   ar
    26    37    38    1
    27    46    47    1
    28    46    39   am
    29    55    56   ar
    30    38    39    1
    31    38    41    1
    32    80    81    1
    33    80    79    1
    34    81    82    2
    35    47    48    1
    36     2     5    1
    37    39    40    2
    38    48    57   am
    39    52    54   ar
    40     5     6    1
    41    56    54   ar
    42    73    79   am
    43    73    72    1
    44    42    41    1
    45    42    43    1
    46    75    72    1
    47    75    76    1
    48     8     7   ar
    49    59    60    2
    50    59    58    1
    51    35    33    1
    52    12    13    2
    53    12    11    1
    54    36    34    1
    55    78    76   ar
    56    64    65    1
    57     6     7    1
    58    57    58    1
    59    57    63    1
    60    71    72    1
    61    71    66   am
    62    10    11    1
    63    33    34    1
    64    33    30    1
    65    65    66    1
    66    65    68    1
    67    14    11    1
    68    14    15    1
    69    58    61    1
    70     7     9   ar
    71    76    77   ar
    72    66    67    2
    73    44    43    1
    74    44    45    1
    75    31    32    2
    76    31    30    1
    77    17    15   am
    78    15    16    2
    79    70    68    1
    80    30    29    1
    81    63    62    1
    82    68    69    1
    83    18    19    1
    84    29    20   am
    85    61    62    1
    86    20    19    1
    87    20    21    2
    88    19    22    1
    89    99   100    1
    90   103   100    1
    91   103   104    1
    92    22    23    1
    93   100   101    1
    94   104   106   ar
    95   104   105   ar
    96   106   108   ar
    97   101   102    2
    98    27    26    1
    99    23    24    1
   100   105   107   ar
   101   108   109   ar
   102    24    25    1
   103    26    25    2
   104    26    28    1
   105   107   109   ar
