@<TRIPOS>MOLECULE
tmp/3rnnB00.pdb
 107 104 0 0 0
SMALL
GASTEIGER

@<TRIPOS>ATOM
      1  N         59.7740   73.3510   57.7790 N.3    90  ILE90      -0.1231
      2  CA        58.8280   73.6170   58.8750 C.3    90  ILE90       0.1692
      3  C         57.6170   72.7070   58.6700 C.2    90  ILE90       0.2592
      4  O         56.9780   72.7820   57.6200 O.2    90  ILE90      -0.2718
      5  CB        58.3520   75.0860   58.8410 C.3    90  ILE90       0.0266
      6  CG1       59.5350   76.0590   58.9750 C.3    90  ILE90       0.0019
      7  CG2       57.3390   75.3390   59.9300 C.3    90  ILE90       0.0020
      8  CD1       59.1780   77.5090   58.6900 C.3    90  ILE90       0.0001
      9  N         57.3350   71.8540   59.6560 N.am   91  THR91      -0.1953
     10  CA        56.1670   70.9650   59.6190 C.3    91  THR91       0.1897
     11  C         55.4690   70.9740   60.9660 C.2    91  THR91       0.2313
     12  O         56.0790   71.2430   62.0190 O.2    91  THR91      -0.2863
     13  CB        56.5000   69.4750   59.2520 C.3    91  THR91       0.1794
     14  OG1       57.1130   68.8070   60.3760 O.3    91  THR91      -0.2208
     15  CG2       57.3930   69.3860   57.9930 C.3    91  THR91       0.0378
     16  N         60.7650   82.0590   61.7380 N.3   102  LYS102     -0.1231
     17  CA        60.0940   82.3440   60.4740 C.3   102  LYS102      0.1678
     18  C         60.9400   81.7530   59.3420 C.2   102  LYS102      0.2434
     19  O         62.1750   81.6470   59.4720 O.2   102  LYS102     -0.2733
     20  CB        59.9820   83.8540   60.2670 C.3   102  LYS102      0.0284
     21  CG        59.1020   84.5600   61.3130 C.3   102  LYS102      0.0035
     22  CD        57.6790   84.1820   61.1570 C.3   102  LYS102      0.0206
     23  CE        56.7790   85.0510   62.0770 C.3   102  LYS102      0.1093
     24  NZ        56.9940   84.8590   63.5180 N.3   102  LYS102     -0.1314
     25  N         60.2990   81.3380   58.2430 N.am  103  PRO103     -0.2718
     26  CA        61.0790   80.6910   57.1820 C.3   103  PRO103      0.1535
     27  C         62.1030   81.6220   56.5150 C.2   103  PRO103      0.2599
     28  O         61.8060   82.7840   56.2040 O.2   103  PRO103     -0.2715
     29  CB        60.0100   80.2080   56.1770 C.3   103  PRO103      0.0310
     30  CG        58.7660   80.9720   56.5190 C.3   103  PRO103      0.0237
     31  CD        58.8440   81.3810   57.9550 C.3   103  PRO103      0.0939
     32  N         63.3250   81.1230   56.3040 N.am  104  PHE104     -0.1960
     33  CA        64.3410   81.9400   55.6760 C.3   104  PHE104      0.1771
     34  C         64.3910   81.7040   54.1570 C.2   104  PHE104      0.2619
     35  O         65.0780   82.4230   53.4480 O.2   104  PHE104     -0.2715
     36  CB        65.7220   81.6990   56.3160 C.3   104  PHE104      0.0574
     37  CG        66.2180   80.2690   56.2150 C.ar  104  PHE104     -0.0200
     38  CD1       66.8510   79.8000   55.0560 C.ar  104  PHE104     -0.0042
     39  CD2       66.0690   79.4000   57.2960 C.ar  104  PHE104     -0.0042
     40  CE1       67.3250   78.4760   54.9810 C.ar  104  PHE104     -0.0003
     41  CE2       66.5570   78.0680   57.2370 C.ar  104  PHE104     -0.0003
     42  CZ        67.1760   77.6070   56.0880 C.ar  104  PHE104     -0.0000
     43  N         63.6750   80.6860   53.6700 N.am  105  MET105     -0.1963
     44  CA        63.6880   80.3460   52.2480 C.3   105  MET105      0.1736
     45  C         62.3930   79.6350   51.9510 C.2   105  MET105      0.2617
     46  O         61.9410   78.7970   52.7480 O.2   105  MET105     -0.2715
     47  CB        64.8730   79.4160   51.8900 C.3   105  MET105      0.0427
     48  CG        65.0140   79.1070   50.3510 C.3   105  MET105      0.0599
     49  SD        66.5380   78.1890   49.9930 S.3   105  MET105     -0.1393
     50  CE        67.7920   79.3640   50.4100 C.3   105  MET105      0.0692
     51  N         61.7730   79.9860   50.8250 N.am  106  SER106     -0.1950
     52  CA        60.5340   79.3250   50.4270 C.3   106  SER106      0.1924
     53  C         60.8560   78.1690   49.4820 C.2   106  SER106      0.2314
     54  O         61.8750   78.1820   48.7670 O.2   106  SER106     -0.2863
     55  CB        59.6130   80.3390   49.7270 C.3   106  SER106      0.2116
     56  OG        60.2810   80.8370   48.5820 O.3   106  SER106     -0.2180
     57  N         53.4940   74.6070   49.1510 N.3   215  SER215     -0.1202
     58  CA        54.1640   75.8910   49.4080 C.3   215  SER215      0.2020
     59  C         54.5310   75.9440   50.8700 C.2   215  SER215      0.2619
     60  O         53.6650   75.9870   51.7380 O.2   215  SER215     -0.2717
     61  CB        53.2280   77.0570   49.0810 C.3   215  SER215      0.2103
     62  OG        53.8630   78.3090   49.3310 O.3   215  SER215     -0.2182
     63  N         55.8190   75.9450   51.1580 N.am  216  LYS216     -0.1965
     64  CA        56.2380   75.9660   52.5530 C.3   216  LYS216      0.1728
     65  C         57.6150   76.6160   52.6410 C.2   216  LYS216      0.2616
     66  O         57.9720   77.4010   51.7710 O.2   216  LYS216     -0.2715
     67  CB        56.2070   74.5550   53.1210 C.3   216  LYS216      0.0311
     68  CG        57.0540   73.5700   52.3070 C.3   216  LYS216      0.0038
     69  CD        56.5050   72.1910   52.4810 C.3   216  LYS216      0.0206
     70  CE        57.3620   71.1710   51.6800 C.3   216  LYS216      0.1093
     71  NZ        56.6890   69.8520   51.7880 N.3   216  LYS216     -0.1314
     72  N         58.3750   76.2830   53.6800 N.am  217  GLY217     -0.1955
     73  CA        59.6120   77.0120   53.9550 C.3   217  GLY217      0.1869
     74  C         60.5350   76.2410   54.8650 C.2   217  GLY217      0.2309
     75  O         60.1010   75.2930   55.5390 O.2   217  GLY217     -0.2863
     76  N         66.6840   86.2960   61.6410 N.3   236  VAL236     -0.1231
     77  CA        66.1380   85.9200   60.3110 C.3   236  VAL236      0.1692
     78  C         65.3620   87.0870   59.6780 C.2   236  VAL236      0.2591
     79  O         65.5080   87.3750   58.4750 O.2   236  VAL236     -0.2718
     80  CB        65.2340   84.6600   60.4130 C.3   236  VAL236      0.0266
     81  CG1       64.4890   84.4190   59.1050 C.3   236  VAL236      0.0020
     82  CG2       66.0960   83.4290   60.7390 C.3   236  VAL236      0.0020
     83  N         64.5420   87.7610   60.4760 N.am  237  LEU237     -0.1980
     84  CA        63.7390   88.8950   59.9530 C.3   237  LEU237      0.1596
     85  C         64.6450   90.0140   59.4450 C.2   237  LEU237      0.2287
     86  O         64.4290   90.5450   58.3630 O.2   237  LEU237     -0.2864
     87  CB        62.7950   89.4440   61.0180 C.3   237  LEU237      0.0297
     88  CG        61.6530   88.5390   61.4740 C.3   237  LEU237      0.0022
     89  CD1       60.8170   89.2760   62.4950 C.3   237  LEU237      0.0001
     90  CD2       60.8020   88.1120   60.2970 C.3   237  LEU237      0.0001
     91  N         66.4150   88.9550   56.2330 N.3   240  ASN240     -0.1225
     92  CA        65.4850   89.0380   55.1060 C.3   240  ASN240      0.1785
     93  C         65.3290   90.4950   54.6320 C.2   240  ASN240      0.2597
     94  O         65.4920   90.7960   53.4490 O.2   240  ASN240     -0.2718
     95  CB        64.1410   88.4230   55.4900 C.3   240  ASN240      0.1169
     96  CG        63.1950   88.2970   54.3070 C.2   240  ASN240      0.2627
     97  OD1       62.5620   89.2610   53.8950 O.2   240  ASN240     -0.2716
     98  ND2       63.1200   87.1170   53.7500 N.am  240  ASN240     -0.0877
     99  N         65.0440   91.3890   55.5670 N.am  241  GLU241     -0.1979
    100  CA        64.7980   92.7870   55.2380 C.3   241  GLU241      0.1602
    101  C         66.0110   93.4920   54.6420 C.2   241  GLU241      0.2287
    102  O         65.8620   94.4550   53.8840 O.2   241  GLU241     -0.2864
    103  CB        64.2490   93.5280   56.4580 C.3   241  GLU241      0.0415
    104  CG        62.8220   93.0370   56.8040 C.3   241  GLU241      0.1163
    105  CD        62.1710   93.8150   57.9210 C.2   241  GLU241      0.3649
    106  OE1       62.7940   94.7410   58.5060 O.co2 241  GLU241     -0.2457
    107  OE2       61.0130   93.4930   58.2150 O.co2 241  GLU241     -0.2457
@<TRIPOS>BOND
     1    56    55    1
     2    54    53    2
     3    61    62    1
     4    61    58    1
     5    57    58    1
     6    58    59    1
     7    53    52    1
     8    55    52    1
     9    49    48    1
    10    49    50    1
    11    48    47    1
    12    52    51    1
    13    51    45   am
    14    59    63   am
    15    59    60    2
    16    63    64    1
    17    70    71    1
    18    70    69    1
    19    66    65    2
    20    47    44    1
    21    45    44    1
    22    45    46    2
    23    44    43    1
    24    68    69    1
    25    68    67    1
    26    64    65    1
    27    64    67    1
    28    65    72   am
    29    35    34    2
    30    94    93    2
    31    43    34   am
    32    72    73    1
    33    98    96   am
    34   102   101    2
    35    97    96    2
    36    73    74    1
    37    34    33    1
    38    96    95    1
    39    93    92    1
    40    93    99   am
    41   101   100    1
    42    74    75    2
    43    40    38   ar
    44    40    42   ar
    45    38    37   ar
    46    92    95    1
    47    92    91    1
    48   100    99    1
    49   100   103    1
    50    33    32    1
    51    33    36    1
    52    42    41   ar
    53    29    30    1
    54    29    26    1
    55    28    27    2
    56    37    36    1
    57    37    39   ar
    58    32    27   am
    59   103   104    1
    60    27    26    1
    61    30    31    1
    62   104   105    1
    63    26    25    1
    64    41    39   ar
    65     4     3    2
    66     1     2    1
    67   105   107   ar
    68   105   106   ar
    69    31    25    1
    70    15    13    1
    71    25    18   am
    72    86    85    2
    73    79    78    2
    74     3     2    1
    75     3     9   am
    76     8     6    1
    77     5     2    1
    78     5     6    1
    79     5     7    1
    80    81    80    1
    81    13    10    1
    82    13    14    1
    83    18    19    2
    84    18    17    1
    85    85    84    1
    86    10     9    1
    87    10    11    1
    88    78    77    1
    89    78    83   am
    90    84    83    1
    91    84    87    1
    92    20    17    1
    93    20    21    1
    94    90    88    1
    95    77    80    1
    96    77    76    1
    97    80    82    1
    98    17    16    1
    99    11    12    2
   100    87    88    1
   101    22    21    1
   102    22    23    1
   103    88    89    1
   104    23    24    1
