@<TRIPOS>MOLECULE
tmp/3rnoA00.pdb
 202 197 0 0 0
SMALL
GASTEIGER

@<TRIPOS>ATOM
      1  N         14.4080   27.7970   21.4050 N.3    14  ASP14      -0.1239
      2  CA        14.9370   28.1650   22.6930 C.3    14  ASP14       0.1674
      3  C         16.2780   28.8860   22.5660 C.2    14  ASP14       0.2266
      4  O         16.5830   29.7890   23.3490 O.2    14  ASP14      -0.2867
      5  CB        15.0480   26.9480   23.6000 C.3    14  ASP14       0.1410
      6  CG        14.4220   27.2090   24.9690 C.2    14  ASP14       0.3668
      7  OD1       13.2050   27.5840   24.9770 O.co2  14  ASP14      -0.2456
      8  OD2       15.1410   27.0860   26.0220 O.co2  14  ASP14      -0.2456
      9  N         17.5310   32.9840   23.6910 N.3    18  PHE18      -0.1241
     10  CA        18.6630   33.3740   24.5070 C.3    18  PHE18       0.1605
     11  C         19.7670   34.1090   23.7750 C.2    18  PHE18       0.2264
     12  O         20.5510   34.7820   24.4220 O.2    18  PHE18      -0.2867
     13  CB        19.3150   32.1750   25.1480 C.3    18  PHE18       0.0534
     14  CG        18.4170   31.4150   25.9990 C.ar   18  PHE18      -0.0203
     15  CD1       17.7240   32.0430   27.0120 C.ar   18  PHE18      -0.0042
     16  CD2       18.2680   30.0590   25.8150 C.ar   18  PHE18      -0.0042
     17  CE1       16.8480   31.3380   27.8320 C.ar   18  PHE18      -0.0003
     18  CE2       17.4150   29.3210   26.6410 C.ar   18  PHE18      -0.0003
     19  CZ        16.6960   29.9710   27.6470 C.ar   18  PHE18      -0.0000
     20  N         13.2300   33.7430   31.6970 N.3    28  LEU28      -0.1245
     21  CA        12.2270   32.8330   31.1620 C.3    28  LEU28       0.1561
     22  C         11.8720   31.7490   32.1490 C.2    28  LEU28       0.2260
     23  O         10.7530   31.2880   32.1980 O.2    28  LEU28      -0.2867
     24  CB        12.6530   32.2330   29.8200 C.3    28  LEU28       0.0270
     25  CG        13.0200   33.2760   28.7380 C.3    28  LEU28       0.0019
     26  CD1       13.6440   32.5420   27.5750 C.3    28  LEU28       0.0001
     27  CD2       11.8100   34.1710   28.2860 C.3    28  LEU28       0.0001
     28  N          8.1550   30.7830   33.1050 N.3    31  ALA31      -0.1245
     29  CA         7.6870   29.4100   32.8590 C.3    31  ALA31       0.1562
     30  C          7.1690   28.8100   34.1340 C.2    31  ALA31       0.2260
     31  O          6.0600   28.2550   34.1650 O.2    31  ALA31      -0.2867
     32  CB         8.7930   28.5410   32.2810 C.3    31  ALA31       0.0290
     33  N         17.5560   17.2690   36.8770 N.3    60  PRO60      -0.2102
     34  CA        18.9050   17.8390   37.0080 C.3    60  PRO60       0.1504
     35  C         19.2790   18.9690   36.0460 C.2    60  PRO60       0.2576
     36  O         20.4470   19.3250   35.9920 O.2    60  PRO60      -0.2718
     37  CB        19.8140   16.6340   36.7570 C.3    60  PRO60       0.0282
     38  CG        19.0280   15.8410   35.7380 C.3    60  PRO60       0.0208
     39  CD        17.5530   16.0610   36.0570 C.3    60  PRO60       0.0893
     40  N         18.2890   19.5670   35.3790 N.am   61  GLY61      -0.1943
     41  CA        18.5110   20.6360   34.4300 C.3    61  GLY61       0.2014
     42  C         17.4590   21.7050   34.5750 C.2    61  GLY61       0.2639
     43  O         17.0050   21.9930   35.6720 O.2    61  GLY61      -0.2714
     44  N         17.0650   22.2890   33.4470 N.am   62  ASN62      -0.1958
     45  CA        16.2150   23.4660   33.4510 C.3    62  ASN62       0.1819
     46  C         14.7760   23.1250   33.7700 C.2    62  ASN62       0.2621
     47  O         14.0510   23.9500   34.3180 O.2    62  ASN62      -0.2715
     48  CB        16.2900   24.2050   32.1010 C.3    62  ASN62       0.1195
     49  CG        17.5970   24.9540   31.9020 C.2    62  ASN62       0.2630
     50  OD1       18.3070   25.3220   32.8350 O.2    62  ASN62      -0.2716
     51  ND2       17.8900   25.2140   30.6860 N.am   62  ASN62      -0.0877
     52  N         14.3430   21.9320   33.4040 N.am   63  ASN63      -0.1972
     53  CA        12.9760   21.5090   33.7350 C.3    63  ASN63       0.1688
     54  C         12.8740   21.5210   35.2460 C.2    63  ASN63       0.2292
     55  O         11.9310   22.0340   35.8210 O.2    63  ASN63      -0.2864
     56  CB        12.6980   20.1250   33.1850 C.3    63  ASN63       0.1181
     57  CG        11.2100   19.8220   33.0370 C.2    63  ASN63       0.2629
     58  OD1       10.6810   18.9040   33.6980 O.2    63  ASN63      -0.2716
     59  ND2       10.5500   20.5070   32.1030 N.am   63  ASN63      -0.0877
     60  N         12.4420   24.9230   36.4340 N.3    66  ASP66      -0.1239
     61  CA        11.0730   25.3720   36.3050 C.3    66  ASP66       0.1674
     62  C         10.2890   24.8880   37.4870 C.2    66  ASP66       0.2266
     63  O          9.4010   25.5880   37.9870 O.2    66  ASP66      -0.2867
     64  CB        10.4540   24.8390   35.0160 C.3    66  ASP66       0.1410
     65  CG        11.0470   25.4990   33.7500 C.2    66  ASP66       0.3668
     66  OD1       11.5650   26.6220   33.8090 O.co2  66  ASP66      -0.2456
     67  OD2       11.0170   24.8780   32.6880 O.co2  66  ASP66      -0.2456
     68  N         19.3670   15.6590   42.3820 N.3    87  LYS87      -0.1245
     69  CA        20.6250   15.9180   41.6640 C.3    87  LYS87       0.1561
     70  C         20.6380   17.3470   41.2790 C.2    87  LYS87       0.2260
     71  O         19.9230   17.7760   40.3560 O.2    87  LYS87      -0.2867
     72  CB        20.8060   15.0120   40.4390 C.3    87  LYS87       0.0271
     73  CG        21.6920   13.7340   40.7730 C.3    87  LYS87       0.0035
     74  CD        22.1750   12.8320   39.5310 C.3    87  LYS87       0.0206
     75  CE        23.4940   13.2480   38.8120 C.3    87  LYS87       0.1093
     76  NZ        23.3060   14.3080   37.7440 N.3    87  LYS87      -0.1314
     77  N         11.0460   16.6800   36.0010 N.3   126  ILE126     -0.1231
     78  CA        12.2810   15.8860   35.9700 C.3   126  ILE126      0.1692
     79  C         13.0820   16.0980   34.7080 C.2   126  ILE126      0.2592
     80  O         14.2030   16.6270   34.7650 O.2   126  ILE126     -0.2718
     81  CB        11.9760   14.3860   36.1380 C.3   126  ILE126      0.0266
     82  CG1       11.3330   14.1420   37.4930 C.3   126  ILE126      0.0019
     83  CG2       13.2550   13.5190   36.0340 C.3   126  ILE126      0.0020
     84  CD1       10.7700   12.7750   37.6060 C.3   126  ILE126      0.0001
     85  N         12.5270   15.6620   33.5870 N.am  127  PHE127     -0.1962
     86  CA        13.1310   15.8850   32.2610 C.3   127  PHE127      0.1771
     87  C         12.2370   16.6640   31.3060 C.2   127  PHE127      0.2620
     88  O         11.0010   16.5110   31.2960 O.2   127  PHE127     -0.2715
     89  CB        13.4230   14.5730   31.5240 C.3   127  PHE127      0.0574
     90  CG        14.2460   13.6120   32.2930 C.ar  127  PHE127     -0.0200
     91  CD1       15.4910   13.9560   32.7410 C.ar  127  PHE127     -0.0042
     92  CD2       13.7830   12.3430   32.5470 C.ar  127  PHE127     -0.0042
     93  CE1       16.2630   13.0520   33.4560 C.ar  127  PHE127     -0.0003
     94  CE2       14.5460   11.4340   33.2600 C.ar  127  PHE127     -0.0003
     95  CZ        15.7840   11.7850   33.7130 C.ar  127  PHE127     -0.0000
     96  N         12.8900   17.4180   30.4290 N.am  128  GLY128     -0.1940
     97  CA        12.2020   18.1750   29.4160 C.3   128  GLY128      0.2014
     98  C         12.6780   17.8100   28.0250 C.2   128  GLY128      0.2639
     99  O         13.1430   16.6980   27.7820 O.2   128  GLY128     -0.2714
    100  N         12.5620   18.7600   27.1070 N.am  129  PHE129     -0.1959
    101  CA        12.7230   18.4240   25.7160 C.3   129  PHE129      0.1771
    102  C         14.1250   17.9880   25.3170 C.2   129  PHE129      0.2620
    103  O         14.2660   17.3990   24.2640 O.2   129  PHE129     -0.2715
    104  CB        12.2000   19.5290   24.7750 C.3   129  PHE129      0.0574
    105  CG        13.0130   20.8330   24.7760 C.ar  129  PHE129     -0.0200
    106  CD1       12.4530   22.0180   25.2890 C.ar  129  PHE129     -0.0042
    107  CD2       14.2900   20.8990   24.1820 C.ar  129  PHE129     -0.0042
    108  CE1       13.1640   23.2400   25.2590 C.ar  129  PHE129     -0.0003
    109  CE2       15.0210   22.1120   24.1400 C.ar  129  PHE129     -0.0003
    110  CZ        14.4540   23.2840   24.6840 C.ar  129  PHE129     -0.0000
    111  N         15.1590   18.2740   26.1080 N.am  130  SER130     -0.1936
    112  CA        16.5190   17.8520   25.7050 C.3   130  SER130      0.2055
    113  C         16.9260   16.4470   26.2230 C.2   130  SER130      0.2643
    114  O         18.0490   16.0060   25.9950 O.2   130  SER130     -0.2714
    115  CB        17.5650   18.9060   26.0820 C.3   130  SER130      0.2130
    116  OG        17.9700   18.7210   27.4230 O.3   130  SER130     -0.2179
    117  N         16.0080   15.7590   26.8930 N.am  131  PHE131     -0.1959
    118  CA        16.1760   14.3390   27.2350 C.3   131  PHE131      0.1771
    119  C         16.3810   13.3870   26.0040 C.2   131  PHE131      0.2619
    120  O         15.7800   13.5490   24.9350 O.2   131  PHE131     -0.2715
    121  CB        14.9950   13.8700   28.1390 C.3   131  PHE131      0.0574
    122  CG        14.8240   12.3540   28.2260 C.ar  131  PHE131     -0.0200
    123  CD1       15.2640   11.6510   29.3480 C.ar  131  PHE131     -0.0042
    124  CD2       14.2180   11.6280   27.1660 C.ar  131  PHE131     -0.0042
    125  CE1       15.1110   10.2390   29.4200 C.ar  131  PHE131     -0.0003
    126  CE2       14.0630   10.2220   27.2230 C.ar  131  PHE131     -0.0003
    127  CZ        14.5060    9.5260   28.3490 C.ar  131  PHE131     -0.0000
    128  N         17.2460   12.3940   26.2210 N.am  132  LYS132     -0.1963
    129  CA        17.6340   11.3650   25.2540 C.3   132  LYS132      0.1728
    130  C         18.1310   10.1420   26.0440 C.2   132  LYS132      0.2617
    131  O         18.5080   10.2690   27.2110 O.2   132  LYS132     -0.2715
    132  CB        18.7910   11.8410   24.3630 C.3   132  LYS132      0.0311
    133  CG        18.5170   13.0350   23.4410 C.3   132  LYS132      0.0038
    134  CD        19.5790   13.0700   22.3050 C.3   132  LYS132      0.0206
    135  CE        19.6740   14.4230   21.5640 C.3   132  LYS132      0.1093
    136  NZ        20.7010   14.3780   20.4370 N.3   132  LYS132     -0.1314
    137  N         18.1560    8.9720   25.4000 N.am  133  GLY133     -0.1940
    138  CA        18.7640    7.7390   25.9740 C.3   133  GLY133      0.2014
    139  C         18.0780    7.1570   27.2150 C.2   133  GLY133      0.2639
    140  O         17.0240    7.6680   27.6410 O.2   133  GLY133     -0.2714
    141  N         18.6730    6.0950   27.7940 N.am  134  ASP134     -0.1957
    142  CA        18.1230    5.4420   29.0130 C.3   134  ASP134      0.1840
    143  C         18.0930    6.4290   30.1850 C.2   134  ASP134      0.2622
    144  O         18.9820    7.2950   30.3340 O.2   134  ASP134     -0.2715
    145  CB        18.9210    4.1940   29.4750 C.3   134  ASP134      0.1450
    146  CG        18.9950    3.0840   28.4120 C.2   134  ASP134      0.3671
    147  OD1       19.4880    3.3560   27.2880 O.co2 134  ASP134     -0.2456
    148  OD2       18.6120    1.9250   28.7190 O.co2 134  ASP134     -0.2456
    149  N         17.0590    6.2910   31.0040 N.am  135  VAL135     -0.1963
    150  CA        16.9620    7.0250   32.2430 C.3   135  VAL135      0.1727
    151  C         17.8510    6.2810   33.2220 C.2   135  VAL135      0.2616
    152  O         17.7720    5.0390   33.3280 O.2   135  VAL135     -0.2715
    153  CB        15.5380    7.0180   32.7580 C.3   135  VAL135      0.0290
    154  CG1       15.4670    7.6180   34.1500 C.3   135  VAL135      0.0023
    155  CG2       14.6540    7.7160   31.7750 C.3   135  VAL135      0.0023
    156  N         18.6940    7.0410   33.9190 N.am  136  ARG136     -0.1963
    157  CA        19.6310    6.4970   34.8940 C.3   136  ARG136      0.1729
    158  C         19.1840    6.8650   36.2910 C.2   136  ARG136      0.2616
    159  O         18.2650    7.6790   36.4540 O.2   136  ARG136     -0.2715
    160  CB        21.0250    7.0470   34.6210 C.3   136  ARG136      0.0348
    161  CG        21.5850    6.6230   33.2660 C.3   136  ARG136      0.0492
    162  CD        22.9950    7.1440   33.0350 C.3   136  ARG136      0.2205
    163  NE        23.0470    8.6190   33.0450 N.pl3 136  ARG136     -0.0865
    164  CZ        22.6710    9.4340   32.0390 C.cat 136  ARG136      0.5346
    165  NH1       22.1740    8.9470   30.8950 N.pl3 136  ARG136      0.1354
    166  NH2       22.7850   10.7600   32.1760 N.pl3 136  ARG136      0.1354
    167  N         19.8200    6.2810   37.3030 N.am  137  GLU137     -0.1977
    168  CA        19.3800    6.5420   38.6800 C.3   137  GLU137      0.1602
    169  C         19.7230    7.9600   39.1450 C.2   137  GLU137      0.2287
    170  O         20.5730    8.6260   38.5490 O.2   137  GLU137     -0.2864
    171  CB        19.9160    5.5040   39.6650 C.3   137  GLU137      0.0415
    172  CG        19.2370    4.0900   39.5650 C.3   137  GLU137      0.1163
    173  CD        17.6830    4.0280   39.7500 C.2   137  GLU137      0.3649
    174  OE1       17.0350    4.9910   40.1580 O.co2 137  GLU137     -0.2457
    175  OE2       17.0990    2.9520   39.4770 O.co2 137  GLU137     -0.2457
    176  N         16.4990    8.3560   38.7650 N.3   139  PHE139     -0.1241
    177  CA        15.2410    8.7180   38.0770 C.3   139  PHE139      0.1605
    178  C         14.5210    7.5400   37.5350 C.2   139  PHE139      0.2264
    179  O         13.3060    7.5630   37.4400 O.2   139  PHE139     -0.2867
    180  CB        15.4560    9.7650   36.9650 C.3   139  PHE139      0.0534
    181  CG        16.0490   10.9960   37.4810 C.ar  139  PHE139     -0.0203
    182  CD1       15.3140   11.7970   38.3640 C.ar  139  PHE139     -0.0042
    183  CD2       17.3850   11.3160   37.2070 C.ar  139  PHE139     -0.0042
    184  CE1       15.8840   12.9270   38.9560 C.ar  139  PHE139     -0.0003
    185  CE2       17.9730   12.4530   37.7640 C.ar  139  PHE139     -0.0003
    186  CZ        17.2020   13.2590   38.6560 C.ar  139  PHE139     -0.0000
    187  N          6.1620   20.6120   30.3970 N.3   157  ASP157     -0.1239
    188  CA         6.6320   20.6490   29.0030 C.3   157  ASP157      0.1674
    189  C          6.5450   19.3140   28.2680 C.2   157  ASP157      0.2266
    190  O          6.0150   19.2740   27.1640 O.2   157  ASP157     -0.2867
    191  CB         8.0390   21.2150   28.9240 C.3   157  ASP157      0.1410
    192  CG         8.3650   21.8200   27.5490 C.2   157  ASP157      0.3668
    193  OD1        7.4260   22.2430   26.7920 O.co2 157  ASP157     -0.2456
    194  OD2        9.5940   21.8840   27.2730 O.co2 157  ASP157     -0.2456
    195  N          5.2910   24.4060   27.3950 N.3   180  LEU180     -0.1245
    196  CA         5.9030   25.7340   27.4870 C.3   180  LEU180      0.1561
    197  C          6.3110   26.2200   26.1060 C.2   180  LEU180      0.2260
    198  O          6.9690   25.4940   25.3590 O.2   180  LEU180     -0.2867
    199  CB         7.1250   25.7240   28.3930 C.3   180  LEU180      0.0270
    200  CG         6.8740   25.3390   29.8590 C.3   180  LEU180      0.0019
    201  CD1        8.1800   25.1320   30.6240 C.3   180  LEU180      0.0001
    202  CD2        5.9440   26.3060   30.6020 C.3   180  LEU180      0.0001
@<TRIPOS>BOND
     1   136   135    1
     2     1     2    1
     3   135   134    1
     4   134   133    1
     5     3     2    1
     6     3     4    2
     7     2     5    1
     8   133   132    1
     9     5     6    1
    10     9    10    1
    11    11    12    2
    12    11    10    1
    13   109   107   ar
    14   109   110   ar
    15   107   105   ar
    16   103   102    2
    17   132   129    1
    18    10    13    1
    19   110   108   ar
    20   104   105    1
    21   104   101    1
    22   105   106   ar
    23   120   119    2
    24     6     7   ar
    25     6     8   ar
    26    13    14    1
    27   129   130    1
    28   129   128    1
    29   108   106   ar
    30   102   101    1
    31   102   111   am
    32   198   197    2
    33   137   138    1
    34   137   130   am
    35   112   115    1
    36   112   111    1
    37   112   113    1
    38   101   100    1
    39    16    14   ar
    40    16    18   ar
    41   138   139    1
    42   114   113    2
    43    14    15   ar
    44   119   128   am
    45   119   118    1
    46   130   131    2
    47   115   116    1
    48   197   196    1
    49   113   117   am
    50    18    19   ar
    51   193   192   ar
    52   117   118    1
    53    15    17   ar
    54   100    98   am
    55   190   189    2
    56   124   126   ar
    57   124   122   ar
    58   139   140    2
    59   139   141   am
    60   126   127   ar
    61   118   121    1
    62   194   192   ar
    63   147   146   ar
    64   195   196    1
    65   196   199    1
    66   192   191    1
    67    26    25    1
    68    19    17   ar
    69    99    98    2
    70   141   142    1
    71    98    97    1
    72   121   122    1
    73   122   123   ar
    74   189   188    1
    75    27    25    1
    76   127   125   ar
    77   199   200    1
    78   146   148   ar
    79   146   145    1
    80    25    24    1
    81   191   188    1
    82   188   187    1
    83   142   145    1
    84   142   143    1
    85   123   125   ar
    86    97    96    1
    87    24    21    1
    88   200   202    1
    89   200   201    1
    90   143   144    2
    91   143   149   am
    92    96    87   am
    93    51    49   am
    94   165   164    1
    95   149   150    1
    96    21    20    1
    97    21    22    1
    98    88    87    2
    99    87    86    1
   100    89    86    1
   101    89    90    1
   102   155   153    1
   103    49    48    1
   104    49    50    2
   105   164   166    1
   106   164   163    2
   107    48    45    1
   108    59    57   am
   109    22    23    2
   110   150   153    1
   111   150   151    1
   112    86    85    1
   113    32    29    1
   114    90    92   ar
   115    90    91   ar
   116    92    94   ar
   117    67    65   ar
   118    91    93   ar
   119   153   154    1
   120    29    28    1
   121    29    30    1
   122   162   163    1
   123   162   161    1
   124    57    56    1
   125    57    58    2
   126    56    53    1
   127   151   152    2
   128   151   156   am
   129    94    95   ar
   130   161   160    1
   131    52    53    1
   132    52    46   am
   133    44    45    1
   134    44    42   am
   135    45    46    1
   136    93    95   ar
   137    85    79   am
   138    53    54    1
   139    65    66   ar
   140    65    64    1
   141    46    47    2
   142   156   157    1
   143    30    31    2
   144    41    42    1
   145    41    40    1
   146    42    43    2
   147   160   157    1
   148    79    80    2
   149    79    78    1
   150   157   158    1
   151    64    61    1
   152    54    55    2
   153    40    35   am
   154    38    39    1
   155    38    37    1
   156    78    77    1
   157    78    81    1
   158    36    35    2
   159    83    81    1
   160    35    34    1
   161    39    33    1
   162    81    82    1
   163   158   159    2
   164   158   167   am
   165    61    60    1
   166    61    62    1
   167    37    34    1
   168    33    34    1
   169   180   181    1
   170   180   177    1
   171   183   181   ar
   172   183   185   ar
   173   167   168    1
   174   179   178    2
   175   181   182   ar
   176    62    63    2
   177    82    84    1
   178   178   177    1
   179    76    75    1
   180   185   186   ar
   181   177   176    1
   182   182   184   ar
   183   170   169    2
   184   186   184   ar
   185   168   169    1
   186   168   171    1
   187    75    74    1
   188   175   173   ar
   189    74    73    1
   190   172   171    1
   191   172   173    1
   192   173   174   ar
   193    71    70    2
   194    72    73    1
   195    72    69    1
   196    70    69    1
   197    69    68    1
