@<TRIPOS>MOLECULE
tmp/3ro0B00.pdb
 128 122 0 0 0
SMALL
GASTEIGER

@<TRIPOS>ATOM
      1  N         45.4410   27.4720   30.0540 N.3    10  PHE10      -0.1241
      2  CA        45.2330   28.6620   29.1980 C.3    10  PHE10       0.1605
      3  C         44.0120   29.4960   29.5310 C.2    10  PHE10       0.2264
      4  O         43.0870   28.9610   30.1800 O.2    10  PHE10      -0.2867
      5  CB        45.1470   28.1550   27.7630 C.3    10  PHE10       0.0534
      6  CG        46.4920   27.8890   27.1620 C.ar   10  PHE10      -0.0203
      7  CD1       47.2740   28.9700   26.7100 C.ar   10  PHE10      -0.0042
      8  CD2       46.9740   26.5710   26.9950 C.ar   10  PHE10      -0.0042
      9  CE1       48.5180   28.7370   26.0940 C.ar   10  PHE10      -0.0003
     10  CE2       48.1860   26.3340   26.3780 C.ar   10  PHE10      -0.0003
     11  CZ        48.9790   27.3880   25.9200 C.ar   10  PHE10      -0.0000
     12  N         39.5700   30.8580   25.0420 N.3    13  PHE13      -0.1241
     13  CA        39.7220   30.8550   23.5560 C.3    13  PHE13       0.1605
     14  C         38.5220   30.3020   22.7080 C.2    13  PHE13       0.2264
     15  O         37.4240   30.1180   23.2050 O.2    13  PHE13      -0.2867
     16  CB        40.9340   30.0250   23.1450 C.3    13  PHE13       0.0534
     17  CG        41.2540   30.0790   21.6650 C.ar   13  PHE13      -0.0203
     18  CD1       41.9450   31.1560   21.1360 C.ar   13  PHE13      -0.0042
     19  CD2       40.8150   29.0720   20.7840 C.ar   13  PHE13      -0.0042
     20  CE1       42.1910   31.2420   19.7670 C.ar   13  PHE13      -0.0003
     21  CE2       41.0590   29.1610   19.3970 C.ar   13  PHE13      -0.0003
     22  CZ        41.7510   30.2560   18.8980 C.ar   13  PHE13      -0.0000
     23  N         38.0840   27.4120   29.5230 N.3    19  ASN19      -0.1240
     24  CA        39.1980   26.6020   28.9830 C.3    19  ASN19       0.1653
     25  C         39.4480   25.6220   30.0740 C.2    19  ASN19       0.2266
     26  O         39.8880   25.9500   31.1810 O.2    19  ASN19      -0.2867
     27  CB        40.5370   27.2600   28.6660 C.3    19  ASN19       0.1155
     28  CG        41.4400   26.3110   27.7720 C.2    19  ASN19       0.2627
     29  OD1       41.8230   26.6670   26.6910 O.2    19  ASN19      -0.2716
     30  ND2       41.7110   25.1260   28.2320 N.am   19  ASN19      -0.0877
     31  N         46.1440   32.6870   25.6850 N.3    45  THR45      -0.1218
     32  CA        46.1980   31.9420   24.4030 C.3    45  THR45       0.1862
     33  C         46.5960   32.9400   23.3370 C.2    45  THR45       0.2287
     34  O         45.7960   33.3100   22.4750 O.2    45  THR45      -0.2866
     35  CB        44.8560   31.3040   24.0770 C.3    45  THR45       0.1770
     36  OG1       44.4160   30.5180   25.2160 O.3    45  THR45      -0.2211
     37  CG2       44.9940   30.3760   22.8660 C.3    45  THR45       0.0375
     38  N         44.2860   21.9840   25.9060 N.3    71  GLN71      -0.1231
     39  CA        43.2440   21.0870   25.4260 C.3    71  GLN71       0.1698
     40  C         43.4110   20.6570   23.9870 C.2    71  GLN71       0.2592
     41  O         43.6520   21.4810   23.1130 O.2    71  GLN71      -0.2718
     42  CB        41.9650   21.8440   25.6070 C.3    71  GLN71       0.0381
     43  CG        40.7770   21.1930   24.9490 C.3    71  GLN71       0.0905
     44  CD        39.7070   22.2570   24.7370 C.2    71  GLN71       0.2608
     45  OE1       38.9730   22.4930   25.6430 O.2    71  GLN71      -0.2717
     46  NE2       39.6800   22.9550   23.5260 N.am   71  GLN71      -0.0878
     47  N         43.3270   19.3610   23.7040 N.am   72  ALA72      -0.1966
     48  CA        43.4060   18.8430   22.3540 C.3    72  ALA72       0.1728
     49  C         42.0100   18.2200   22.0800 C.2    72  ALA72       0.2616
     50  O         41.8180   17.0090   22.2130 O.2    72  ALA72      -0.2715
     51  CB        44.5220   17.7750   22.2620 C.3    72  ALA72       0.0334
     52  N         41.0630   19.0550   21.6750 N.am   73  GLY73      -0.1955
     53  CA        39.7060   18.5440   21.4190 C.3    73  GLY73       0.1869
     54  C         39.7190   17.4280   20.4010 C.2    73  GLY73       0.2309
     55  O         40.3700   17.5080   19.3510 O.2    73  GLY73      -0.2863
     56  N         40.7560   14.2480   21.1400 N.3    75  ARG75      -0.1245
     57  CA        41.4890   13.1500   21.7750 C.3    75  ARG75       0.1563
     58  C         40.6130   12.4760   22.8250 C.2    75  ARG75       0.2260
     59  O         39.6830   13.0510   23.3530 O.2    75  ARG75      -0.2867
     60  CB        42.8450   13.6490   22.3770 C.3    75  ARG75       0.0307
     61  CG        43.7310   14.1460   21.2430 C.3    75  ARG75       0.0489
     62  CD        45.1980   14.3520   21.7100 C.3    75  ARG75       0.2205
     63  NE        45.9890   15.0040   20.6480 N.pl3  75  ARG75      -0.0865
     64  CZ        47.2500   15.3520   20.8030 C.cat  75  ARG75       0.5346
     65  NH1       47.8700   15.1150   21.9490 N.pl3  75  ARG75       0.1354
     66  NH2       47.8940   15.9830   19.7990 N.pl3  75  ARG75       0.1354
     67  N         46.2390   27.9430   11.9090 N.3    91  ARG91      -0.1231
     68  CA        45.1730   27.8150   10.9290 C.3    91  ARG91       0.1694
     69  C         44.0180   28.7650   11.2960 C.2    91  ARG91       0.2591
     70  O         43.1100   28.9680   10.5240 O.2    91  ARG91      -0.2718
     71  CB        44.6960   26.3610   10.8420 C.3    91  ARG91       0.0321
     72  CG        45.7340   25.3770   10.2210 C.3    91  ARG91       0.0489
     73  CD        45.1410   23.9600   10.0660 C.3    91  ARG91       0.2205
     74  NE        44.5400   23.5190   11.3310 N.pl3  91  ARG91      -0.0865
     75  CZ        44.0610   22.2970   11.5820 C.cat  91  ARG91       0.5346
     76  NH1       44.1020   21.3470   10.6510 N.pl3  91  ARG91       0.1354
     77  NH2       43.5380   22.0260   12.7810 N.pl3  91  ARG91       0.1354
     78  N         44.0750   29.3470   12.4870 N.am   92  ILE92      -0.1980
     79  CA        43.0760   30.3120   12.9400 C.3    92  ILE92       0.1595
     80  C         43.8990   31.2730   13.7890 C.2    92  ILE92       0.2287
     81  O         44.9700   30.9040   14.2810 O.2    92  ILE92      -0.2864
     82  CB        41.9430   29.6430   13.8280 C.3    92  ILE92       0.0276
     83  CG1       42.5570   28.9980   15.0760 C.3    92  ILE92       0.0022
     84  CG2       41.1730   28.6030   12.9960 C.3    92  ILE92       0.0022
     85  CD1       41.5630   28.2710   16.0080 C.3    92  ILE92       0.0001
     86  N         52.2610   17.8320   19.3470 N.3   139  ALA139     -0.1231
     87  CA        51.4950   18.7430   20.2000 C.3   139  ALA139      0.1694
     88  C         50.8730   19.8110   19.2790 C.2   139  ALA139      0.2592
     89  O         50.3650   20.8440   19.7700 O.2   139  ALA139     -0.2718
     90  CB        52.4820   19.4450   21.1840 C.3   139  ALA139      0.0304
     91  N         50.8400   19.5430   17.9850 N.am  140  GLY140     -0.1957
     92  CA        50.2660   20.5280   17.0560 C.3   140  GLY140      0.1869
     93  C         51.2420   21.6310   16.7450 C.2   140  GLY140      0.2309
     94  O         52.4530   21.5450   16.9730 O.2   140  GLY140     -0.2863
     95  N         49.9740   25.0870   17.1740 N.3   142  PHE142     -0.1227
     96  CA        49.2790   26.2840   17.6110 C.3   142  PHE142      0.1736
     97  C         49.9100   26.7640   18.9220 C.2   142  PHE142      0.2595
     98  O         51.1010   26.5310   19.1570 O.2   142  PHE142     -0.2718
     99  CB        47.7590   25.9980   17.6520 C.3   142  PHE142      0.0547
    100  CG        46.8910   27.2350   17.8280 C.ar  142  PHE142     -0.0202
    101  CD1       46.9410   28.2330   16.8930 C.ar  142  PHE142     -0.0042
    102  CD2       46.0040   27.3460   18.8870 C.ar  142  PHE142     -0.0042
    103  CE1       46.0860   29.3830   16.9810 C.ar  142  PHE142     -0.0003
    104  CE2       45.1380   28.5120   18.9780 C.ar  142  PHE142     -0.0003
    105  CZ        45.2160   29.5050   17.9960 C.ar  142  PHE142     -0.0000
    106  N         49.1560   27.4740   19.7430 N.am  143  VAL143     -0.1966
    107  CA        49.7720   28.0400   20.9220 C.3   143  VAL143      0.1727
    108  C         50.2390   26.9890   21.9540 C.2   143  VAL143      0.2616
    109  O         51.2020   27.2310   22.6950 O.2   143  VAL143     -0.2715
    110  CB        48.8200   29.0470   21.5780 C.3   143  VAL143      0.0290
    111  CG1       49.5560   29.7720   22.7290 C.3   143  VAL143      0.0023
    112  CG2       48.4230   30.0980   20.5140 C.3   143  VAL143      0.0023
    113  N         49.5720   25.8240   21.9700 N.am  144  CYS144     -0.1968
    114  CA        50.0170   24.7800   22.9070 C.3   144  CYS144      0.1712
    115  C         51.4430   24.3110   22.5880 C.2   144  CYS144      0.2296
    116  O         52.3030   24.2640   23.4570 O.2   144  CYS144     -0.2864
    117  CB        49.1460   23.5860   22.8420 C.3   144  CYS144      0.0983
    118  SG        47.3890   23.9380   23.4180 S.3   144  CYS144     -0.0798
    119  N         48.4680   17.3760   27.1000 N.3   168  HIS168     -0.1241
    120  CA        47.1640   17.7350   26.5210 C.3   168  HIS168      0.1621
    121  C         46.0690   16.8970   27.1530 C.2   168  HIS168      0.2264
    122  O         46.2970   15.7490   27.5480 O.2   168  HIS168     -0.2867
    123  CB        47.0920   17.4560   25.0250 C.3   168  HIS168      0.0745
    124  CG        47.6990   18.5220   24.1810 C.ar  168  HIS168      0.0817
    125  ND1       48.8350   18.5990   23.3970 N.ar  168  HIS168     -0.2268
    126  CD2       47.0410   19.6850   24.0040 C.ar  168  HIS168      0.1154
    127  CE1       48.8770   19.7780   22.7920 C.ar  168  HIS168      0.1986
    128  NE2       47.8060   20.4550   23.1490 N.ar  168  HIS168     -0.2212
@<TRIPOS>BOND
     1    73    72    1
     2    73    74    1
     3    72    71    1
     4    70    69    2
     5    76    75    1
     6    71    68    1
     7    68    69    1
     8    68    67    1
     9    69    78   am
    10    74    75    2
    11    75    77    1
    12    78    79    1
    13    79    80    1
    14    79    82    1
    15    84    82    1
    16    80    81    2
    17    82    83    1
    18    83    85    1
    19    93    94    2
    20    93    92    1
    21   101   103   ar
    22   101   100   ar
    23   103   105   ar
    24    92    91    1
    25    95    96    1
    26    96    99    1
    27    96    97    1
    28    99   100    1
    29   100   102   ar
    30    91    88   am
    31   105   104   ar
    32   102   104   ar
    33    22    21   ar
    34    22    20   ar
    35    97    98    2
    36    97   106   am
    37    88    89    2
    38    88    87    1
    39    86    87    1
    40    55    54    2
    41    21    19   ar
    42   106   107    1
    43    20    18   ar
    44    66    64    1
    45    87    90    1
    46    54    53    1
    47   112   110    1
    48    63    64    2
    49    63    62    1
    50    19    17   ar
    51    64    65    1
    52   107   110    1
    53   107   108    1
    54    18    17   ar
    55    56    57    1
    56    61    62    1
    57    61    60    1
    58    53    52    1
    59   110   111    1
    60    17    16    1
    61    52    49   am
    62    57    60    1
    63    57    58    1
    64   108   113   am
    65   108   109    2
    66   113   114    1
    67    49    50    2
    68    49    48    1
    69    51    48    1
    70    48    47    1
    71    34    33    2
    72   115   114    1
    73   115   116    2
    74    14    15    2
    75    14    13    1
    76   127   128   ar
    77   127   125   ar
    78    58    59    2
    79   117   114    1
    80   117   118    1
    81    37    35    1
    82    41    40    2
    83    16    13    1
    84   128   126   ar
    85    33    32    1
    86   125   124   ar
    87    46    44   am
    88    13    12    1
    89    47    40   am
    90    40    39    1
    91   126   124   ar
    92    35    32    1
    93    35    36    1
    94   124   123    1
    95    32    31    1
    96    44    43    1
    97    44    45    2
    98    43    42    1
    99   123   120    1
   100    39    42    1
   101    39    38    1
   102    11     9   ar
   103    11    10   ar
   104     9     7   ar
   105    10     8   ar
   106   120   119    1
   107   120   121    1
   108    29    28    2
   109     7     6   ar
   110     8     6   ar
   111   121   122    2
   112     6     5    1
   113     5     2    1
   114    28    30   am
   115    28    27    1
   116    27    24    1
   117    24    23    1
   118    24    25    1
   119     2     3    1
   120     2     1    1
   121     3     4    2
   122    25    26    2
