@<TRIPOS>MOLECULE
tmp/3ro3A00.pdb
 140 137 0 0 0
SMALL
GASTEIGER

@<TRIPOS>ATOM
      1  N         27.5100   19.0590   21.2310 N.3    17  TYR17      -0.1227
      2  CA        26.8670   20.3340   20.9450 C.3    17  TYR17       0.1736
      3  C         25.9600   20.7550   22.0840 C.2    17  TYR17       0.2595
      4  O         26.0140   21.8830   22.5350 O.2    17  TYR17      -0.2718
      5  CB        26.1010   20.2020   19.6430 C.3    17  TYR17       0.0548
      6  CG        25.3620   21.4350   19.2230 C.ar   17  TYR17      -0.0200
      7  CD1       25.9830   22.3910   18.4350 C.ar   17  TYR17      -0.0009
      8  CD2       24.0510   21.6490   19.5840 C.ar   17  TYR17      -0.0009
      9  CE1       25.3220   23.5280   18.0290 C.ar   17  TYR17       0.0417
     10  CE2       23.3530   22.8070   19.1830 C.ar   17  TYR17       0.0417
     11  CZ        24.0300   23.7210   18.4060 C.ar   17  TYR17       0.1957
     12  OH        23.3750   24.8720   17.9580 O.3    17  TYR17      -0.2866
     13  N         25.1050   19.8390   22.5290 N.am   18  LEU18      -0.1980
     14  CA        24.1580   20.2170   23.5650 C.3    18  LEU18       0.1596
     15  C         24.8130   20.4690   24.8920 C.2    18  LEU18       0.2287
     16  O         24.2430   21.1820   25.7170 O.2    18  LEU18      -0.2864
     17  CB        23.0790   19.1410   23.6530 C.3    18  LEU18       0.0297
     18  CG        22.1430   19.0690   22.4840 C.3    18  LEU18       0.0022
     19  CD1       21.2150   17.8990   22.5900 C.3    18  LEU18       0.0001
     20  CD2       21.2920   20.3490   22.3220 C.3    18  LEU18       0.0001
     21  N         31.5080   22.9440   21.5060 N.3    22  PHE22      -0.1241
     22  CA        31.2860   23.1800   20.0700 C.3    22  PHE22       0.1605
     23  C         32.4760   22.7090   19.2360 C.2    22  PHE22       0.2264
     24  O         32.2350   22.1840   18.1330 O.2    22  PHE22      -0.2867
     25  CB        30.9310   24.6560   19.8180 C.3    22  PHE22       0.0534
     26  CG        29.6800   25.0670   20.5930 C.ar   22  PHE22      -0.0203
     27  CD1       28.4600   24.5390   20.2230 C.ar   22  PHE22      -0.0042
     28  CD2       29.7620   25.9420   21.6580 C.ar   22  PHE22      -0.0042
     29  CE1       27.2920   24.8780   20.9090 C.ar   22  PHE22      -0.0003
     30  CE2       28.5960   26.2880   22.3260 C.ar   22  PHE22      -0.0003
     31  CZ        27.3780   25.7570   21.9620 C.ar   22  PHE22      -0.0000
     32  N         25.5290   25.1090   12.7810 N.3    54  ASN54      -0.1240
     33  CA        25.1370   25.5300   14.1110 C.3    54  ASN54       0.1653
     34  C         26.3120   25.6140   15.0510 C.2    54  ASN54       0.2266
     35  O         26.4520   26.6020   15.8090 O.2    54  ASN54      -0.2867
     36  CB        24.0910   24.5590   14.6990 C.3    54  ASN54       0.1155
     37  CG        22.8040   24.4890   13.9440 C.2    54  ASN54       0.2627
     38  OD1       22.4640   25.3300   13.0950 O.2    54  ASN54      -0.2716
     39  ND2       22.0170   23.4550   14.2670 N.am   54  ASN54      -0.0877
     40  N         28.3430   28.7440   14.3990 N.3    57  ILE57      -0.1231
     41  CA        27.7610   29.9550   14.9640 C.3    57  ILE57       0.1692
     42  C         28.2460   30.1860   16.3910 C.2    57  ILE57       0.2592
     43  O         28.6530   31.2780   16.7540 O.2    57  ILE57      -0.2718
     44  CB        26.2230   29.8960   14.9130 C.3    57  ILE57       0.0266
     45  CG1       25.6810   29.9350   13.4790 C.3    57  ILE57       0.0019
     46  CG2       25.6100   31.0030   15.7940 C.3    57  ILE57       0.0020
     47  CD1       25.9540   31.2430   12.7430 C.3    57  ILE57       0.0001
     48  N         28.2300   29.1220   17.2080 N.am   58  PHE58      -0.1976
     49  CA        28.6070   29.2570   18.6210 C.3    58  PHE58       0.1639
     50  C         30.1060   29.3320   18.8080 C.2    58  PHE58       0.2290
     51  O         30.5520   29.8160   19.8440 O.2    58  PHE58      -0.2864
     52  CB        27.9420   28.1740   19.4620 C.3    58  PHE58       0.0560
     53  CG        26.4440   28.4550   19.5430 C.ar   58  PHE58      -0.0200
     54  CD1       25.9840   29.5590   20.2580 C.ar   58  PHE58      -0.0042
     55  CD2       25.5300   27.6850   18.9030 C.ar   58  PHE58      -0.0042
     56  CE1       24.6310   29.8570   20.2830 C.ar   58  PHE58      -0.0003
     57  CE2       24.1710   27.9700   18.9180 C.ar   58  PHE58      -0.0003
     58  CZ        23.7500   29.0820   19.5990 C.ar   58  PHE58      -0.0000
     59  N         31.1920   32.9370   11.6550 N.3    62  PHE62      -0.1241
     60  CA        29.9340   33.1360   10.9380 C.3    62  PHE62       0.1605
     61  C         30.0960   32.8660    9.4490 C.2    62  PHE62       0.2264
     62  O         29.1940   32.3230    8.8280 O.2    62  PHE62      -0.2867
     63  CB        29.3700   34.5370   11.1860 C.3    62  PHE62       0.0534
     64  CG        29.2520   34.9060   12.6530 C.ar   62  PHE62      -0.0203
     65  CD1       28.7490   34.0310   13.5840 C.ar   62  PHE62      -0.0042
     66  CD2       29.6620   36.1560   13.1060 C.ar   62  PHE62      -0.0042
     67  CE1       28.6220   34.3740   14.9100 C.ar   62  PHE62      -0.0003
     68  CE2       29.5420   36.5110   14.4200 C.ar   62  PHE62      -0.0003
     69  CZ        29.0410   35.6250   15.3260 C.ar   62  PHE62      -0.0000
     70  N         25.6530   26.1820    5.9240 N.3    69  TYR69      -0.1241
     71  CA        24.2120   26.3350    5.6820 C.3    69  TYR69       0.1605
     72  C         23.9150   26.3880    4.1810 C.2    69  TYR69       0.2264
     73  O         22.8660   25.8900    3.7840 O.2    69  TYR69      -0.2867
     74  CB        23.7090   27.5720    6.3820 C.3    69  TYR69       0.0534
     75  CG        23.6670   27.5130    7.9040 C.ar   69  TYR69      -0.0201
     76  CD1       23.2790   26.3870    8.6040 C.ar   69  TYR69      -0.0009
     77  CD2       24.0110   28.6640    8.6400 C.ar   69  TYR69      -0.0009
     78  CE1       23.2460   26.3880    9.9970 C.ar   69  TYR69       0.0417
     79  CE2       23.9480   28.6690   10.0160 C.ar   69  TYR69       0.0417
     80  CZ        23.5520   27.5240   10.6840 C.ar   69  TYR69       0.1957
     81  OH        23.5000   27.6050   12.0680 O.3    69  TYR69      -0.2866
     82  N         16.3440   30.5030    6.9430 N.3    90  TYR90      -0.1227
     83  CA        16.2440   31.3370    8.1530 C.3    90  TYR90       0.1736
     84  C         17.5980   31.4180    8.8300 C.2    90  TYR90       0.2596
     85  O         18.0440   32.5000    9.2560 O.2    90  TYR90      -0.2718
     86  CB        15.1560   30.8360    9.0980 C.3    90  TYR90       0.0548
     87  CG        14.7610   31.8900   10.0980 C.ar   90  TYR90      -0.0200
     88  CD1       14.1390   33.0490    9.6710 C.ar   90  TYR90      -0.0009
     89  CD2       14.9960   31.7600   11.4540 C.ar   90  TYR90      -0.0009
     90  CE1       13.7610   34.0250   10.5620 C.ar   90  TYR90       0.0417
     91  CE2       14.6420   32.7610   12.3670 C.ar   90  TYR90       0.0417
     92  CZ        14.0190   33.8900   11.9060 C.ar   90  TYR90       0.1957
     93  OH        13.6830   34.8930   12.8120 O.3    90  TYR90      -0.2866
     94  N         18.3140   30.2960    8.9250 N.am   91  SER91      -0.1952
     95  CA        19.6460   30.3220    9.5540 C.3    91  SER91       0.1924
     96  C         20.6010   31.1990    8.7230 C.2    91  SER91       0.2314
     97  O         21.3790   31.9590    9.3110 O.2    91  SER91      -0.2863
     98  CB        20.1840   28.9010    9.6860 C.3    91  SER91       0.2116
     99  OG        19.4330   28.2600   10.7030 O.3    91  SER91      -0.2180
    100  N         19.8600   34.9510    9.4300 N.3    94  ASN94      -0.1240
    101  CA        20.4490   35.3530   10.6970 C.3    94  ASN94       0.1653
    102  C         21.9690   35.4230   10.6230 C.2    94  ASN94       0.2266
    103  O         22.5800   36.3500   11.1890 O.2    94  ASN94      -0.2867
    104  CB        20.0080   34.4090   11.8260 C.3    94  ASN94       0.1155
    105  CG        18.6040   34.6370   12.2870 C.2    94  ASN94       0.2627
    106  OD1       18.4200   35.4930   13.2050 O.2    94  ASN94      -0.2716
    107  ND2       17.6210   33.9610   11.7170 N.am   94  ASN94      -0.0877
    108  N         24.5200   38.6040   11.3800 N.3    98  LEU98      -0.1245
    109  CA        25.7190   38.5790   12.2320 C.3    98  LEU98       0.1561
    110  C         26.9270   39.0620   11.4880 C.2    98  LEU98       0.2260
    111  O         27.8220   39.6590   12.1250 O.2    98  LEU98      -0.2867
    112  CB        25.9370   37.1620   12.7720 C.3    98  LEU98       0.0270
    113  CG        24.9150   36.7460   13.8610 C.3    98  LEU98       0.0019
    114  CD1       24.9380   35.2400   14.0330 C.3    98  LEU98       0.0001
    115  CD2       25.2100   37.4490   15.1520 C.3    98  LEU98       0.0001
    116  N          8.2690   35.0010   12.7900 N.3   127  ARG127     -0.1245
    117  CA         9.7040   35.1940   12.9040 C.3   127  ARG127      0.1563
    118  C         10.2880   35.8990   11.6770 C.2   127  ARG127      0.2260
    119  O         11.1190   36.7900   11.7540 O.2   127  ARG127     -0.2867
    120  CB        10.4080   33.8380   13.0880 C.3   127  ARG127      0.0307
    121  CG        10.1650   33.2150   14.4550 C.3   127  ARG127      0.0489
    122  CD        10.5240   34.0700   15.6800 C.3   127  ARG127      0.2205
    123  NE        10.5820   33.1240   16.8120 N.pl3 127  ARG127     -0.0865
    124  CZ        11.6180   32.3920   17.1790 C.cat 127  ARG127      0.5346
    125  NH1       12.8270   32.4440   16.5780 N.pl3 127  ARG127      0.1354
    126  NH2       11.5140   31.5510   18.2070 N.pl3 127  ARG127      0.1354
    127  N          9.4310   39.5950   11.7830 N.3   130  TRP130     -0.1241
    128  CA        10.2920   40.2180   12.7850 C.3   130  TRP130      0.1605
    129  C         11.6470   40.5160   12.2200 C.2   130  TRP130      0.2264
    130  O         12.1590   41.6290   12.2330 O.2   130  TRP130     -0.2867
    131  CB        10.3270   39.3390   14.0430 C.3   130  TRP130      0.0550
    132  CG        11.0140   39.8830   15.2310 C.ar  130  TRP130      0.0003
    133  CD1       11.3830   41.1550   15.5470 C.ar  130  TRP130      0.0946
    134  CD2       11.4320   39.0900   16.3760 C.ar  130  TRP130      0.0152
    135  NE1       11.9690   41.1750   16.7750 N.ar  130  TRP130     -0.2442
    136  CE2       12.0200   39.9150   17.3120 C.ar  130  TRP130      0.0810
    137  CE3       11.3290   37.7290   16.6480 C.ar  130  TRP130      0.0012
    138  CZ2       12.5350   39.4610   18.5510 C.ar  130  TRP130      0.0191
    139  CZ3       11.8380   37.2580   17.8810 C.ar  130  TRP130      0.0001
    140  CH2       12.4240   38.1000   18.8050 C.ar  130  TRP130      0.0015
@<TRIPOS>BOND
     1    73    72    2
     2    72    71    1
     3    71    70    1
     4    71    74    1
     5    74    75    1
     6    82    83    1
     7    75    76   ar
     8    75    77   ar
     9    83    84    1
    10    83    86    1
    11    76    78   ar
    12    77    79   ar
    13    96    97    2
    14    96    95    1
    15    62    61    2
    16    84    94   am
    17    84    85    2
    18    94    95    1
    19    86    87    1
    20   100   101    1
    21    61    60    1
    22    95    98    1
    23    88    87   ar
    24    88    90   ar
    25    98    99    1
    26    78    80   ar
    27    79    80   ar
    28    87    89   ar
    29    90    92   ar
    30   102   101    1
    31   102   103    2
    32    80    81    1
    33   101   104    1
    34    60    63    1
    35    60    59    1
    36    63    64    1
    37   108   109    1
    38    89    91   ar
    39   110   111    2
    40   110   109    1
    41   118   119    2
    42   118   117    1
    43   107   105   am
    44   127   128    1
    45   104   105    1
    46    92    91   ar
    47    92    93    1
    48   129   130    2
    49   129   128    1
    50   109   112    1
    51   105   106    2
    52    64    66   ar
    53    64    65   ar
    54    47    45    1
    55   112   113    1
    56    32    33    1
    57   128   131    1
    58   116   117    1
    59   117   120    1
    60   120   121    1
    61    38    37    2
    62    66    68   ar
    63    45    44    1
    64    65    67   ar
    65   113   114    1
    66   113   115    1
    67    37    39   am
    68    37    36    1
    69   131   132    1
    70    33    36    1
    71    33    34    1
    72    40    41    1
    73    68    69   ar
    74   121   122    1
    75    67    69   ar
    76    44    41    1
    77    44    46    1
    78    41    42    1
    79    34    35    2
    80   132   133   ar
    81   132   134   ar
    82   133   135   ar
    83   122   123    1
    84   134   137   ar
    85   134   136   ar
    86    42    43    2
    87    42    48   am
    88   125   124    1
    89   137   139   ar
    90   135   136   ar
    91   123   124    2
    92   124   126    1
    93    48    49    1
    94   136   138   ar
    95   139   140   ar
    96    12    11    1
    97     9    11   ar
    98     9     7   ar
    99    24    23    2
   100    11    10   ar
   101     7     6   ar
   102   138   140   ar
   103    49    50    1
   104    49    52    1
   105    50    51    2
   106    55    57   ar
   107    55    53   ar
   108    57    58   ar
   109    10     8   ar
   110     6     8   ar
   111     6     5    1
   112    23    22    1
   113    52    53    1
   114    53    54   ar
   115    58    56   ar
   116     5     2    1
   117    25    22    1
   118    25    26    1
   119    22    21    1
   120    27    26   ar
   121    27    29   ar
   122    54    56   ar
   123    26    28   ar
   124    29    31   ar
   125     2     1    1
   126     2     3    1
   127    28    30   ar
   128    31    30   ar
   129     3    13   am
   130     3     4    2
   131    20    18    1
   132    18    19    1
   133    18    17    1
   134    13    14    1
   135    14    17    1
   136    14    15    1
   137    15    16    2
