@<TRIPOS>MOLECULE
tmp/3ro4A00.pdb
 140 131 0 0 0
SMALL
GASTEIGER

@<TRIPOS>ATOM
      1  N         -8.7280   -3.4450   30.8960 N.3   103  ASN103     -0.1240
      2  CA        -8.6740   -3.5750   29.4420 C.3   103  ASN103      0.1653
      3  C         -8.0210   -2.3640   28.7920 C.2   103  ASN103      0.2266
      4  O         -8.1500   -2.1460   27.5750 O.2   103  ASN103     -0.2867
      5  CB       -10.0640   -3.7920   28.8560 C.3   103  ASN103      0.1155
      6  CG       -11.0980   -2.9140   29.4950 C.2   103  ASN103      0.2627
      7  OD1      -11.2950   -1.7600   29.0990 O.2   103  ASN103     -0.2716
      8  ND2      -11.7710   -3.4490   30.5030 N.am  103  ASN103     -0.0877
      9  N         -8.8510    0.5230   28.5900 N.3   105  ASN105     -0.1225
     10  CA        -9.7360    1.5670   28.1070 C.3   105  ASN105      0.1785
     11  C         -9.3280    2.8890   28.7430 C.2   105  ASN105      0.2597
     12  O         -8.9270    2.9220   29.9080 O.2   105  ASN105     -0.2718
     13  CB       -11.1810    1.2580   28.4920 C.3   105  ASN105      0.1169
     14  CG       -11.8990    0.4200   27.4660 C.2   105  ASN105      0.2627
     15  OD1      -11.4240    0.2380   26.3400 O.2   105  ASN105     -0.2716
     16  ND2      -13.0680   -0.0850   27.8440 N.am  105  ASN105     -0.0877
     17  N         -9.4230    3.9850   28.0010 N.am  106  ARG106     -0.1979
     18  CA        -9.0560    5.2820   28.5820 C.3   106  ARG106      0.1597
     19  C        -10.0640    6.3590   28.2310 C.2   106  ARG106      0.2287
     20  O        -10.4590    6.5290   27.0690 O.2   106  ARG106     -0.2864
     21  CB        -7.6260    5.7160   28.2100 C.3   106  ARG106      0.0334
     22  CG        -7.5130    6.6570   27.0150 C.3   106  ARG106      0.0492
     23  CD        -7.7270    5.9300   25.7330 C.3   106  ARG106      0.2205
     24  NE        -7.7310    6.8130   24.5660 N.pl3 106  ARG106     -0.0865
     25  CZ        -8.8320    7.2070   23.9290 C.cat 106  ARG106      0.5346
     26  NH1      -10.0360    6.8290   24.3520 N.pl3 106  ARG106      0.1354
     27  NH2       -8.7340    7.9780   22.8630 N.pl3 106  ARG106      0.1354
     28  N         -6.0450    2.7420   10.5880 N.3   222  ALA222     -0.1245
     29  CA        -5.9660    1.7690   11.6780 C.3   222  ALA222      0.1562
     30  C         -7.3630    1.4310   12.2210 C.2   222  ALA222      0.2260
     31  O         -8.3080    2.2040   12.0490 O.2   222  ALA222     -0.2867
     32  CB        -5.0780    2.3110   12.7960 C.3   222  ALA222      0.0290
     33  N         -7.9040   -0.3640   15.5950 N.3   224  ALA224     -0.1231
     34  CA        -7.6320   -0.9700   16.9030 C.3   224  ALA224      0.1694
     35  C         -7.1740   -2.4330   16.8500 C.2   224  ALA224      0.2591
     36  O         -6.1170   -2.7500   16.2900 O.2   224  ALA224     -0.2718
     37  CB        -8.8410   -0.8230   17.8300 C.3   224  ALA224      0.0304
     38  N         -7.9690   -3.3210   17.4450 N.am  225  GLU225     -0.1979
     39  CA        -7.5390   -4.7020   17.6220 C.3   225  GLU225      0.1602
     40  C         -7.7710   -5.5190   16.3680 C.2   225  GLU225      0.2287
     41  O         -7.4540   -6.7030   16.3240 O.2   225  GLU225     -0.2864
     42  CB        -8.2150   -5.3560   18.8340 C.3   225  GLU225      0.0415
     43  CG        -9.7230   -5.4470   18.7330 C.3   225  GLU225      0.1163
     44  CD       -10.3920   -4.1050   18.9790 C.2   225  GLU225      0.3649
     45  OE1      -11.3660   -3.7760   18.2530 O.co2 225  GLU225     -0.2457
     46  OE2       -9.9370   -3.3840   19.9020 O.co2 225  GLU225     -0.2457
     47  N         -6.3100   -4.5370   13.6090 N.3   227  GLY227     -0.1210
     48  CA        -5.1530   -4.2590   12.7830 C.3   227  GLY227      0.1956
     49  C         -5.2690   -2.9310   12.0580 C.2   227  GLY227      0.2611
     50  O         -5.9670   -2.0140   12.5190 O.2   227  GLY227     -0.2717
     51  N         -4.5680   -2.8240   10.9340 N.am  228  ALA228     -0.1979
     52  CA        -4.5710   -1.6120   10.1290 C.3   228  ALA228      0.1597
     53  C         -4.4580   -1.9780    8.6720 C.2   228  ALA228      0.2287
     54  O         -3.9670   -3.0570    8.3250 O.2   228  ALA228     -0.2864
     55  CB        -3.4310   -0.7050   10.5270 C.3   228  ALA228      0.0319
     56  N         -3.0170   -7.0960   14.0290 N.3   242  ALA242     -0.1231
     57  CA        -2.5980   -6.4630   15.2560 C.3   242  ALA242      0.1694
     58  C         -1.5700   -7.3530   15.9250 C.2   242  ALA242      0.2592
     59  O         -1.4590   -8.5200   15.5710 O.2   242  ALA242     -0.2718
     60  CB        -3.8160   -6.2740   16.1830 C.3   242  ALA242      0.0304
     61  N         -0.8450   -6.7930   16.9000 N.am  243  PHE243     -0.1963
     62  CA         0.0400   -7.5410   17.7750 C.3   243  PHE243      0.1756
     63  C         -0.4280   -7.3260   19.2130 C.2   243  PHE243      0.2461
     64  O          0.2770   -6.6740   19.9880 O.2   243  PHE243     -0.2730
     65  CB         1.4980   -7.0270   17.7130 C.3   243  PHE243      0.0574
     66  CG         2.1910   -7.1870   16.3740 C.ar  243  PHE243     -0.0200
     67  CD1        3.3960   -7.8860   16.2860 C.ar  243  PHE243     -0.0042
     68  CD2        1.6810   -6.6010   15.2170 C.ar  243  PHE243     -0.0042
     69  CE1        4.0670   -8.0140   15.0600 C.ar  243  PHE243     -0.0003
     70  CE2        2.3470   -6.7250   13.9970 C.ar  243  PHE243     -0.0003
     71  CZ         3.5390   -7.4280   13.9160 C.ar  243  PHE243     -0.0000
     72  N         -1.6040   -7.8590   19.5870 N.am  244  PRO244     -0.2716
     73  CA        -2.0770   -7.6590   20.9660 C.3   244  PRO244      0.1521
     74  C         -1.1640   -8.2740   22.0050 C.2   244  PRO244      0.2440
     75  O         -0.7550   -9.4130   21.8660 O.2   244  PRO244     -0.2731
     76  CB        -3.4220   -8.4180   21.0010 C.3   244  PRO244      0.0310
     77  CG        -3.3070   -9.4040   19.9390 C.3   244  PRO244      0.0237
     78  CD        -2.5610   -8.6650   18.8230 C.3   244  PRO244      0.0939
     79  N         -0.8840   -7.5290   23.0720 N.am  245  PRO245     -0.2727
     80  CA        -0.2020   -8.1060   24.2270 C.3   245  PRO245      0.1402
     81  C         -1.2040   -8.9430   25.0470 C.2   245  PRO245      0.2269
     82  O         -2.4240   -8.6980   25.0220 O.2   245  PRO245     -0.2865
     83  CB         0.2340   -6.8650   25.0050 C.3   245  PRO245      0.0296
     84  CG        -0.8500   -5.8880   24.7460 C.3   245  PRO245      0.0237
     85  CD        -1.2840   -6.1310   23.3050 C.3   245  PRO245      0.0939
     86  N         -3.8920   -6.3440   28.0320 N.3   248  VAL248     -0.1245
     87  CA        -4.0010   -4.9310   27.6480 C.3   248  VAL248      0.1561
     88  C         -4.2650   -4.0420   28.8690 C.2   248  VAL248      0.2260
     89  O         -5.3250   -4.1500   29.4860 O.2   248  VAL248     -0.2867
     90  CB        -5.1370   -4.6980   26.6610 C.3   248  VAL248      0.0252
     91  CG1       -5.1250   -3.2460   26.1900 C.3   248  VAL248      0.0019
     92  CG2       -5.0200   -5.6620   25.4900 C.3   248  VAL248      0.0019
     93  N         -4.2860    1.8930   26.8440 N.3   251  THR251     -0.1218
     94  CA        -4.2660    2.2770   25.4320 C.3   251  THR251      0.1862
     95  C         -4.1750    3.7860   25.1480 C.2   251  THR251      0.2287
     96  O         -4.4580    4.2230   24.0270 O.2   251  THR251     -0.2866
     97  CB        -5.4860    1.6880   24.6470 C.3   251  THR251      0.1770
     98  OG1       -6.7090    2.2110   25.1740 O.3   251  THR251     -0.2211
     99  CG2       -5.5100    0.1860   24.7430 C.3   251  THR251      0.0375
    100  N         -2.1720    4.9920   21.9620 N.3   254  ALA254     -0.1231
    101  CA        -1.9180    3.8570   21.0890 C.3   254  ALA254      0.1694
    102  C         -1.8700    4.2940   19.6320 C.2   254  ALA254      0.2592
    103  O         -0.9990    3.8740   18.8840 O.2   254  ALA254     -0.2718
    104  CB        -2.9990    2.7990   21.2770 C.3   254  ALA254      0.0304
    105  N         -2.8180    5.1290   19.2280 N.am  255  GLY255     -0.1957
    106  CA        -2.8720    5.6080   17.8620 C.3   255  GLY255      0.1869
    107  C         -1.7600    6.5850   17.5280 C.2   255  GLY255      0.2309
    108  O         -1.3580    6.7230   16.3620 O.2   255  GLY255     -0.2863
    109  N          1.2190    4.2490   16.9580 N.3   258  PHE258     -0.1241
    110  CA         1.0560    3.7260   15.6170 C.3   258  PHE258      0.1605
    111  C          1.5150    4.7300   14.5420 C.2   258  PHE258      0.2264
    112  O          2.3250    4.3930   13.6800 O.2   258  PHE258     -0.2867
    113  CB        -0.3940    3.3180   15.3710 C.3   258  PHE258      0.0534
    114  CG        -0.6640    2.8950   13.9660 C.ar  258  PHE258     -0.0203
    115  CD1       -0.3400    1.6170   13.5390 C.ar  258  PHE258     -0.0042
    116  CD2       -1.2260    3.7690   13.0660 C.ar  258  PHE258     -0.0042
    117  CE1       -0.5810    1.2120   12.2380 C.ar  258  PHE258     -0.0003
    118  CE2       -1.4710    3.3670   11.7600 C.ar  258  PHE258     -0.0003
    119  CZ        -1.1360    2.0780   11.3510 C.ar  258  PHE258     -0.0000
    120  N          1.8130   -1.5590   13.6960 N.3   280  CYS280     -0.1235
    121  CA         1.0770   -2.4440   14.5930 C.3   280  CYS280      0.1677
    122  C          1.9570   -3.0330   15.6930 C.2   280  CYS280      0.2270
    123  O          1.5150   -3.1910   16.8360 O.2   280  CYS280     -0.2867
    124  CB         0.3580   -3.5410   13.8260 C.3   280  CYS280      0.0956
    125  SG        -0.9670   -2.9050   12.7590 S.3   280  CYS280     -0.0801
    126  N          2.6390   -0.2410   18.5850 N.3   283  ALA283     -0.1231
    127  CA         1.3740    0.0640   19.2700 C.3   283  ALA283      0.1694
    128  C          0.9380   -1.0730   20.1890 C.2   283  ALA283      0.2592
    129  O          0.5810   -0.8500   21.3560 O.2   283  ALA283     -0.2718
    130  CB         0.2890    0.3860   18.2750 C.3   283  ALA283      0.0304
    131  N          0.9940   -2.2950   19.6640 N.am  284  GLY284     -0.1957
    132  CA         0.7180   -3.4720   20.4650 C.3   284  GLY284      0.1869
    133  C          1.5490   -3.5470   21.7290 C.2   284  GLY284      0.2309
    134  O          1.0410   -3.8720   22.7980 O.2   284  GLY284     -0.2863
    135  N          0.5150   -0.8760   24.5040 N.3   287  CYS287     -0.1235
    136  CA        -0.7680   -1.1770   25.1530 C.3   287  CYS287      0.1677
    137  C         -0.6540   -2.1850   26.2840 C.2   287  CYS287      0.2270
    138  O         -1.6010   -2.3700   27.0450 O.2   287  CYS287     -0.2867
    139  CB        -1.7930   -1.6810   24.1370 C.3   287  CYS287      0.0956
    140  SG        -2.3730   -0.4090   23.0050 S.3   287  CYS287     -0.0801
@<TRIPOS>BOND
     1    54    53    2
     2    53    52    1
     3    52    55    1
     4    52    51    1
     5    28    29    1
     6    51    49   am
     7   119   118   ar
     8   119   117   ar
     9    29    30    1
    10    29    32    1
    11   118   116   ar
    12    31    30    2
    13    49    50    2
    14    49    48    1
    15   117   115   ar
    16   125   124    1
    17    48    47    1
    18   116   114   ar
    19   115   114   ar
    20   112   111    2
    21   120   121    1
    22   124   121    1
    23    71    70   ar
    24    71    69   ar
    25   114   113    1
    26    70    68   ar
    27    56    57    1
    28   111   110    1
    29   121   122    1
    30    69    67   ar
    31    68    66   ar
    32    57    58    1
    33    57    60    1
    34   113   110    1
    35    59    58    2
    36    33    34    1
    37   110   109    1
    38   122   123    2
    39    58    61   am
    40    67    66   ar
    41    36    35    2
    42    41    40    2
    43   108   107    2
    44    40    39    1
    45    66    65    1
    46    35    34    1
    47    35    38   am
    48    61    62    1
    49    34    37    1
    50    38    39    1
    51   107   106    1
    52    39    42    1
    53    65    62    1
    54    62    63    1
    55   106   105    1
    56    45    44   ar
    57   130   127    1
    58   126   127    1
    59    43    42    1
    60    43    44    1
    61    78    72    1
    62    78    77    1
    63   103   102    2
    64    44    46   ar
    65    63    72   am
    66    63    64    2
    67   105   102   am
    68   127   128    1
    69    72    73    1
    70   102   101    1
    71   131   128   am
    72   131   132    1
    73    77    76    1
    74   128   129    2
    75   132   133    1
    76    73    76    1
    77    73    74    1
    78   101   104    1
    79   101   100    1
    80   133   134    2
    81    75    74    2
    82    74    79   am
    83    27    25    1
    84   140   139    1
    85    79    85    1
    86    79    80    1
    87    85    84    1
    88    25    26    1
    89    25    24    2
    90    96    95    2
    91   139   136    1
    92    80    83    1
    93    80    81    1
    94   135   136    1
    95    24    23    1
    96    97    99    1
    97    97    98    1
    98    97    94    1
    99    84    83    1
   100    82    81    2
   101    95    94    1
   102   136   137    1
   103    94    93    1
   104    92    90    1
   105    23    22    1
   106    91    90    1
   107   137   138    2
   108    15    14    2
   109    90    87    1
   110    22    21    1
   111    20    19    2
   112    14    16   am
   113    14    13    1
   114     4     3    2
   115    87    86    1
   116    87    88    1
   117    17    18    1
   118    17    11   am
   119    10    13    1
   120    10     9    1
   121    10    11    1
   122    21    18    1
   123    19    18    1
   124    11    12    2
   125     3     2    1
   126     5     2    1
   127     5     6    1
   128    88    89    2
   129     7     6    2
   130     2     1    1
   131     6     8   am
