@<TRIPOS>MOLECULE
tmp/3ro5B00.pdb
 100 97 0 0 0
SMALL
GASTEIGER

@<TRIPOS>ATOM
      1  N         19.3560  -31.8130   28.1650 N.3    29  SER29      -0.1217
      2  CA        19.2930  -31.3030   26.8050 C.3    29  SER29       0.1889
      3  C         18.1160  -31.9470   26.0630 C.2    29  SER29       0.2288
      4  O         17.5850  -32.9760   26.4900 O.2    29  SER29      -0.2866
      5  CB        20.6190  -31.6050   26.1040 C.3    29  SER29       0.2089
      6  OG        20.4770  -31.6450   24.7010 O.3    29  SER29      -0.2183
      7  N         18.2760  -33.3630   23.1090 N.3    31  TYR31      -0.1227
      8  CA        18.8010  -34.6420   22.6160 C.3    31  TYR31       0.1736
      9  C         18.8070  -35.7020   23.7210 C.2    31  TYR31       0.2595
     10  O         18.4030  -36.8440   23.4950 O.2    31  TYR31      -0.2718
     11  CB        20.2180  -34.4830   22.0420 C.3    31  TYR31       0.0548
     12  CG        20.3110  -33.7190   20.7370 C.ar   31  TYR31      -0.0200
     13  CD1       19.5030  -34.0510   19.6440 C.ar   31  TYR31      -0.0009
     14  CD2       21.2310  -32.6840   20.5810 C.ar   31  TYR31      -0.0009
     15  CE1       19.5940  -33.3550   18.4380 C.ar   31  TYR31       0.0417
     16  CE2       21.3290  -31.9800   19.3780 C.ar   31  TYR31       0.0417
     17  CZ        20.5070  -32.3230   18.3120 C.ar   31  TYR31       0.1957
     18  OH        20.6030  -31.6320   17.1220 O.3    31  TYR31      -0.2866
     19  N         19.2660  -35.3080   24.9100 N.am   32  GLU32      -0.1979
     20  CA        19.3220  -36.1960   26.0730 C.3    32  GLU32       0.1602
     21  C         17.9230  -36.5140   26.5800 C.2    32  GLU32       0.2287
     22  O         17.6720  -37.6090   27.0900 O.2    32  GLU32      -0.2864
     23  CB        20.1590  -35.5660   27.1900 C.3    32  GLU32       0.0415
     24  CG        21.6580  -35.5310   26.9000 C.3    32  GLU32       0.1163
     25  CD        22.3990  -34.4720   27.7000 C.2    32  GLU32       0.3649
     26  OE1       21.7480  -33.7070   28.4480 O.co2  32  GLU32      -0.2457
     27  OE2       23.6410  -34.4000   27.5760 O.co2  32  GLU32      -0.2457
     28  N         16.6180  -39.3220   24.5270 N.3    35  LEU35      -0.1245
     29  CA        17.2670  -40.6170   24.7180 C.3    35  LEU35       0.1561
     30  C         16.3050  -41.5180   25.4810 C.2    35  LEU35       0.2260
     31  O         15.8700  -41.1800   26.5840 O.2    35  LEU35      -0.2867
     32  CB        18.5900  -40.4590   25.4760 C.3    35  LEU35       0.0270
     33  CG        19.4820  -41.6890   25.6910 C.3    35  LEU35       0.0019
     34  CD1       20.1880  -42.1180   24.4080 C.3    35  LEU35       0.0001
     35  CD2       20.4990  -41.4110   26.7750 C.3    35  LEU35       0.0001
     36  N         25.7970  -36.3720   28.2140 N.3    74  ARG74      -0.1245
     37  CA        27.0300  -36.3890   27.4430 C.3    74  ARG74       0.1563
     38  C         27.9910  -35.3280   27.9730 C.2    74  ARG74       0.2260
     39  O         27.8070  -34.1350   27.7410 O.2    74  ARG74      -0.2867
     40  CB        26.7610  -36.2250   25.9430 C.3    74  ARG74       0.0307
     41  CG        27.9420  -36.6320   25.0780 C.3    74  ARG74       0.0489
     42  CD        27.5280  -37.0500   23.6800 C.3    74  ARG74       0.2205
     43  NE        28.6890  -37.1200   22.7910 N.pl3  74  ARG74      -0.0865
     44  CZ        29.4530  -38.1970   22.6180 C.cat  74  ARG74       0.5346
     45  NH1       29.1930  -39.3240   23.2690 N.pl3  74  ARG74       0.1354
     46  NH2       30.4860  -38.1490   21.7890 N.pl3  74  ARG74       0.1354
     47  N         29.4720  -40.5060   27.2830 N.3    79  TRP79      -0.1241
     48  CA        28.2200  -40.7270   27.9970 C.3    79  TRP79       0.1605
     49  C         28.4800  -41.1020   29.4550 C.2    79  TRP79       0.2264
     50  O         29.1400  -42.1050   29.7430 O.2    79  TRP79      -0.2867
     51  CB        27.3850  -41.8070   27.3070 C.3    79  TRP79       0.0550
     52  CG        26.6710  -41.3080   26.0930 C.ar   79  TRP79       0.0003
     53  CD1       27.0300  -41.5050   24.7910 C.ar   79  TRP79       0.0946
     54  CD2       25.4790  -40.5140   26.0650 C.ar   79  TRP79       0.0152
     55  NE1       26.1360  -40.8880   23.9540 N.ar   79  TRP79      -0.2442
     56  CE2       25.1700  -40.2740   24.7070 C.ar   79  TRP79       0.0810
     57  CE3       24.6400  -39.9830   27.0550 C.ar   79  TRP79       0.0012
     58  CZ2       24.0560  -39.5220   24.3110 C.ar   79  TRP79       0.0191
     59  CZ3       23.5310  -39.2350   26.6590 C.ar   79  TRP79       0.0001
     60  CH2       23.2510  -39.0150   25.2970 C.ar   79  TRP79       0.0015
     61  N         16.3490  -41.4980   20.4480 N.3   273  TYR273     -0.1241
     62  CA        17.7020  -42.0390   20.4920 C.3   273  TYR273      0.1605
     63  C         17.8080  -43.2080   21.4580 C.2   273  TYR273      0.2264
     64  O         16.9510  -43.3960   22.3210 O.2   273  TYR273     -0.2867
     65  CB        18.6930  -40.9480   20.8950 C.3   273  TYR273      0.0534
     66  CG        18.8850  -39.8800   19.8480 C.ar  273  TYR273     -0.0201
     67  CD1       19.9300  -39.9610   18.9350 C.ar  273  TYR273     -0.0009
     68  CD2       18.0210  -38.7880   19.7700 C.ar  273  TYR273     -0.0009
     69  CE1       20.1150  -38.9850   17.9720 C.ar  273  TYR273      0.0417
     70  CE2       18.1950  -37.8070   18.8100 C.ar  273  TYR273      0.0417
     71  CZ        19.2440  -37.9110   17.9130 C.ar  273  TYR273      0.1957
     72  OH        19.4240  -36.9410   16.9580 O.3   273  TYR273     -0.2866
     73  N         27.8610  -45.8310   22.8890 N.3   335  GLU335     -0.1231
     74  CA        27.5990  -44.8430   21.8500 C.3   335  GLU335      0.1699
     75  C         26.0940  -44.6010   21.7490 C.2   335  GLU335      0.2593
     76  O         25.3030  -45.4740   22.1020 O.2   335  GLU335     -0.2718
     77  CB        28.1570  -45.3260   20.5090 C.3   335  GLU335      0.0402
     78  CG        29.6530  -45.5140   20.5020 C.3   335  GLU335      0.1161
     79  CD        30.4540  -44.2610   20.6570 C.2   335  GLU335      0.3649
     80  OE1       29.9180  -43.1350   20.4830 O.co2 335  GLU335     -0.2457
     81  OE2       31.6680  -44.4230   20.8510 O.co2 335  GLU335     -0.2457
     82  N         25.7000  -43.4180   21.2860 N.am  336  SER336     -0.1938
     83  CA        24.2850  -43.1250   21.0560 C.3   336  SER336      0.2055
     84  C         23.9400  -43.1160   19.5730 C.2   336  SER336      0.2644
     85  O         24.6780  -42.5700   18.7500 O.2   336  SER336     -0.2714
     86  CB        23.8730  -41.8030   21.7000 C.3   336  SER336      0.2130
     87  OG        24.6670  -40.7300   21.2300 O.3   336  SER336     -0.2179
     88  N         22.8040  -43.7220   19.2470 N.am  337  SER337     -0.1935
     89  CA        22.3540  -43.8350   17.8650 C.3   337  SER337      0.2055
     90  C         20.8630  -43.5470   17.7320 C.2   337  SER337      0.2643
     91  O         20.0880  -43.7620   18.6710 O.2   337  SER337     -0.2714
     92  CB        22.6680  -45.2300   17.3150 C.3   337  SER337      0.2130
     93  OG        22.2500  -45.3530   15.9660 O.3   337  SER337     -0.2179
     94  N         20.4770  -43.0590   16.5550 N.am  338  THR338     -0.1950
     95  CA        19.0800  -42.8100   16.2250 C.3   338  THR338      0.1897
     96  C         18.3360  -44.1350   16.1140 C.2   338  THR338      0.2313
     97  O         18.8650  -45.1100   15.5710 O.2   338  THR338     -0.2863
     98  CB        18.9370  -42.0520   14.8860 C.3   338  THR338      0.1794
     99  OG1       20.0310  -41.1430   14.7190 O.3   338  THR338     -0.2208
    100  CG2       17.6300  -41.2720   14.8460 C.3   338  THR338      0.0378
@<TRIPOS>BOND
     1    99    98    1
     2   100    98    1
     3    98    95    1
     4    97    96    2
     5    93    92    1
     6    96    95    1
     7    95    94    1
     8    94    90   am
     9    72    71    1
    10    18    17    1
    11    92    89    1
    12    90    89    1
    13    90    91    2
    14    89    88    1
    15    71    69   ar
    16    71    70   ar
    17    69    67   ar
    18    17    15   ar
    19    17    16   ar
    20    15    13   ar
    21    85    84    2
    22    70    68   ar
    23    67    66   ar
    24    88    84   am
    25    16    14   ar
    26    84    83    1
    27    13    12   ar
    28    68    66   ar
    29    66    65    1
    30    61    62    1
    31    80    79   ar
    32    62    65    1
    33    62    63    1
    34    78    77    1
    35    78    79    1
    36    77    74    1
    37    14    12   ar
    38    79    81   ar
    39    12    11    1
    40    83    82    1
    41    83    86    1
    42    87    86    1
    43    82    75   am
    44    63    64    2
    45    75    74    1
    46    75    76    2
    47    46    44    1
    48    74    73    1
    49    11     8    1
    50     8     7    1
    51     8     9    1
    52    44    43    2
    53    44    45    1
    54    43    42    1
    55    10     9    2
    56    42    41    1
    57     9    19   am
    58    55    56   ar
    59    55    53   ar
    60    58    56   ar
    61    58    60   ar
    62    34    33    1
    63    28    29    1
    64     6     5    1
    65    56    54   ar
    66    29    32    1
    67    29    30    1
    68    53    52   ar
    69    19    20    1
    70    41    40    1
    71    60    59   ar
    72    32    33    1
    73    30    31    2
    74    33    35    1
    75    40    37    1
    76     3     4    2
    77     3     2    1
    78    54    52   ar
    79    54    57   ar
    80    20    21    1
    81    20    23    1
    82    52    51    1
    83     5     2    1
    84    21    22    2
    85    59    57   ar
    86     2     1    1
    87    24    23    1
    88    24    25    1
    89    47    48    1
    90    51    48    1
    91    37    38    1
    92    37    36    1
    93    27    25   ar
    94    25    26   ar
    95    39    38    2
    96    48    49    1
    97    49    50    2
