@<TRIPOS>MOLECULE
tmp/3ro7A00.pdb
 119 109 0 0 0
SMALL
GASTEIGER

@<TRIPOS>ATOM
      1  N          5.8470   20.9840   18.3860 N.3     5  LEU5       -0.1245
      2  CA         7.2190   21.1950   17.9780 C.3     5  LEU5        0.1561
      3  C          7.9830   19.9070   18.0280 C.2     5  LEU5        0.2260
      4  O          7.8390   19.1240   18.9830 O.2     5  LEU5       -0.2867
      5  CB         7.9070   22.1600   18.9440 C.3     5  LEU5        0.0270
      6  CG         7.4520   23.6140   18.9690 C.3     5  LEU5        0.0019
      7  CD1        8.2080   24.4340   20.0310 C.3     5  LEU5        0.0001
      8  CD2        7.6400   24.2080   17.5860 C.3     5  LEU5        0.0001
      9  N         12.0850   22.8620   19.0170 N.3    10  ALA10      -0.1245
     10  CA        12.0840   23.3320   20.4000 C.3    10  ALA10       0.1562
     11  C         13.4710   23.8130   20.8340 C.2    10  ALA10       0.2260
     12  O         13.6020   24.9130   21.3840 O.2    10  ALA10      -0.2867
     13  CB        11.5400   22.2460   21.3450 C.3    10  ALA10       0.0290
     14  N         14.0250   27.3050   18.9880 N.3    13  VAL13      -0.1231
     15  CA        13.2800   28.3680   19.6250 C.3    13  VAL13       0.1692
     16  C         13.9050   28.7500   20.9910 C.2    13  VAL13       0.2592
     17  O         14.1650   29.9080   21.2920 O.2    13  VAL13      -0.2718
     18  CB        11.8130   27.9310   19.7980 C.3    13  VAL13       0.0266
     19  CG1       11.0830   28.8510   20.7100 C.3    13  VAL13       0.0020
     20  CG2       11.1130   27.8120   18.4230 C.3    13  VAL13       0.0020
     21  N         14.1640   27.7570   21.8080 N.am   14  ASP14      -0.1974
     22  CA        14.8180   27.9960   23.0680 C.3    14  ASP14       0.1709
     23  C         16.1240   28.7600   22.8780 C.2    14  ASP14       0.2293
     24  O         16.4560   29.6310   23.6630 O.2    14  ASP14      -0.2864
     25  CB        15.0960   26.6590   23.7380 C.3    14  ASP14       0.1436
     26  CG        15.6720   26.8190   25.1280 C.2    14  ASP14       0.3671
     27  OD1       14.9780   27.4630   25.9680 O.co2  14  ASP14      -0.2456
     28  OD2       16.8170   26.3180   25.3650 O.co2  14  ASP14      -0.2456
     29  N         15.5200   32.5500   21.9790 N.3    17  LEU17      -0.1245
     30  CA        15.2120   33.2190   23.2230 C.3    17  LEU17       0.1561
     31  C         16.4410   33.6940   24.0340 C.2    17  LEU17       0.2260
     32  O         16.4690   34.8500   24.4880 O.2    17  LEU17      -0.2867
     33  CB        14.3240   32.3060   24.0900 C.3    17  LEU17       0.0270
     34  CG        12.8880   32.1740   23.5640 C.3    17  LEU17       0.0019
     35  CD1       12.1640   31.0430   24.3180 C.3    17  LEU17       0.0001
     36  CD2       12.1500   33.5350   23.6370 C.3    17  LEU17       0.0001
     37  N         13.1950   33.5940   32.1580 N.3    28  LEU28      -0.1245
     38  CA        12.3190   32.6360   31.5040 C.3    28  LEU28       0.1561
     39  C         11.7970   31.5630   32.4420 C.2    28  LEU28       0.2260
     40  O         10.6560   31.1770   32.3770 O.2    28  LEU28      -0.2867
     41  CB        12.9730   32.0550   30.2580 C.3    28  LEU28       0.0270
     42  CG        13.1270   33.0630   29.1270 C.3    28  LEU28       0.0019
     43  CD1       13.3190   32.3930   27.8250 C.3    28  LEU28       0.0001
     44  CD2       11.9800   34.0040   29.0590 C.3    28  LEU28       0.0001
     45  N         14.2190   21.8520   34.0960 N.3    63  ASN63      -0.1240
     46  CA        12.8700   21.4480   34.4390 C.3    63  ASN63       0.1653
     47  C         12.8130   21.4090   35.9420 C.2    63  ASN63       0.2266
     48  O         11.8390   21.7850   36.5470 O.2    63  ASN63      -0.2867
     49  CB        12.5870   20.0760   33.8310 C.3    63  ASN63       0.1155
     50  CG        11.1180   19.8370   33.5530 C.2    63  ASN63       0.2627
     51  OD1       10.4690   19.0740   34.2760 O.2    63  ASN63      -0.2716
     52  ND2       10.5960   20.4280   32.4530 N.am   63  ASN63      -0.0877
     53  N         12.3830   25.0140   37.0430 N.3    66  ASP66      -0.1239
     54  CA        10.9900   25.4240   36.8970 C.3    66  ASP66       0.1674
     55  C         10.1740   24.9100   38.0540 C.2    66  ASP66       0.2266
     56  O          9.2590   25.5560   38.5190 O.2    66  ASP66      -0.2867
     57  CB        10.3730   24.8730   35.6320 C.3    66  ASP66       0.1410
     58  CG        11.0060   25.4290   34.3570 C.2    66  ASP66       0.3668
     59  OD1       11.5770   26.5360   34.3740 O.co2  66  ASP66      -0.2456
     60  OD2       10.9040   24.7580   33.3180 O.co2  66  ASP66      -0.2456
     61  N         12.3570   18.9740   27.8010 N.3   129  PHE129     -0.1241
     62  CA        12.2810   18.7810   26.3690 C.3   129  PHE129      0.1605
     63  C         13.6180   18.3460   25.7380 C.2   129  PHE129      0.2264
     64  O         13.6400   17.8710   24.6020 O.2   129  PHE129     -0.2867
     65  CB        11.7770   20.0950   25.7220 C.3   129  PHE129      0.0534
     66  CG        12.8550   21.1530   25.5490 C.ar  129  PHE129     -0.0203
     67  CD1       13.2100   21.9900   26.5950 C.ar  129  PHE129     -0.0042
     68  CD2       13.5300   21.2850   24.3180 C.ar  129  PHE129     -0.0042
     69  CE1       14.2210   22.9610   26.4440 C.ar  129  PHE129     -0.0003
     70  CE2       14.5360   22.2440   24.1410 C.ar  129  PHE129     -0.0003
     71  CZ        14.8880   23.0850   25.2090 C.ar  129  PHE129     -0.0000
     72  N          6.0530   20.6030   30.9720 N.3   157  ASP157     -0.1239
     73  CA         6.5180   20.6230   29.5890 C.3   157  ASP157      0.1674
     74  C          6.3690   19.2950   28.8870 C.2   157  ASP157      0.2266
     75  O          5.6450   19.2330   27.9180 O.2   157  ASP157     -0.2867
     76  CB         7.9390   21.1680   29.4720 C.3   157  ASP157      0.1410
     77  CG         8.1900   21.8260   28.1320 C.2   157  ASP157      0.3668
     78  OD1        7.2320   22.3640   27.5620 O.co2 157  ASP157     -0.2456
     79  OD2        9.3400   21.8300   27.6690 O.co2 157  ASP157     -0.2456
     80  N          5.1630   24.3580   27.9620 N.3   180  LEU180     -0.1231
     81  CA         5.8180   25.6780   28.0110 C.3   180  LEU180      0.1693
     82  C          6.1970   26.1340   26.6460 C.2   180  LEU180      0.2593
     83  O          6.7010   25.3580   25.8500 O.2   180  LEU180     -0.2718
     84  CB         7.0820   25.6400   28.8680 C.3   180  LEU180      0.0284
     85  CG         6.8760   25.2080   30.3130 C.3   180  LEU180      0.0019
     86  CD1        8.2280   25.0450   31.1140 C.3   180  LEU180      0.0001
     87  CD2        5.9120   26.1500   31.0290 C.3   180  LEU180      0.0001
     88  N          5.9400   27.4080   26.3800 N.am  181  THR181     -0.1939
     89  CA         6.2550   28.0660   25.0990 C.3   181  THR181      0.2028
     90  C          5.2730   27.5910   24.0960 C.2   181  THR181      0.2642
     91  O          4.4060   28.3250   23.7110 O.2   181  THR181     -0.2714
     92  CB         7.6990   27.7950   24.6100 C.3   181  THR181      0.1808
     93  OG1        8.6010   28.6790   25.2850 O.3   181  THR181     -0.2208
     94  CG2        7.8400   28.0320   23.1240 C.3   181  THR181      0.0379
     95  N          5.4050   26.3540   23.6680 N.am  182  ALA182     -0.1977
     96  CA         4.5020   25.7320   22.7140 C.3   182  ALA182      0.1597
     97  C          4.6010   24.2440   22.9060 C.2   182  ALA182      0.2287
     98  O          5.5830   23.7600   23.3710 O.2   182  ALA182     -0.2864
     99  CB         4.8790   26.0960   21.3330 C.3   182  ALA182      0.0319
    100  N          5.0990   20.2510   22.5380 N.3   184  LYS184     -0.1245
    101  CA         5.9980   19.3670   21.8500 C.3   184  LYS184      0.1561
    102  C          5.1670   18.2440   21.2900 C.2   184  LYS184      0.2260
    103  O          4.0950   18.0110   21.7610 O.2   184  LYS184     -0.2867
    104  CB         7.0180   18.8100   22.8190 C.3   184  LYS184      0.0271
    105  CG         8.2870   19.6040   22.9720 C.3   184  LYS184      0.0035
    106  CD         8.0400   21.0700   23.1930 C.3   184  LYS184      0.0206
    107  CE         7.9520   21.4030   24.6440 C.3   184  LYS184      0.1093
    108  NZ         7.1980   22.6120   24.9340 N.3   184  LYS184     -0.1314
    109  N          5.7930   34.6240   26.9560 N.3   201  PHE201     -0.1241
    110  CA         6.9160   35.5080   26.7350 C.3   201  PHE201      0.1605
    111  C          7.4430   35.4030   25.3310 C.2   201  PHE201      0.2264
    112  O          8.4800   35.9480   25.0170 O.2   201  PHE201     -0.2867
    113  CB         8.0440   35.2570   27.7490 C.3   201  PHE201      0.0534
    114  CG         8.3810   33.8010   27.9600 C.ar  201  PHE201     -0.0203
    115  CD1        8.1530   33.1830   29.1970 C.ar  201  PHE201     -0.0042
    116  CD2        8.9330   33.0460   26.9450 C.ar  201  PHE201     -0.0042
    117  CE1        8.4610   31.8300   29.3940 C.ar  201  PHE201     -0.0003
    118  CE2        9.2390   31.6970   27.1410 C.ar  201  PHE201     -0.0003
    119  CZ         9.0140   31.0850   28.3430 C.ar  201  PHE201     -0.0000
@<TRIPOS>BOND
     1     8     6    1
     2     2     3    1
     3     2     1    1
     4     2     5    1
     5     3     4    2
     6    20    18    1
     7     5     6    1
     8     6     7    1
     9    14    15    1
    10     9    10    1
    11    15    18    1
    12    15    16    1
    13    18    19    1
    14    10    11    1
    15    10    13    1
    16    11    12    2
    17    16    17    2
    18    16    21   am
    19   102   103    2
    20   102   101    1
    21    99    96    1
    22    21    22    1
    23   101   100    1
    24   101   104    1
    25    29    30    1
    26    96    97    1
    27    96    95    1
    28   104   105    1
    29    23    22    1
    30    23    24    2
    31    97    98    2
    32   105   106    1
    33    22    25    1
    34    94    92    1
    35   106   107    1
    36    30    31    1
    37    30    33    1
    38    34    36    1
    39    34    33    1
    40    34    35    1
    41    95    90   am
    42    91    90    2
    43    25    26    1
    44    31    32    2
    45    90    89    1
    46    70    68   ar
    47    70    71   ar
    48    68    66   ar
    49    64    63    2
    50    92    89    1
    51    92    93    1
    52   107   108    1
    53   112   111    2
    54    89    88    1
    55    26    28   ar
    56    26    27   ar
    57    71    69   ar
    58   111   110    1
    59    66    65    1
    60    66    67   ar
    61    65    62    1
    62    63    62    1
    63    83    82    2
    64    62    61    1
    65    88    82   am
    66    69    67   ar
    67    82    81    1
    68   110   109    1
    69   110   113    1
    70   116   118   ar
    71   116   114   ar
    72   118   119   ar
    73    78    77   ar
    74    79    77   ar
    75   113   114    1
    76    43    42    1
    77    75    74    2
    78   114   115   ar
    79    80    81    1
    80    81    84    1
    81    77    76    1
    82   119   117   ar
    83    84    85    1
    84    74    73    1
    85    44    42    1
    86    42    41    1
    87   115   117   ar
    88    76    73    1
    89    73    72    1
    90    41    38    1
    91    85    87    1
    92    85    86    1
    93    38    37    1
    94    38    39    1
    95    40    39    2
    96    52    50   am
    97    60    58   ar
    98    50    49    1
    99    50    51    2
   100    49    46    1
   101    45    46    1
   102    58    59   ar
   103    58    57    1
   104    46    47    1
   105    57    54    1
   106    47    48    2
   107    54    53    1
   108    54    55    1
   109    55    56    2
