@<TRIPOS>MOLECULE
tmp/3ro9B01.pdb
 198 191 0 0 0
SMALL
GASTEIGER

@<TRIPOS>ATOM
      1  N         32.2880    3.5920   28.7910 N.3     7  ILE7       -0.1231
      2  CA        32.7950    3.6250   30.1710 C.3     7  ILE7        0.1692
      3  C         31.6950    3.2840   31.1710 C.2     7  ILE7        0.2592
      4  O         30.5870    3.8170   31.0890 O.2     7  ILE7       -0.2718
      5  CB        33.4840    4.9710   30.5220 C.3     7  ILE7        0.0266
      6  CG1       34.0050    4.9390   31.9640 C.3     7  ILE7        0.0019
      7  CG2       32.5410    6.1500   30.2920 C.3     7  ILE7        0.0020
      8  CD1       34.8780    6.0990   32.3400 C.3     7  ILE7        0.0001
      9  N         32.0080    2.4040   32.1220 N.am    8  VAL8       -0.1966
     10  CA        31.0010    1.8820   33.0430 C.3     8  VAL8        0.1727
     11  C         31.6090    1.2980   34.3240 C.2     8  VAL8        0.2616
     12  O         32.7530    0.8520   34.3310 O.2     8  VAL8       -0.2715
     13  CB        30.1590    0.7690   32.3340 C.3     8  VAL8        0.0290
     14  CG1       31.0590   -0.3900   31.8860 C.3     8  VAL8        0.0023
     15  CG2       29.0380    0.2630   33.2300 C.3     8  VAL8        0.0023
     16  N         30.8250    1.3020   35.4010 N.am    9  ALA9       -0.1977
     17  CA        31.2130    0.6770   36.6660 C.3     9  ALA9        0.1597
     18  C         30.2460   -0.4720   36.9660 C.2     9  ALA9        0.2287
     19  O         29.0360   -0.2590   37.0880 O.2     9  ALA9       -0.2864
     20  CB        31.2010    1.6960   37.7960 C.3     9  ALA9        0.0319
     21  N         16.5410    2.6760   38.6640 N.3    21  GLY21      -0.1210
     22  CA        16.8900    3.9680   38.0730 C.3    21  GLY21       0.1956
     23  C         18.1160    4.6610   38.6490 C.2    21  GLY21       0.2612
     24  O         18.4790    5.7570   38.2110 O.2    21  GLY21      -0.2717
     25  N         18.7550    4.0300   39.6290 N.am   22  ASN22      -0.1960
     26  CA        19.9450    4.5970   40.2660 C.3    22  ASN22       0.1819
     27  C         21.1050    3.6140   40.3300 C.2    22  ASN22       0.2621
     28  O         21.0060    2.4860   39.8530 O.2    22  ASN22      -0.2715
     29  CB        19.6120    5.0720   41.6880 C.3    22  ASN22       0.1195
     30  CG        18.6340    6.2250   41.7050 C.2    22  ASN22       0.2630
     31  OD1       18.9380    7.3210   41.2350 O.2    22  ASN22      -0.2716
     32  ND2       17.4580    5.9920   42.2770 N.am   22  ASN22      -0.0877
     33  N         22.2080    4.0670   40.9150 N.am   23  LEU23      -0.1977
     34  CA        23.3640    3.2170   41.1720 C.3    23  LEU23       0.1596
     35  C         23.1100    2.4560   42.4760 C.2    23  LEU23       0.2287
     36  O         22.4730    2.9810   43.3890 O.2    23  LEU23      -0.2864
     37  CB        24.6360    4.0670   41.2980 C.3    23  LEU23       0.0297
     38  CG        24.9710    5.0430   40.1590 C.3    23  LEU23       0.0022
     39  CD1       26.1320    5.9400   40.5380 C.3    23  LEU23       0.0001
     40  CD2       25.2620    4.3180   38.8540 C.3    23  LEU23       0.0001
     41  N         25.2510    1.7350   44.5960 N.3    25  TRP25      -0.1241
     42  CA        26.2380    2.1650   45.5720 C.3    25  TRP25       0.1605
     43  C         26.5090    3.6640   45.4880 C.2    25  TRP25       0.2264
     44  O         25.9990    4.3600   44.6000 O.2    25  TRP25      -0.2867
     45  CB        27.5460    1.4060   45.3500 C.3    25  TRP25       0.0550
     46  CG        27.9970    1.4430   43.9140 C.ar   25  TRP25       0.0003
     47  CD1       28.6130    2.4790   43.2760 C.ar   25  TRP25       0.0946
     48  CD2       27.8500    0.4000   42.9370 C.ar   25  TRP25       0.0152
     49  NE1       28.8630    2.1470   41.9640 N.ar   25  TRP25      -0.2442
     50  CE2       28.3980    0.8810   41.7270 C.ar   25  TRP25       0.0810
     51  CE3       27.3070   -0.8910   42.9660 C.ar   25  TRP25       0.0012
     52  CZ2       28.4160    0.1170   40.5530 C.ar   25  TRP25       0.0191
     53  CZ3       27.3270   -1.6500   41.7980 C.ar   25  TRP25       0.0001
     54  CH2       27.8870   -1.1450   40.6120 C.ar   25  TRP25       0.0015
     55  N         30.1060    5.6610   45.8830 N.3    27  LEU27      -0.1245
     56  CA        31.5330    5.6150   46.1630 C.3    27  LEU27       0.1561
     57  C         32.2380    6.8200   45.5640 C.2    27  LEU27       0.2260
     58  O         32.3950    6.9160   44.3440 O.2    27  LEU27      -0.2867
     59  CB        32.1340    4.3120   45.6320 C.3    27  LEU27       0.0270
     60  CG        31.4710    3.0280   46.1450 C.3    27  LEU27       0.0019
     61  CD1       31.7960    1.8360   45.2500 C.3    27  LEU27       0.0001
     62  CD2       31.8190    2.7480   47.6110 C.3    27  LEU27       0.0001
     63  N         35.1490    6.3440   43.0930 N.3    30  GLU30      -0.1231
     64  CA        34.7820    5.8430   41.7720 C.3    30  GLU30       0.1699
     65  C         34.2110    6.9650   40.8960 C.2    30  GLU30       0.2592
     66  O         34.4460    6.9930   39.6790 O.2    30  GLU30      -0.2718
     67  CB        33.8020    4.6690   41.8710 C.3    30  GLU30       0.0402
     68  CG        33.8870    3.6780   40.7010 C.3    30  GLU30       0.1161
     69  CD        33.3240    4.2230   39.3970 C.2    30  GLU30       0.3649
     70  OE1       32.1970    4.7600   39.4110 O.co2  30  GLU30      -0.2457
     71  OE2       33.9870    4.0690   38.3500 O.co2  30  GLU30      -0.2457
     72  N         33.4850    7.8940   41.5210 N.am   31  MET31      -0.1979
     73  CA        32.9130    9.0380   40.8080 C.3    31  MET31       0.1605
     74  C         34.0610    9.9500   40.3510 C.2    31  MET31       0.2287
     75  O         34.0120   10.5380   39.2700 O.2    31  MET31      -0.2864
     76  CB        31.9510    9.8150   41.7210 C.3    31  MET31       0.0413
     77  CG        30.6040   10.1960   41.0740 C.3    31  MET31       0.0598
     78  SD        30.6590   11.1960   39.5640 S.3    31  MET31      -0.1393
     79  CE        31.2890   12.7600   40.1960 C.3    31  MET31       0.0692
     80  N         37.1670    9.0430   39.5150 N.3    33  TYR33      -0.1227
     81  CA        37.7860    8.4500   38.3280 C.3    33  TYR33       0.1736
     82  C         36.9530    8.7390   37.0830 C.2    33  TYR33       0.2595
     83  O         37.4790    9.1580   36.0530 O.2    33  TYR33      -0.2718
     84  CB        37.9290    6.9420   38.5120 C.3    33  TYR33       0.0548
     85  CG        38.3630    6.1850   37.2700 C.ar   33  TYR33      -0.0200
     86  CD1       37.4240    5.6110   36.4140 C.ar   33  TYR33      -0.0009
     87  CD2       39.7040    6.0050   36.9790 C.ar   33  TYR33      -0.0009
     88  CE1       37.8150    4.9000   35.2980 C.ar   33  TYR33       0.0417
     89  CE2       40.1030    5.2940   35.8690 C.ar   33  TYR33       0.0417
     90  CZ        39.1580    4.7420   35.0340 C.ar   33  TYR33       0.1957
     91  OH        39.5690    4.0270   33.9280 O.3    33  TYR33      -0.2866
     92  N         35.6530    8.4960   37.1840 N.am   34  PHE34      -0.1962
     93  CA        34.7390    8.7350   36.0760 C.3    34  PHE34       0.1771
     94  C         34.7570   10.1950   35.5980 C.2    34  PHE34       0.2619
     95  O         34.7970   10.4630   34.3950 O.2    34  PHE34      -0.2715
     96  CB        33.3150    8.3100   36.4440 C.3    34  PHE34       0.0574
     97  CG        32.2790    8.8370   35.5070 C.ar   34  PHE34      -0.0200
     98  CD1       31.5820   10.0050   35.8100 C.ar   34  PHE34      -0.0042
     99  CD2       32.0610    8.2230   34.2820 C.ar   34  PHE34      -0.0042
    100  CE1       30.6580   10.5250   34.9260 C.ar   34  PHE34      -0.0003
    101  CE2       31.1360    8.7310   33.3980 C.ar   34  PHE34      -0.0003
    102  CZ        30.4360    9.8910   33.7150 C.ar   34  PHE34      -0.0000
    103  N         34.7420   11.1260   36.5460 N.am   35  ARG35      -0.1977
    104  CA        34.7530   12.5530   36.2300 C.3    35  ARG35       0.1597
    105  C         36.0270   12.9350   35.4790 C.2    35  ARG35       0.2287
    106  O         35.9730   13.5040   34.3950 O.2    35  ARG35      -0.2864
    107  CB        34.6410   13.3910   37.5110 C.3    35  ARG35       0.0334
    108  CG        34.1220   14.8120   37.2750 C.3    35  ARG35       0.0492
    109  CD        34.3930   15.7620   38.4530 C.3    35  ARG35       0.2205
    110  NE        34.3210   15.0910   39.7480 N.pl3  35  ARG35      -0.0865
    111  CZ        35.3710   14.8760   40.5350 C.cat  35  ARG35       0.5346
    112  NH1       35.2190   14.2400   41.6880 N.pl3  35  ARG35       0.1354
    113  NH2       36.5720   15.3170   40.1790 N.pl3  35  ARG35       0.1354
    114  N         19.3650    7.6170   31.6710 N.3    56  THR56      -0.1218
    115  CA        20.5610    7.8650   32.4580 C.3    56  THR56       0.1862
    116  C         20.6410    9.3550   32.7850 C.2    56  THR56       0.2287
    117  O         21.0780    9.7420   33.8760 O.2    56  THR56      -0.2866
    118  CB        21.8250    7.4290   31.6880 C.3    56  THR56       0.1770
    119  OG1       21.7490    6.0250   31.4100 O.3    56  THR56      -0.2211
    120  CG2       23.0750    7.7110   32.4940 C.3    56  THR56       0.0375
    121  N         18.5560   10.4300   35.6720 N.3    59  SER59      -0.1202
    122  CA        19.0420    9.8740   36.9340 C.3    59  SER59       0.2020
    123  C         20.1390   10.7370   37.5480 C.2    59  SER59       0.2619
    124  O         20.5030   10.5470   38.7070 O.2    59  SER59      -0.2717
    125  CB        19.5660    8.4500   36.7380 C.3    59  SER59       0.2103
    126  OG        20.8390    8.4550   36.1150 O.3    59  SER59      -0.2182
    127  N         20.6940   11.6520   36.7570 N.am   60  ILE60      -0.1966
    128  CA        21.7380   12.5460   37.2520 C.3    60  ILE60       0.1712
    129  C         21.1120   13.7350   37.9760 C.2    60  ILE60       0.2458
    130  O         20.2190   14.3900   37.4400 O.2    60  ILE60      -0.2730
    131  CB        22.6590   13.0540   36.1150 C.3    60  ILE60       0.0289
    132  CG1       23.2910   11.8730   35.3690 C.3    60  ILE60       0.0022
    133  CG2       23.7390   13.9840   36.6730 C.3    60  ILE60       0.0023
    134  CD1       24.0050   12.2590   34.0890 C.3    60  ILE60       0.0001
    135  N         21.5540   13.9930   39.2150 N.am   61  PRO61      -0.2727
    136  CA        21.0310   15.1350   39.9640 C.3    61  PRO61       0.1402
    137  C         21.0910   16.4060   39.1250 C.2    61  PRO61       0.2269
    138  O         22.1130   16.6840   38.4890 O.2    61  PRO61      -0.2865
    139  CB        21.9830   15.2360   41.1580 C.3    61  PRO61       0.0296
    140  CG        22.4610   13.8390   41.3610 C.3    61  PRO61       0.0237
    141  CD        22.5440   13.2240   39.9900 C.3    61  PRO61       0.0939
    142  N         24.1360   18.6960   38.8830 N.3    64  PHE64      -0.1241
    143  CA        25.3510   18.2450   38.2200 C.3    64  PHE64       0.1605
    144  C         25.2020   17.9700   36.7160 C.2    64  PHE64       0.2264
    145  O         26.1300   17.4690   36.0870 O.2    64  PHE64      -0.2867
    146  CB        25.9250   17.0230   38.9460 C.3    64  PHE64       0.0534
    147  CG        26.1940   17.2520   40.4220 C.ar   64  PHE64      -0.0203
    148  CD1       27.2900   18.0040   40.8410 C.ar   64  PHE64      -0.0042
    149  CD2       25.3790   16.6700   41.3940 C.ar   64  PHE64      -0.0042
    150  CE1       27.5510   18.2010   42.2100 C.ar   64  PHE64      -0.0003
    151  CE2       25.6310   16.8630   42.7630 C.ar   64  PHE64      -0.0003
    152  CZ        26.7170   17.6280   43.1680 C.ar   64  PHE64      -0.0000
    153  N         26.8630   17.3660   32.3810 N.3    67  LEU67      -0.1245
    154  CA        28.1930   17.1810   32.9610 C.3    67  LEU67       0.1561
    155  C         29.1370   18.2430   32.4190 C.2    67  LEU67       0.2260
    156  O         29.2200   18.4350   31.2020 O.2    67  LEU67      -0.2867
    157  CB        28.7300   15.7790   32.6900 C.3    67  LEU67       0.0270
    158  CG        27.9260   14.6450   33.3300 C.3    67  LEU67       0.0019
    159  CD1       28.5480   13.2900   32.9970 C.3    67  LEU67       0.0001
    160  CD2       27.8290   14.8450   34.8340 C.3    67  LEU67       0.0001
    161  N         32.2870   18.7920   29.2250 N.3    70  ARG70      -0.1245
    162  CA        32.1100   17.7340   28.2260 C.3    70  ARG70       0.1563
    163  C         30.8930   18.0280   27.3630 C.2    70  ARG70       0.2260
    164  O         29.8870   18.5340   27.8630 O.2    70  ARG70      -0.2867
    165  CB        31.9330   16.3830   28.9230 C.3    70  ARG70       0.0307
    166  CG        33.1970   15.8630   29.6010 C.3    70  ARG70       0.0489
    167  CD        32.8750   15.0440   30.8440 C.3    70  ARG70       0.2205
    168  NE        32.4670   15.8870   31.9690 N.pl3  70  ARG70      -0.0865
    169  CZ        32.2220   15.4390   33.2010 C.cat  70  ARG70       0.5346
    170  NH1       32.3390   14.1480   33.4860 N.pl3  70  ARG70       0.1354
    171  NH2       31.8620   16.2880   34.1530 N.pl3  70  ARG70       0.1354
    172  N         28.5590    6.9380   28.0740 N.3   119  ILE119     -0.1245
    173  CA        28.5830    6.8990   29.5360 C.3   119  ILE119      0.1561
    174  C         27.3830    6.2930   30.2410 C.2   119  ILE119      0.2260
    175  O         27.2730    6.4070   31.4680 O.2   119  ILE119     -0.2867
    176  CB        28.7940    8.3030   30.1480 C.3   119  ILE119      0.0252
    177  CG1       27.5900    9.1990   29.8360 C.3   119  ILE119      0.0019
    178  CG2       30.1140    8.9120   29.6690 C.3   119  ILE119      0.0019
    179  CD1       27.4420   10.3700   30.7700 C.3   119  ILE119      0.0001
    180  N         24.2680    0.6970   26.2820 N.3   125  TYR125     -0.1241
    181  CA        25.4560   -0.1700   26.2850 C.3   125  TYR125      0.1605
    182  C         25.3170   -1.3960   25.3660 C.2   125  TYR125      0.2264
    183  O         26.2870   -1.8180   24.7380 O.2   125  TYR125     -0.2867
    184  CB        25.8320   -0.6030   27.7090 C.3   125  TYR125      0.0534
    185  CG        26.4250    0.4930   28.5960 C.ar  125  TYR125     -0.0201
    186  CD1       27.4500    1.3190   28.1310 C.ar  125  TYR125     -0.0009
    187  CD2       26.0410    0.6210   29.9340 C.ar  125  TYR125     -0.0009
    188  CE1       28.0250    2.2880   28.9480 C.ar  125  TYR125      0.0417
    189  CE2       26.6060    1.5920   30.7600 C.ar  125  TYR125      0.0417
    190  CZ        27.6040    2.4190   30.2630 C.ar  125  TYR125      0.1957
    191  OH        28.1800    3.3800   31.0720 O.3   125  TYR125     -0.2866
    192  N         34.8930   -0.4540   35.4050 N.3   138  THR138     -0.1218
    193  CA        35.2560   -0.5450   36.8150 C.3   138  THR138      0.1862
    194  C         34.5940   -1.7830   37.4210 C.2   138  THR138      0.2287
    195  O         33.3730   -1.8490   37.5550 O.2   138  THR138     -0.2866
    196  CB        34.8500    0.7180   37.6020 C.3   138  THR138      0.1770
    197  OG1       35.5150    1.8590   37.0470 O.3   138  THR138     -0.2211
    198  CG2       35.2340    0.5850   39.0650 C.3   138  THR138      0.0375
@<TRIPOS>BOND
     1   183   182    2
     2   182   181    1
     3   180   181    1
     4   181   184    1
     5   163   164    2
     6   163   162    1
     7   184   185    1
     8   172   173    1
     9   186   185   ar
    10   186   188   ar
    11   162   165    1
    12   162   161    1
    13   185   187   ar
    14     1     2    1
    15   165   166    1
    16   188   190   ar
    17   173   176    1
    18   173   174    1
    19   166   167    1
    20   178   176    1
    21   177   176    1
    22   177   179    1
    23   187   189   ar
    24     2     5    1
    25     2     3    1
    26   174   175    2
    27   190   189   ar
    28   190   191    1
    29     7     5    1
    30     5     6    1
    31   167   168    1
    32     4     3    2
    33     3     9   am
    34   156   155    2
    35   119   118    1
    36   114   115    1
    37   118   115    1
    38   118   120    1
    39    14    13    1
    40     6     8    1
    41   168   169    2
    42     9    10    1
    43    13    10    1
    44    13    15    1
    45   153   154    1
    46   155   154    1
    47   115   116    1
    48   157   154    1
    49   157   158    1
    50   116   117    2
    51   159   158    1
    52    10    11    1
    53   169   170    1
    54   169   171    1
    55   158   160    1
    56   101   102   ar
    57   101    99   ar
    58   102   100   ar
    59    91    90    1
    60   134   132    1
    61    99    97   ar
    62    11    12    2
    63    11    16   am
    64   106   105    2
    65    95    94    2
    66   100    98   ar
    67    90    88   ar
    68    90    89   ar
    69    88    86   ar
    70   132   131    1
    71    16    17    1
    72   192   193    1
    73   105   104    1
    74    97    98   ar
    75    97    96    1
    76    94    93    1
    77    94   103   am
    78   121   122    1
    79    89    87   ar
    80    83    82    2
    81    93    96    1
    82    93    92    1
    83   145   144    2
    84   131   133    1
    85   131   128    1
    86   126   125    1
    87   104   103    1
    88   104   107    1
    89    86    85   ar
    90    17    18    1
    91    17    20    1
    92   144   143    1
    93   125   122    1
    94   127   128    1
    95   127   123   am
    96   193   194    1
    97   193   196    1
    98   122   123    1
    99    18    19    2
   100    87    85   ar
   101   197   196    1
   102    82    92   am
   103    82    81    1
   104   128   129    1
   105    85    84    1
   106   108   107    1
   107   108   109    1
   108   194   195    2
   109   130   129    2
   110   123   124    2
   111   196   198    1
   112   129   135   am
   113    22    23    1
   114    22    21    1
   115    24    23    2
   116   143   142    1
   117   143   146    1
   118    81    84    1
   119    81    80    1
   120    71    69   ar
   121   109   110    1
   122   138   137    2
   123    23    25   am
   124    40    38    1
   125   146   147    1
   126   137   136    1
   127   135   136    1
   128   135   141    1
   129    75    74    2
   130    69    70   ar
   131    69    68    1
   132    78    79    1
   133    78    77    1
   134    25    26    1
   135    66    65    2
   136   110   111    2
   137    28    27    2
   138   136   139    1
   139   141   140    1
   140    38    39    1
   141    38    37    1
   142   113   111    1
   143    26    27    1
   144    26    29    1
   145    27    33   am
   146    74    73    1
   147   147   148   ar
   148   147   149   ar
   149   111   112    1
   150    52    54   ar
   151    52    50   ar
   152    54    53   ar
   153    68    67    1
   154    73    72    1
   155    73    76    1
   156   148   150   ar
   157    65    72   am
   158    65    64    1
   159    33    34    1
   160    77    76    1
   161   139   140    1
   162    34    37    1
   163    34    35    1
   164    31    30    2
   165   149   151   ar
   166    29    30    1
   167    30    32   am
   168    50    49   ar
   169    50    48   ar
   170    64    67    1
   171    64    63    1
   172    53    51   ar
   173    49    47   ar
   174   150   152   ar
   175    35    36    2
   176   151   152   ar
   177    48    51   ar
   178    48    46   ar
   179    47    46   ar
   180    46    45    1
   181    58    57    2
   182    41    42    1
   183    44    43    2
   184    61    60    1
   185    45    42    1
   186    43    42    1
   187    57    56    1
   188    59    60    1
   189    59    56    1
   190    55    56    1
   191    60    62    1
