@<TRIPOS>MOLECULE
tmp/3roaB01.pdb
 201 196 0 0 0
SMALL
GASTEIGER

@<TRIPOS>ATOM
      1  N         32.5700    3.6470   27.4770 N.3     7  ILE7       -0.1231
      2  CA        33.0530    3.7330   28.8560 C.3     7  ILE7        0.1692
      3  C         31.9320    3.4100   29.8460 C.2     7  ILE7        0.2592
      4  O         30.8190    3.9460   29.7490 O.2     7  ILE7       -0.2718
      5  CB        33.7790    5.0800   29.1740 C.3     7  ILE7        0.0266
      6  CG1       34.4180    5.0280   30.5730 C.3     7  ILE7        0.0019
      7  CG2       32.8360    6.2980   29.0140 C.3     7  ILE7        0.0020
      8  CD1       35.4310    6.1350   30.8290 C.3     7  ILE7        0.0001
      9  N         32.2400    2.5180   30.7880 N.am    8  VAL8       -0.1966
     10  CA        31.2290    1.8910   31.6380 C.3     8  VAL8        0.1727
     11  C         31.8840    1.3730   32.9160 C.2     8  VAL8        0.2616
     12  O         33.0670    0.9950   32.9080 O.2     8  VAL8       -0.2715
     13  CB        30.4890    0.7300   30.8640 C.3     8  VAL8        0.0290
     14  CG1       31.4520   -0.4080   30.4810 C.3     8  VAL8        0.0023
     15  CG2       29.2900    0.1830   31.6440 C.3     8  VAL8        0.0023
     16  N         31.1250    1.4090   34.0120 N.am    9  ALA9       -0.1977
     17  CA        31.4900    0.7330   35.2530 C.3     9  ALA9        0.1597
     18  C         30.5370   -0.4530   35.4510 C.2     9  ALA9        0.2287
     19  O         29.3130   -0.2770   35.5120 O.2     9  ALA9       -0.2864
     20  CB        31.4120    1.6950   36.4460 C.3     9  ALA9        0.0319
     21  N         18.9360    4.0830   37.9340 N.3    22  ASN22      -0.1225
     22  CA        20.1210    4.6460   38.5770 C.3    22  ASN22       0.1785
     23  C         21.2670    3.6560   38.6910 C.2    22  ASN22       0.2597
     24  O         21.1110    2.4660   38.4150 O.2    22  ASN22      -0.2718
     25  CB        19.7660    5.2060   39.9690 C.3    22  ASN22       0.1169
     26  CG        18.8940    6.4490   39.8920 C.2    22  ASN22       0.2627
     27  OD1       19.3030    7.4810   39.3410 O.2    22  ASN22      -0.2716
     28  ND2       17.6790    6.3560   40.4350 N.am   22  ASN22      -0.0877
     29  N         22.4220    4.1660   39.0950 N.am   23  LEU23      -0.1980
     30  CA        23.5910    3.3450   39.3960 C.3    23  LEU23       0.1596
     31  C         23.3400    2.5420   40.6790 C.2    23  LEU23       0.2287
     32  O         22.6350    3.0200   41.5730 O.2    23  LEU23      -0.2864
     33  CB        24.8340    4.2350   39.5460 C.3    23  LEU23       0.0297
     34  CG        25.0870    5.3110   38.4780 C.3    23  LEU23       0.0022
     35  CD1       26.2490    6.2100   38.8760 C.3    23  LEU23       0.0001
     36  CD2       25.3620    4.6890   37.1140 C.3    23  LEU23       0.0001
     37  N         25.6730    1.7210   42.8350 N.3    25  TRP25      -0.1227
     38  CA        26.7040    2.1110   43.7930 C.3    25  TRP25       0.1737
     39  C         26.9770    3.6120   43.6320 C.2    25  TRP25       0.2595
     40  O         26.4860    4.2380   42.6910 O.2    25  TRP25      -0.2718
     41  CB        27.9840    1.3120   43.5410 C.3    25  TRP25       0.0564
     42  CG        28.3860    1.3350   42.0900 C.ar   25  TRP25       0.0003
     43  CD1       29.0440    2.3390   41.4410 C.ar   25  TRP25       0.0946
     44  CD2       28.1320    0.3260   41.1090 C.ar   25  TRP25       0.0152
     45  NE1       29.2230    2.0190   40.1260 N.ar   25  TRP25      -0.2442
     46  CE2       28.6630    0.7940   39.8840 C.ar   25  TRP25       0.0810
     47  CE3       27.5080   -0.9260   41.1400 C.ar   25  TRP25       0.0012
     48  CZ2       28.5990    0.0470   38.7010 C.ar   25  TRP25       0.0191
     49  CZ3       27.4370   -1.6640   39.9590 C.ar   25  TRP25       0.0001
     50  CH2       27.9850   -1.1730   38.7580 C.ar   25  TRP25       0.0015
     51  N         27.7500    4.1740   44.5590 N.am   26  ARG26      -0.1966
     52  CA        28.2260    5.5490   44.4710 C.3    26  ARG26       0.1729
     53  C         29.6950    5.5580   44.8360 C.2    26  ARG26       0.2616
     54  O         30.0550    5.4890   46.0080 O.2    26  ARG26      -0.2715
     55  CB        27.4320    6.4780   45.4010 C.3    26  ARG26       0.0348
     56  CG        27.8090    7.9460   45.2700 C.3    26  ARG26       0.0492
     57  CD        27.1430    8.8000   46.3400 C.3    26  ARG26       0.2205
     58  NE        27.3920   10.2230   46.1230 N.pl3  26  ARG26      -0.0865
     59  CZ        26.6540   11.0040   45.3380 C.cat  26  ARG26       0.5346
     60  NH1       26.9650   12.2870   45.1970 N.pl3  26  ARG26       0.1354
     61  NH2       25.6050   10.5040   44.6920 N.pl3  26  ARG26       0.1354
     62  N         30.5500    5.6180   43.8250 N.am   27  LEU27      -0.1977
     63  CA        31.9800    5.5520   44.0490 C.3    27  LEU27       0.1596
     64  C         32.6550    6.8070   43.4980 C.2    27  LEU27       0.2287
     65  O         32.7810    6.9790   42.2770 O.2    27  LEU27      -0.2864
     66  CB        32.5630    4.2720   43.4450 C.3    27  LEU27       0.0297
     67  CG        31.9300    2.9340   43.8570 C.3    27  LEU27       0.0022
     68  CD1       32.2700    1.8230   42.8620 C.3    27  LEU27       0.0001
     69  CD2       32.3150    2.5310   45.2780 C.3    27  LEU27       0.0001
     70  N         35.5520    6.3710   41.2620 N.3    30  GLU30      -0.1231
     71  CA        35.1330    5.8680   39.9620 C.3    30  GLU30       0.1699
     72  C         34.6130    7.0240   39.1030 C.2    30  GLU30       0.2592
     73  O         34.9990    7.1400   37.9340 O.2    30  GLU30      -0.2718
     74  CB        34.0710    4.7740   40.1030 C.3    30  GLU30       0.0402
     75  CG        34.1000    3.7270   38.9800 C.3    30  GLU30       0.1161
     76  CD        33.6890    4.2730   37.6290 C.2    30  GLU30       0.3649
     77  OE1       32.6560    4.9660   37.5600 O.co2  30  GLU30      -0.2457
     78  OE2       34.3910    4.0030   36.6370 O.co2  30  GLU30      -0.2457
     79  N         33.7420    7.8550   39.6930 N.am   31  MET31      -0.1979
     80  CA        33.2640    9.1100   39.0940 C.3    31  MET31       0.1605
     81  C         34.3870   10.0660   38.6750 C.2    31  MET31       0.2287
     82  O         34.2970   10.7040   37.6360 O.2    31  MET31      -0.2864
     83  CB        32.3360    9.8540   40.0590 C.3    31  MET31       0.0413
     84  CG        30.8510    9.8760   39.6810 C.3    31  MET31       0.0598
     85  SD        30.3310   10.5090   38.0480 S.3    31  MET31      -0.1393
     86  CE        31.3240   11.9860   37.7940 C.3    31  MET31       0.0692
     87  N         37.5520    9.2510   37.8920 N.3    33  TYR33      -0.1227
     88  CA        38.1170    8.6140   36.7060 C.3    33  TYR33       0.1736
     89  C         37.2860    8.8980   35.4600 C.2    33  TYR33       0.2595
     90  O         37.8310    9.3150   34.4380 O.2    33  TYR33      -0.2718
     91  CB        38.1950    7.1100   36.9270 C.3    33  TYR33       0.0548
     92  CG        38.7310    6.2900   35.7630 C.ar   33  TYR33      -0.0200
     93  CD1       37.8700    5.5800   34.9190 C.ar   33  TYR33      -0.0009
     94  CD2       40.1010    6.1780   35.5410 C.ar   33  TYR33      -0.0009
     95  CE1       38.3710    4.7980   33.8790 C.ar   33  TYR33       0.0417
     96  CE2       40.5990    5.4100   34.5110 C.ar   33  TYR33       0.0417
     97  CZ        39.7360    4.7220   33.6840 C.ar   33  TYR33       0.1957
     98  OH        40.2600    3.9520   32.6660 O.3    33  TYR33      -0.2866
     99  N         35.9780    8.6530   35.5540 N.am   34  PHE34      -0.1976
    100  CA        35.0590    8.8910   34.4440 C.3    34  PHE34       0.1639
    101  C         35.1240   10.3460   33.9710 C.2    34  PHE34       0.2290
    102  O         35.2170   10.6080   32.7670 O.2    34  PHE34      -0.2864
    103  CB        33.6160    8.5420   34.8250 C.3    34  PHE34       0.0560
    104  CG        32.5920    9.0460   33.8340 C.ar   34  PHE34      -0.0200
    105  CD1       31.8650   10.2170   34.0920 C.ar   34  PHE34      -0.0042
    106  CD2       32.3710    8.3650   32.6260 C.ar   34  PHE34      -0.0042
    107  CE1       30.9160   10.7000   33.1670 C.ar   34  PHE34      -0.0003
    108  CE2       31.4390    8.8390   31.6860 C.ar   34  PHE34      -0.0003
    109  CZ        30.7110   10.0110   31.9540 C.ar   34  PHE34      -0.0000
    110  N         19.5160    7.7600   30.3900 N.3    56  THR56      -0.1218
    111  CA        20.7440    8.0740   31.1170 C.3    56  THR56       0.1862
    112  C         20.8800    9.5820   31.3550 C.2    56  THR56       0.2287
    113  O         21.3130   10.0070   32.4290 O.2    56  THR56      -0.2866
    114  CB        21.9940    7.4780   30.4180 C.3    56  THR56       0.1770
    115  OG1       21.9320    6.0540   30.5040 O.3    56  THR56      -0.2211
    116  CG2       23.2780    7.9410   31.0800 C.3    56  THR56       0.0375
    117  N         18.7700   10.5880   34.1510 N.3    59  SER59      -0.1202
    118  CA        19.3070   10.0970   35.4170 C.3    59  SER59       0.2020
    119  C         20.3570   11.0250   36.0320 C.2    59  SER59       0.2619
    120  O         20.5250   11.0290   37.2430 O.2    59  SER59      -0.2717
    121  CB        19.9030    8.6920   35.2430 C.3    59  SER59       0.2103
    122  OG        21.2330    8.7490   34.7470 O.3    59  SER59      -0.2182
    123  N         21.0760   11.7840   35.2030 N.am   60  ILE60      -0.1966
    124  CA        22.0940   12.7080   35.7000 C.3    60  ILE60       0.1712
    125  C         21.4420   13.8740   36.4520 C.2    60  ILE60       0.2458
    126  O         20.5230   14.4960   35.9320 O.2    60  ILE60      -0.2730
    127  CB        23.0060   13.2530   34.5620 C.3    60  ILE60       0.0289
    128  CG1       23.7580   12.1040   33.8760 C.3    60  ILE60       0.0022
    129  CG2       23.9930   14.3060   35.1110 C.3    60  ILE60       0.0023
    130  CD1       24.2040   12.4010   32.4510 C.3    60  ILE60       0.0001
    131  N         21.8980   14.1490   37.6930 N.am   61  PRO61      -0.2727
    132  CA        21.4100   15.3190   38.4430 C.3    61  PRO61       0.1402
    133  C         21.3900   16.5810   37.5900 C.2    61  PRO61       0.2269
    134  O         22.3610   16.8690   36.8770 O.2    61  PRO61      -0.2865
    135  CB        22.4250   15.4620   39.5820 C.3    61  PRO61       0.0296
    136  CG        22.9110   14.0740   39.8220 C.3    61  PRO61       0.0237
    137  CD        22.8680   13.3580   38.4780 C.3    61  PRO61       0.0939
    138  N         24.3530   18.8870   37.2870 N.3    64  PHE64      -0.1241
    139  CA        25.5900   18.3780   36.6940 C.3    64  PHE64       0.1605
    140  C         25.4750   18.0770   35.1960 C.2    64  PHE64       0.2264
    141  O         26.4010   17.5430   34.5880 O.2    64  PHE64      -0.2867
    142  CB        26.0770   17.1460   37.4620 C.3    64  PHE64       0.0534
    143  CG        26.5040   17.4400   38.8780 C.ar   64  PHE64      -0.0203
    144  CD1       27.7500   18.0060   39.1440 C.ar   64  PHE64      -0.0042
    145  CD2       25.6660   17.1310   39.9520 C.ar   64  PHE64      -0.0042
    146  CE1       28.1540   18.2710   40.4650 C.ar   64  PHE64      -0.0003
    147  CE2       26.0570   17.3940   41.2790 C.ar   64  PHE64      -0.0003
    148  CZ        27.2980   17.9630   41.5350 C.ar   64  PHE64      -0.0000
    149  N         27.2030   17.6230   30.9850 N.3    67  LEU67      -0.1231
    150  CA        28.5100   17.3970   31.5710 C.3    67  LEU67       0.1678
    151  C         29.4630   18.4640   31.0510 C.2    67  LEU67       0.2434
    152  O         29.6520   18.5730   29.8450 O.2    67  LEU67      -0.2733
    153  CB        29.0160   15.9860   31.2360 C.3    67  LEU67       0.0284
    154  CG        28.0800   14.8360   31.6530 C.3    67  LEU67       0.0019
    155  CD1       28.6300   13.4780   31.2060 C.3    67  LEU67       0.0001
    156  CD2       27.8470   14.8530   33.1490 C.3    67  LEU67       0.0001
    157  N         30.0320   19.2800   31.9650 N.am   68  PRO68      -0.2729
    158  CA        30.9300   20.3740   31.5920 C.3    68  PRO68       0.1401
    159  C         32.1370   19.9460   30.7560 C.2    68  PRO68       0.2269
    160  O         32.6970   18.8620   30.9650 O.2    68  PRO68      -0.2865
    161  CB        31.3830   20.9260   32.9480 C.3    68  PRO68       0.0296
    162  CG        30.2280   20.6000   33.8820 C.3    68  PRO68       0.0237
    163  CD        29.8030   19.2380   33.4290 C.3    68  PRO68       0.0939
    164  N         32.5770   18.9190   27.9040 N.3    70  ARG70      -0.1245
    165  CA        32.3770   17.8860   26.8960 C.3    70  ARG70       0.1563
    166  C         31.1820   18.2470   26.0320 C.2    70  ARG70       0.2260
    167  O         30.2130   18.8370   26.5210 O.2    70  ARG70      -0.2867
    168  CB        32.1560   16.5300   27.5640 C.3    70  ARG70       0.0307
    169  CG        33.4320   15.9570   28.1970 C.3    70  ARG70       0.0489
    170  CD        33.1310   15.1410   29.4550 C.3    70  ARG70       0.2205
    171  NE        32.7700   15.9890   30.5850 N.pl3  70  ARG70      -0.0865
    172  CZ        32.4660   15.5460   31.8050 C.cat  70  ARG70       0.5346
    173  NH1       32.4740   14.2450   32.0850 N.pl3  70  ARG70       0.1354
    174  NH2       32.1310   16.4120   32.7510 N.pl3  70  ARG70       0.1354
    175  N         28.7600    6.8300   26.7360 N.3   119  ILE119     -0.1245
    176  CA        28.7780    6.8380   28.2000 C.3   119  ILE119      0.1561
    177  C         27.5520    6.1600   28.7710 C.2   119  ILE119      0.2260
    178  O         27.3380    6.1380   29.9850 O.2   119  ILE119     -0.2867
    179  CB        28.9730    8.2610   28.7860 C.3   119  ILE119      0.0252
    180  CG1       27.7500    9.1440   28.4860 C.3   119  ILE119      0.0019
    181  CG2       30.2550    8.8760   28.2440 C.3   119  ILE119      0.0019
    182  CD1       27.6270   10.3580   29.3970 C.3   119  ILE119      0.0001
    183  N         24.5900    0.7110   25.0940 N.3   125  TYR125     -0.1241
    184  CA        25.7400   -0.2030   25.1010 C.3   125  TYR125      0.1605
    185  C         25.5370   -1.4340   24.2150 C.2   125  TYR125      0.2264
    186  O         26.4800   -1.8970   23.5790 O.2   125  TYR125     -0.2867
    187  CB        26.0700   -0.6550   26.5200 C.3   125  TYR125      0.0534
    188  CG        26.6470    0.4120   27.4370 C.ar  125  TYR125     -0.0201
    189  CD1       27.6260    1.3030   26.9880 C.ar  125  TYR125     -0.0009
    190  CD2       26.2360    0.4980   28.7690 C.ar  125  TYR125     -0.0009
    191  CE1       28.1800    2.2400   27.8350 C.ar  125  TYR125      0.0417
    192  CE2       26.7650    1.4370   29.6220 C.ar  125  TYR125      0.0417
    193  CZ        27.7430    2.3080   29.1570 C.ar  125  TYR125      0.1957
    194  OH        28.2640    3.2490   29.9990 O.3   125  TYR125     -0.2866
    195  N         35.3890   -0.3390   33.9860 N.3   138  THR138     -0.1218
    196  CA        35.7420   -0.4320   35.3740 C.3   138  THR138      0.1862
    197  C         35.0760   -1.7200   35.8740 C.2   138  THR138      0.2287
    198  O         33.8440   -1.8150   35.9530 O.2   138  THR138     -0.2866
    199  CB        35.2930    0.8220   36.1470 C.3   138  THR138      0.1770
    200  OG1       35.8060    1.9960   35.4890 O.3   138  THR138     -0.2211
    201  CG2       35.7990    0.7830   37.5790 C.3   138  THR138      0.0375
@<TRIPOS>BOND
     1   186   185    2
     2   185   184    1
     3   183   184    1
     4   184   187    1
     5   166   167    2
     6   166   165    1
     7   187   188    1
     8   175   176    1
     9   165   168    1
    10   165   164    1
    11   189   188   ar
    12   189   191   ar
    13   188   190   ar
    14     1     2    1
    15   168   169    1
    16   191   193   ar
    17   169   170    1
    18   176   177    1
    19   176   179    1
    20   181   179    1
    21   180   179    1
    22   180   182    1
    23   190   192   ar
    24   177   178    2
    25     2     5    1
    26     2     3    1
    27     7     5    1
    28   193   192   ar
    29   193   194    1
    30     5     6    1
    31   170   171    1
    32     4     3    2
    33   152   151    2
    34     3     9   am
    35   110   111    1
    36   114   115    1
    37   114   116    1
    38   114   111    1
    39    14    13    1
    40     6     8    1
    41   171   172    2
    42   159   160    2
    43   159   158    1
    44     9    10    1
    45    13    10    1
    46    13    15    1
    47   149   150    1
    48   151   150    1
    49   151   157   am
    50   111   112    1
    51   155   154    1
    52   153   150    1
    53   153   154    1
    54   112   113    2
    55   158   157    1
    56   158   161    1
    57    10    11    1
    58   154   156    1
    59   108   109   ar
    60   108   106   ar
    61   172   173    1
    62   172   174    1
    63   109   107   ar
    64   157   163    1
    65   130   128    1
    66   106   104   ar
    67    98    97    1
    68   102   101    2
    69    12    11    2
    70    11    16   am
    71   161   162    1
    72   107   105   ar
    73   163   162    1
    74    97    95   ar
    75    97    96   ar
    76   104   105   ar
    77   104   103    1
    78   128   127    1
    79    95    93   ar
    80   101   100    1
    81   195   196    1
    82    16    17    1
    83   117   118    1
    84    90    89    2
    85   100   103    1
    86   100    99    1
    87    96    94   ar
    88   127   129    1
    89   127   124    1
    90   141   140    2
    91   122   121    1
    92    93    92   ar
    93   140   139    1
    94   123   124    1
    95   123   119   am
    96   121   118    1
    97    17    18    1
    98    17    20    1
    99   196   197    1
   100   196   199    1
   101   118   119    1
   102    18    19    2
   103    89    99   am
   104    89    88    1
   105   200   199    1
   106    94    92   ar
   107   124   125    1
   108    92    91    1
   109   197   198    2
   110   126   125    2
   111   119   120    2
   112   199   201    1
   113   125   131   am
   114    78    76   ar
   115   139   138    1
   116   139   142    1
   117    88    91    1
   118    88    87    1
   119   134   133    2
   120    36    34    1
   121   142   143    1
   122    77    76   ar
   123   133   132    1
   124    76    75    1
   125    82    81    2
   126   131   132    1
   127   131   137    1
   128    86    85    1
   129    21    22    1
   130    73    72    2
   131    85    84    1
   132    24    23    2
   133   132   135    1
   134   137   136    1
   135    34    35    1
   136    34    33    1
   137    22    23    1
   138    22    25    1
   139    81    80    1
   140    23    29   am
   141    48    50   ar
   142    48    46   ar
   143    50    49   ar
   144   143   144   ar
   145   143   145   ar
   146    75    74    1
   147    80    79    1
   148    80    83    1
   149    29    30    1
   150    72    79   am
   151    72    71    1
   152   144   146   ar
   153    27    26    2
   154    30    33    1
   155    30    31    1
   156   135   136    1
   157    84    83    1
   158    46    45   ar
   159    46    44   ar
   160    26    25    1
   161    26    28   am
   162   145   147   ar
   163    49    47   ar
   164    71    74    1
   165    71    70    1
   166    45    43   ar
   167   146   148   ar
   168    31    32    2
   169    44    47   ar
   170    44    42   ar
   171   147   148   ar
   172    43    42   ar
   173    42    41    1
   174    65    64    2
   175    40    39    2
   176    37    38    1
   177    68    67    1
   178    66    67    1
   179    66    63    1
   180    64    63    1
   181    41    38    1
   182    39    38    1
   183    39    51   am
   184    62    63    1
   185    62    53   am
   186    67    69    1
   187    52    51    1
   188    52    53    1
   189    52    55    1
   190    61    59    1
   191    53    54    2
   192    60    59    1
   193    56    55    1
   194    56    57    1
   195    59    58    2
   196    58    57    1
