@<TRIPOS>MOLECULE
tmp/3rocA00.pdb
 190 178 0 0 0
SMALL
GASTEIGER

@<TRIPOS>ATOM
      1  N         43.9580   36.2820   28.8380 N.3    25  PRO25      -0.2102
      2  CA        42.8800   35.3250   28.5550 C.3    25  PRO25       0.1504
      3  C         41.5170   35.8060   29.0580 C.2    25  PRO25       0.2575
      4  O         41.3890   36.2520   30.2010 O.2    25  PRO25      -0.2718
      5  CB        43.3330   34.0750   29.3120 C.3    25  PRO25       0.0282
      6  CG        44.8240   34.1590   29.2280 C.3    25  PRO25       0.0208
      7  CD        45.0710   35.6180   29.5430 C.3    25  PRO25       0.0893
      8  N         40.5060   35.7390   28.1960 N.am   26  VAL26      -0.1980
      9  CA        39.1650   36.1580   28.5830 C.3    26  VAL26       0.1595
     10  C         38.1920   34.9840   28.6260 C.2    26  VAL26       0.2287
     11  O         37.3610   34.8930   29.5310 O.2    26  VAL26      -0.2864
     12  CB        38.6140   37.2880   27.6730 C.3    26  VAL26       0.0276
     13  CG1       39.4010   38.5730   27.8940 C.3    26  VAL26       0.0022
     14  CG2       38.6720   36.8860   26.2200 C.3    26  VAL26       0.0022
     15  N         36.4950   31.1930   26.2440 N.3    28  SER28      -0.1202
     16  CA        36.3840   30.3320   25.0710 C.3    28  SER28       0.2020
     17  C         35.5610   31.0090   23.9760 C.2    28  SER28       0.2619
     18  O         34.4270   31.4340   24.2120 O.2    28  SER28      -0.2717
     19  CB        35.7460   29.0020   25.4710 C.3    28  SER28       0.2103
     20  OG        36.4220   28.4460   26.5850 O.3    28  SER28      -0.2182
     21  N         36.1380   31.1130   22.7820 N.am   29  GLY29      -0.1956
     22  CA        35.4410   31.7480   21.6780 C.3    29  GLY29       0.1869
     23  C         34.8990   30.7690   20.6540 C.2    29  GLY29       0.2309
     24  O         34.8610   31.0800   19.4630 O.2    29  GLY29      -0.2863
     25  N         40.7060   32.7070   23.4530 N.3    34  VAL34      -0.1245
     26  CA        40.6860   34.1540   23.2380 C.3    34  VAL34       0.1561
     27  C         41.4020   34.9810   24.3000 C.2    34  VAL34       0.2260
     28  O         41.2590   34.7540   25.4990 O.2    34  VAL34      -0.2867
     29  CB        39.2320   34.6890   23.1020 C.3    34  VAL34       0.0252
     30  CG1       39.2420   36.1800   22.8330 C.3    34  VAL34       0.0019
     31  CG2       38.5160   33.9750   21.9720 C.3    34  VAL34       0.0019
     32  N         42.4010   39.1350   25.3720 N.3    36  ALA36      -0.1245
     33  CA        42.1820   40.5590   25.1750 C.3    36  ALA36       0.1562
     34  C         43.6270   41.0730   25.0530 C.2    36  ALA36       0.2260
     35  O         44.5270   40.5310   25.7000 O.2    36  ALA36      -0.2867
     36  CB        41.5040   41.1630   26.3970 C.3    36  ALA36       0.0290
     37  N         40.5560   41.7530   20.5200 N.3    47  ALA47      -0.1231
     38  CA        40.4100   40.3860   20.9990 C.3    47  ALA47       0.1694
     39  C         41.1570   39.5480   19.9600 C.2    47  ALA47       0.2592
     40  O         41.0050   39.7600   18.7590 O.2    47  ALA47      -0.2718
     41  CB        38.9300   39.9790   21.0670 C.3    47  ALA47       0.0304
     42  N         42.0000   38.6260   20.4250 N.am   48  VAL48      -0.1966
     43  CA        42.7670   37.7760   19.5200 C.3    48  VAL48       0.1727
     44  C         42.3400   36.3300   19.7920 C.2    48  VAL48       0.2616
     45  O         42.3390   35.8720   20.9330 O.2    48  VAL48      -0.2715
     46  CB        44.3020   37.9400   19.7400 C.3    48  VAL48       0.0290
     47  CG1       45.0690   37.0980   18.7370 C.3    48  VAL48       0.0023
     48  CG2       44.7110   39.4040   19.5950 C.3    48  VAL48       0.0023
     49  N         41.9700   35.6270   18.7320 N.am   49  LYS49      -0.1977
     50  CA        41.4990   34.2550   18.8530 C.3    49  LYS49       0.1596
     51  C         42.4580   33.3250   18.1250 C.2    49  LYS49       0.2287
     52  O         42.7600   33.5440   16.9530 O.2    49  LYS49      -0.2864
     53  CB        40.1050   34.1500   18.2160 C.3    49  LYS49       0.0298
     54  CG        39.4040   32.8020   18.3350 C.3    49  LYS49       0.0038
     55  CD        38.1050   32.8420   17.5050 C.3    49  LYS49       0.0206
     56  CE        37.2520   31.6110   17.6760 C.3    49  LYS49       0.1093
     57  NZ        37.9270   30.3770   17.2300 N.3    49  LYS49      -0.1314
     58  N         35.4910   29.6140    8.6680 N.3    67  GLU67      -0.1245
     59  CA        35.5010   30.7390    9.5960 C.3    67  GLU67       0.1567
     60  C         36.2890   31.9220    9.0350 C.2    67  GLU67       0.2260
     61  O         35.8380   33.0780    9.1070 O.2    67  GLU67      -0.2867
     62  CB        36.0440   30.3290   10.9530 C.3    67  GLU67       0.0388
     63  CG        35.9830   31.4950   11.9460 C.3    67  GLU67       0.1160
     64  CD        36.2440   31.1170   13.3810 C.2    67  GLU67       0.3649
     65  OE1       36.0390   31.9950   14.2530 O.co2  67  GLU67      -0.2457
     66  OE2       36.6470   29.9650   13.6570 O.co2  67  GLU67      -0.2457
     67  N         34.6610   35.5650    8.2510 N.3    71  LEU71      -0.1245
     68  CA        35.1770   36.7590    8.9340 C.3    71  LEU71       0.1561
     69  C         35.7490   37.7990    7.9680 C.2    71  LEU71       0.2260
     70  O         35.6230   39.0090    8.2130 O.2    71  LEU71      -0.2867
     71  CB        36.1980   36.3710   10.0070 C.3    71  LEU71       0.0270
     72  CG        35.6470   35.7210   11.2800 C.3    71  LEU71       0.0019
     73  CD1       36.7660   35.1050   12.1080 C.3    71  LEU71       0.0001
     74  CD2       34.8920   36.7650   12.1100 C.3    71  LEU71       0.0001
     75  N         30.7280   40.7740   13.9770 N.3    80  ILE80      -0.1245
     76  CA        32.1670   40.6620   14.2230 C.3    80  ILE80       0.1561
     77  C         32.8840   40.5400   12.8790 C.2    80  ILE80       0.2260
     78  O         32.5050   39.7480   12.0160 O.2    80  ILE80      -0.2867
     79  CB        32.4740   39.4600   15.1570 C.3    80  ILE80       0.0252
     80  CG1       31.8960   39.7200   16.5530 C.3    80  ILE80       0.0019
     81  CG2       33.9970   39.2050   15.2530 C.3    80  ILE80       0.0019
     82  CD1       32.7240   40.6550   17.4490 C.3    80  ILE80       0.0001
     83  N         36.9960   41.4210   10.7970 N.3    82  LEU82      -0.1245
     84  CA        38.4330   41.2610   10.9720 C.3    82  LEU82       0.1561
     85  C         39.3100   42.4940   10.8690 C.2    82  LEU82       0.2260
     86  O         39.2980   43.1810    9.8580 O.2    82  LEU82      -0.2867
     87  CB        38.9480   40.2870    9.9320 C.3    82  LEU82       0.0270
     88  CG        38.7060   38.8070   10.1340 C.3    82  LEU82       0.0019
     89  CD1       39.3190   38.1040    8.9400 C.3    82  LEU82       0.0001
     90  CD2       39.3250   38.3220   11.4370 C.3    82  LEU82       0.0001
     91  N         43.2010   35.2350   14.6760 N.3   100  LEU100     -0.1231
     92  CA        42.2510   36.2200   14.1470 C.3   100  LEU100      0.1693
     93  C         42.0870   37.3540   15.1500 C.2   100  LEU100      0.2592
     94  O         42.0640   37.1210   16.3460 O.2   100  LEU100     -0.2718
     95  CB        40.8940   35.5290   13.9610 C.3   100  LEU100      0.0284
     96  CG        40.9340   34.2420   13.1340 C.3   100  LEU100      0.0019
     97  CD1       39.6970   33.3900   13.4600 C.3   100  LEU100      0.0001
     98  CD2       40.9820   34.5400   11.6820 C.3   100  LEU100      0.0001
     99  N         42.0050   38.5950   14.6790 N.am  101  VAL101     -0.1966
    100  CA        41.8270   39.6690   15.6500 C.3   101  VAL101      0.1727
    101  C         40.6930   40.6160   15.2650 C.2   101  VAL101      0.2617
    102  O         40.4700   40.8830   14.0930 O.2   101  VAL101     -0.2715
    103  CB        43.1840   40.3850   16.0640 C.3   101  VAL101      0.0290
    104  CG1       44.3750   39.8580   15.2850 C.3   101  VAL101      0.0023
    105  CG2       43.0760   41.8950   16.0260 C.3   101  VAL101      0.0023
    106  N         39.9370   41.0330   16.2730 N.am  102  THR102     -0.1937
    107  CA        38.8130   41.9380   16.0770 C.3   102  THR102      0.2028
    108  C         38.7790   42.9590   17.2170 C.2   102  THR102      0.2642
    109  O         39.5140   42.8300   18.1890 O.2   102  THR102     -0.2714
    110  CB        37.4750   41.1500   16.0640 C.3   102  THR102      0.1808
    111  OG1       36.4020   42.0090   15.6370 O.3   102  THR102     -0.2208
    112  CG2       37.1620   40.6020   17.4150 C.3   102  THR102      0.0379
    113  N         37.9050   43.9580   17.1100 N.am  103  HIS103     -0.1959
    114  CA        37.7760   44.9560   18.1810 C.3   103  HIS103      0.1787
    115  C         37.2290   44.2810   19.4430 C.2   103  HIS103      0.2620
    116  O         36.2220   43.5630   19.3820 O.2   103  HIS103     -0.2715
    117  CB        36.7440   46.0360   17.8220 C.3   103  HIS103      0.0785
    118  CG        37.0820   46.8710   16.6290 C.ar  103  HIS103      0.0821
    119  ND1       36.6150   46.5830   15.3640 N.ar  103  HIS103     -0.2267
    120  CD2       37.7460   48.0470   16.5250 C.ar  103  HIS103      0.1154
    121  CE1       36.9690   47.5480   14.5340 C.ar  103  HIS103      0.1986
    122  NE2       37.6570   48.4480   15.2140 N.ar  103  HIS103     -0.2212
    123  N         37.8170   44.5700   20.5970 N.am  104  LEU104     -0.1963
    124  CA        37.3340   43.9980   21.8510 C.3   104  LEU104      0.1728
    125  C         36.0190   44.6660   22.2600 C.2   104  LEU104      0.2616
    126  O         35.8800   45.8880   22.1860 O.2   104  LEU104     -0.2715
    127  CB        38.3680   44.1720   22.9730 C.3   104  LEU104      0.0311
    128  CG        37.9960   43.6510   24.3590 C.3   104  LEU104      0.0022
    129  CD1       37.9750   42.1160   24.3510 C.3   104  LEU104      0.0001
    130  CD2       39.0080   44.1510   25.3880 C.3   104  LEU104      0.0001
    131  N         35.0310   43.8460   22.6060 N.am  105  MET105     -0.1963
    132  CA        33.7340   44.3450   23.0460 C.3   105  MET105      0.1736
    133  C         33.7110   44.3100   24.5660 C.2   105  MET105      0.2617
    134  O         33.3580   45.3020   25.2100 O.2   105  MET105     -0.2715
    135  CB        32.6090   43.5300   22.4130 C.3   105  MET105      0.0427
    136  CG        32.5580   43.6890   20.8900 C.3   105  MET105      0.0599
    137  SD        32.2710   45.3730   20.2830 S.3   105  MET105     -0.1393
    138  CE        30.5030   45.5440   20.6560 C.3   105  MET105      0.0692
    139  N         34.1380   43.1880   25.1440 N.am  106  GLY106     -0.1940
    140  CA        34.2430   43.0980   26.5890 C.3   106  GLY106      0.2014
    141  C         33.1800   42.4090   27.4080 C.2   106  GLY106      0.2639
    142  O         33.3710   42.1770   28.6000 O.2   106  GLY106     -0.2714
    143  N         32.0660   42.0580   26.7830 N.am  107  ALA107     -0.1963
    144  CA        30.9950   41.3960   27.5140 C.3   107  ALA107      0.1728
    145  C         30.0440   40.7540   26.5300 C.2   107  ALA107      0.2616
    146  O         30.1770   40.9460   25.3320 O.2   107  ALA107     -0.2715
    147  CB        30.2360   42.4200   28.3490 C.3   107  ALA107      0.0334
    148  N         29.1300   39.9380   27.0410 N.am  108  ASP108     -0.1971
    149  CA        28.1180   39.3290   26.1840 C.3   108  ASP108      0.1709
    150  C         26.7460   39.7010   26.7500 C.2   108  ASP108      0.2293
    151  O         26.6680   40.3050   27.8240 O.2   108  ASP108     -0.2864
    152  CB        28.3140   37.8080   26.0170 C.3   108  ASP108      0.1436
    153  CG        28.1240   37.0150   27.3070 C.2   108  ASP108      0.3671
    154  OD1       27.4910   37.5030   28.2600 O.co2 108  ASP108     -0.2456
    155  OD2       28.5980   35.8580   27.3530 O.co2 108  ASP108     -0.2456
    156  N         25.9800   38.8580   30.3590 N.3   111  ASN111     -0.1240
    157  CA        26.6250   39.7260   31.3390 C.3   111  ASN111      0.1653
    158  C         25.8220   41.0100   31.5450 C.2   111  ASN111      0.2266
    159  O         26.1780   41.8490   32.3730 O.2   111  ASN111     -0.2867
    160  CB        28.0500   40.0780   30.8880 C.3   111  ASN111      0.1155
    161  CG        28.9380   38.8510   30.7100 C.2   111  ASN111      0.2627
    162  OD1       29.9730   38.9180   30.0440 O.2   111  ASN111     -0.2716
    163  ND2       28.5400   37.7270   31.3020 N.am  111  ASN111     -0.0877
    164  N         25.1470   34.4010   24.7260 N.3   150  SER150     -0.1217
    165  CA        26.6020   34.2410   24.7700 C.3   150  SER150      0.1889
    166  C         27.3280   34.5120   23.4460 C.2   150  SER150      0.2288
    167  O         28.5610   34.6000   23.4290 O.2   150  SER150     -0.2866
    168  CB        26.9790   32.8570   25.3030 C.3   150  SER150      0.2089
    169  OG        26.5270   31.8410   24.4350 O.3   150  SER150     -0.2183
    170  N         28.0580   39.9250   21.5600 N.3   153  ALA153     -0.1245
    171  CA        29.0580   40.7270   22.2660 C.3   153  ALA153      0.1562
    172  C         28.5510   42.1460   22.3910 C.2   153  ALA153      0.2260
    173  O         28.0820   42.7340   21.4190 O.2   153  ALA153     -0.2867
    174  CB        30.3650   40.7080   21.4980 C.3   153  ALA153      0.0290
    175  N         28.5760   37.3610   17.0740 N.3   163  LEU163     -0.1231
    176  CA        29.7580   36.5320   16.8500 C.3   163  LEU163      0.1693
    177  C         29.3960   35.0640   16.6200 C.2   163  LEU163      0.2592
    178  O         28.2610   34.6500   16.8610 O.2   163  LEU163     -0.2718
    179  CB        30.7940   36.6730   17.9690 C.3   163  LEU163      0.0284
    180  CG        30.5100   36.5320   19.4550 C.3   163  LEU163      0.0019
    181  CD1       31.8000   36.2590   20.2090 C.3   163  LEU163      0.0001
    182  CD2       29.8970   37.7980   19.9600 C.3   163  LEU163      0.0001
    183  N         30.3410   34.3210   16.0460 N.am  164  ASP164     -0.1974
    184  CA        30.1740   32.8860   15.7950 C.3   164  ASP164      0.1709
    185  C         29.0910   32.5140   14.7790 C.2   164  ASP164      0.2293
    186  O         28.5320   31.4240   14.8560 O.2   164  ASP164     -0.2864
    187  CB        29.9090   32.1450   17.1150 C.3   164  ASP164      0.1436
    188  CG        31.0740   32.2390   18.1020 C.2   164  ASP164      0.3671
    189  OD1       32.1860   32.6710   17.7130 O.co2 164  ASP164     -0.2456
    190  OD2       30.8720   31.8780   19.2830 O.co2 164  ASP164     -0.2456
@<TRIPOS>BOND
     1    69    70    2
     2    69    68    1
     3    67    68    1
     4    58    59    1
     5    68    71    1
     6    89    88    1
     7    60    61    2
     8    60    59    1
     9    59    62    1
    10    86    85    2
    11    87    88    1
    12    87    84    1
    13    71    72    1
    14    88    90    1
    15    83    84    1
    16    85    84    1
    17    62    63    1
    18    72    73    1
    19    72    74    1
    20    98    96    1
    21    63    64    1
    22    78    77    2
    23    77    76    1
    24    96    97    1
    25    96    95    1
    26    64    66   ar
    27    64    65   ar
    28    95    92    1
    29    75    76    1
    30   102   101    2
    31    92    91    1
    32    92    93    1
    33    76    79    1
    34   121   122   ar
    35   121   119   ar
    36    99    93   am
    37    99   100    1
    38   185   186    2
    39   185   184    1
    40    93    94    2
    41    79    81    1
    42    79    80    1
    43   122   120   ar
    44   101   100    1
    45   101   106   am
    46   104   103    1
    47   119   118   ar
    48   111   110    1
    49   100   103    1
    50   184   183    1
    51   184   187    1
    52   105   103    1
    53   183   177   am
    54   110   107    1
    55   110   112    1
    56   107   106    1
    57   107   108    1
    58   120   118   ar
    59    80    82    1
    60   177   176    1
    61   177   178    2
    62   118   117    1
    63   176   175    1
    64   176   179    1
    65    52    51    2
    66   113   108   am
    67   113   114    1
    68   187   188    1
    69   108   109    2
    70    57    56    1
    71    55    56    1
    72    55    54    1
    73   189   188   ar
    74   117   114    1
    75   179   180    1
    76   188   190   ar
    77    51    50    1
    78   114   115    1
    79    53    54    1
    80    53    50    1
    81    49    50    1
    82    49    44   am
    83    47    46    1
    84    40    39    2
    85   116   115    2
    86   115   123   am
    87   180   182    1
    88   180   181    1
    89    24    23    2
    90    43    46    1
    91    43    44    1
    92    43    42    1
    93    48    46    1
    94    44    45    2
    95    39    42   am
    96    39    38    1
    97   137   138    1
    98   137   136    1
    99    37    38    1
   100   123   124    1
   101    23    22    1
   102   136   135    1
   103    38    41    1
   104   173   172    2
   105   174   171    1
   106   170   171    1
   107    22    21    1
   108   124   125    1
   109   124   127    1
   110    31    29    1
   111   126   125    2
   112   125   131   am
   113   171   172    1
   114   135   132    1
   115   131   132    1
   116    21    17   am
   117    30    29    1
   118   127   128    1
   119   132   133    1
   120    29    26    1
   121    26    25    1
   122    26    27    1
   123   167   166    2
   124   166   165    1
   125    17    18    2
   126    17    16    1
   127    27    28    2
   128   129   128    1
   129   128   130    1
   130   169   168    1
   131   133   139   am
   132   133   134    2
   133   164   165    1
   134   165   168    1
   135    34    33    1
   136    34    35    2
   137    16    19    1
   138    16    15    1
   139   139   140    1
   140    33    32    1
   141    33    36    1
   142   146   145    2
   143    19    20    1
   144   152   149    1
   145   152   153    1
   146   149   150    1
   147   149   148    1
   148    14    12    1
   149   145   148   am
   150   145   144    1
   151   140   141    1
   152   150   151    2
   153   143   141   am
   154   143   144    1
   155   153   155   ar
   156   153   154   ar
   157   141   142    2
   158   144   147    1
   159    12    13    1
   160    12     9    1
   161     8     9    1
   162     8     3   am
   163     2     1    1
   164     2     3    1
   165     2     5    1
   166     9    10    1
   167    10    11    2
   168     1     7    1
   169     3     4    2
   170     6     5    1
   171     6     7    1
   172   162   161    2
   173   156   157    1
   174   161   160    1
   175   161   163   am
   176   160   157    1
   177   157   158    1
   178   158   159    2
