@<TRIPOS>MOLECULE
tmp/3rodD01.pdb
 117 112 0 0 0
SMALL
GASTEIGER

@<TRIPOS>ATOM
      1  N        -13.6550  -69.9750  -27.2460 N.3    16  TYR16      -0.1241
      2  CA       -13.1030  -68.6940  -27.6620 C.3    16  TYR16       0.1605
      3  C        -12.6370  -68.0050  -26.4000 C.2    16  TYR16       0.2264
      4  O        -11.4510  -67.8250  -26.1950 O.2    16  TYR16      -0.2867
      5  CB       -14.1750  -67.8740  -28.3770 C.3    16  TYR16       0.0534
      6  CG       -13.7830  -66.4930  -28.9280 C.ar   16  TYR16      -0.0201
      7  CD1      -12.9960  -66.3520  -30.0670 C.ar   16  TYR16      -0.0009
      8  CD2      -14.2760  -65.3220  -28.3520 C.ar   16  TYR16      -0.0009
      9  CE1      -12.6830  -65.0690  -30.5920 C.ar   16  TYR16       0.0417
     10  CE2      -13.9690  -64.0700  -28.8710 C.ar   16  TYR16       0.0417
     11  CZ       -13.1720  -63.9450  -29.9790 C.ar   16  TYR16       0.1957
     12  OH       -12.8820  -62.6980  -30.4730 O.3    16  TYR16      -0.2866
     13  N         -8.8330  -67.0920  -25.9720 N.3    20  TYR20      -0.1227
     14  CA        -8.2470  -65.7820  -26.2320 C.3    20  TYR20       0.1736
     15  C         -8.2360  -64.8330  -25.0480 C.2    20  TYR20       0.2595
     16  O         -7.5500  -63.8040  -25.1000 O.2    20  TYR20      -0.2718
     17  CB        -8.9710  -65.0850  -27.3700 C.3    20  TYR20       0.0548
     18  CG        -8.7240  -65.7510  -28.6700 C.ar   20  TYR20      -0.0200
     19  CD1       -7.8350  -65.2110  -29.5920 C.ar   20  TYR20      -0.0009
     20  CD2       -9.3500  -66.9540  -28.9790 C.ar   20  TYR20      -0.0009
     21  CE1       -7.5960  -65.8460  -30.7950 C.ar   20  TYR20       0.0417
     22  CE2       -9.1180  -67.5850  -30.1670 C.ar   20  TYR20       0.0417
     23  CZ        -8.2410  -67.0390  -31.0770 C.ar   20  TYR20       0.1957
     24  OH        -8.0210  -67.6870  -32.2800 O.3    20  TYR20      -0.2866
     25  N         -8.9750  -65.1480  -23.9870 N.am   21  TYR21      -0.1976
     26  CA        -9.2820  -64.1210  -23.0060 C.3    21  TYR21       0.1639
     27  C         -8.9180  -64.4200  -21.5560 C.2    21  TYR21       0.2290
     28  O         -9.5150  -63.8680  -20.6140 O.2    21  TYR21      -0.2864
     29  CB       -10.7420  -63.7030  -23.1940 C.3    21  TYR21       0.0560
     30  CG       -10.8650  -62.9040  -24.4680 C.ar   21  TYR21      -0.0198
     31  CD1      -10.2300  -61.6730  -24.5900 C.ar   21  TYR21      -0.0009
     32  CD2      -11.5500  -63.4040  -25.5760 C.ar   21  TYR21      -0.0009
     33  CE1      -10.2960  -60.9590  -25.7570 C.ar   21  TYR21       0.0417
     34  CE2      -11.6160  -62.6730  -26.7590 C.ar   21  TYR21       0.0417
     35  CZ       -10.9900  -61.4510  -26.8390 C.ar   21  TYR21       0.1957
     36  OH       -11.0420  -60.6910  -27.9800 O.3    21  TYR21      -0.2866
     37  N        -12.5620  -56.7350  -33.6860 N.3   160  LEU160     -0.1231
     38  CA       -12.2110  -58.0180  -34.2800 C.3   160  LEU160      0.1693
     39  C        -13.4550  -58.6790  -34.8670 C.2   160  LEU160      0.2592
     40  O        -13.7290  -59.8660  -34.6070 O.2   160  LEU160     -0.2718
     41  CB       -11.5840  -58.9180  -33.2260 C.3   160  LEU160      0.0284
     42  CG       -10.1050  -58.7000  -32.9340 C.3   160  LEU160      0.0019
     43  CD1       -9.7210  -59.2490  -31.5640 C.3   160  LEU160      0.0001
     44  CD2       -9.3000  -59.3760  -34.0190 C.3   160  LEU160      0.0001
     45  N        -14.2380  -57.9370  -35.6460 N.am  161  CYS161     -0.1970
     46  CA       -15.4860  -58.5280  -36.0830 C.3   161  CYS161      0.1712
     47  C        -15.6340  -58.5400  -37.6060 C.2   161  CYS161      0.2296
     48  O        -15.8340  -59.5940  -38.2080 O.2   161  CYS161     -0.2864
     49  CB       -16.6730  -57.8650  -35.3820 C.3   161  CYS161      0.0983
     50  SG       -18.2280  -58.1670  -36.2390 S.3   161  CYS161     -0.0798
     51  N        -13.4470  -58.3660  -40.1360 N.3   163  ASP163     -0.1225
     52  CA       -12.6020  -59.2820  -40.8780 C.3   163  ASP163      0.1805
     53  C        -13.1970  -60.6790  -40.9370 C.2   163  ASP163      0.2597
     54  O        -12.8590  -61.4570  -41.8130 O.2   163  ASP163     -0.2718
     55  CB       -11.1990  -59.3400  -40.2630 C.3   163  ASP163      0.1424
     56  CG       -10.3180  -58.1780  -40.6960 C.2   163  ASP163      0.3668
     57  OD1      -10.8410  -57.1990  -41.2750 O.co2 163  ASP163     -0.2456
     58  OD2       -9.0920  -58.2540  -40.4560 O.co2 163  ASP163     -0.2456
     59  N        -14.0850  -61.0070  -40.0070 N.am  164  ALA164     -0.1979
     60  CA       -14.6150  -62.3660  -39.9770 C.3   164  ALA164      0.1597
     61  C        -16.0610  -62.4270  -40.4450 C.2   164  ALA164      0.2287
     62  O        -16.6670  -63.5000  -40.4800 O.2   164  ALA164     -0.2864
     63  CB       -14.4670  -62.9680  -38.5940 C.3   164  ALA164      0.0319
     64  N         -9.1200  -54.3580  -35.4270 N.3   193  ASP193     -0.1225
     65  CA        -9.2000  -55.6390  -36.0880 C.3   193  ASP193      0.1805
     66  C         -7.8160  -56.0810  -36.5430 C.2   193  ASP193      0.2597
     67  O         -6.8700  -55.3030  -36.4470 O.2   193  ASP193     -0.2718
     68  CB       -10.1580  -55.5210  -37.2650 C.3   193  ASP193      0.1424
     69  CG       -10.9950  -56.7760  -37.4350 C.2   193  ASP193      0.3668
     70  OD1      -10.4790  -57.8960  -37.1310 O.co2 193  ASP193     -0.2456
     71  OD2      -12.1740  -56.6500  -37.8560 O.co2 193  ASP193     -0.2456
     72  N         -7.6810  -57.3170  -37.0310 N.am  194  ALA194     -0.1979
     73  CA        -6.3490  -57.8600  -37.4150 C.3   194  ALA194      0.1597
     74  C         -5.8520  -57.3640  -38.7580 C.2   194  ALA194      0.2287
     75  O         -6.6320  -57.2680  -39.7110 O.2   194  ALA194     -0.2864
     76  CB        -6.3720  -59.3620  -37.4360 C.3   194  ALA194      0.0319
     77  N         -4.6360  -60.6390  -42.1660 N.3   197  SER197     -0.1217
     78  CA        -4.9630  -61.9050  -41.5230 C.3   197  SER197      0.1889
     79  C         -5.9970  -62.6570  -42.3430 C.2   197  SER197      0.2288
     80  O         -6.8960  -62.0400  -42.9100 O.2   197  SER197     -0.2866
     81  CB        -5.5120  -61.6450  -40.1360 C.3   197  SER197      0.2089
     82  OG        -5.8370  -62.8660  -39.5000 O.3   197  SER197     -0.2183
     83  N         -8.6050  -67.5430  -38.1730 N.3   200  TYR200     -0.1241
     84  CA        -8.2630  -67.6070  -36.7440 C.3   200  TYR200      0.1605
     85  C         -8.8380  -68.8710  -36.0920 C.2   200  TYR200      0.2264
     86  O         -9.9990  -69.2230  -36.3070 O.2   200  TYR200     -0.2867
     87  CB        -8.6850  -66.3170  -35.9810 C.3   200  TYR200      0.0534
     88  CG       -10.1690  -66.0300  -35.9970 C.ar  200  TYR200     -0.0201
     89  CD1      -10.9740  -66.3270  -34.9040 C.ar  200  TYR200     -0.0009
     90  CD2      -10.7720  -65.4690  -37.1110 C.ar  200  TYR200     -0.0009
     91  CE1      -12.3430  -66.0690  -34.9240 C.ar  200  TYR200      0.0417
     92  CE2      -12.1470  -65.2180  -37.1350 C.ar  200  TYR200      0.0417
     93  CZ       -12.9160  -65.5200  -36.0410 C.ar  200  TYR200      0.1957
     94  OH       -14.2620  -65.2710  -36.0830 O.3   200  TYR200     -0.2866
     95  N        -11.1510  -64.9260  -42.6180 N.3   209  SER209     -0.1217
     96  CA       -10.8730  -63.5180  -42.3150 C.3   209  SER209      0.1889
     97  C        -10.2460  -62.7410  -43.5030 C.2   209  SER209      0.2288
     98  O         -9.1920  -63.1110  -44.0310 O.2   209  SER209     -0.2866
     99  CB        -9.9940  -63.4030  -41.0470 C.3   209  SER209      0.2089
    100  OG        -9.4230  -62.0810  -40.9510 O.3   209  SER209     -0.2183
    101  N         -0.9560  -62.8940  -32.9300 N.3   238  TYR238     -0.1241
    102  CA        -1.3860  -64.0410  -32.1360 C.3   238  TYR238      0.1605
    103  C         -0.3330  -65.1180  -32.3240 C.2   238  TYR238      0.2264
    104  O          0.5080  -65.0270  -33.2300 O.2   238  TYR238     -0.2867
    105  CB        -2.7660  -64.5530  -32.5800 C.3   238  TYR238      0.0534
    106  CG        -3.9230  -63.6190  -32.2540 C.ar  238  TYR238     -0.0201
    107  CD1       -4.3430  -63.4310  -30.9330 C.ar  238  TYR238     -0.0009
    108  CD2       -4.6010  -62.9290  -33.2620 C.ar  238  TYR238     -0.0009
    109  CE1       -5.4080  -62.5800  -30.6250 C.ar  238  TYR238      0.0417
    110  CE2       -5.6620  -62.0770  -32.9590 C.ar  238  TYR238      0.0417
    111  CZ        -6.0560  -61.9070  -31.6400 C.ar  238  TYR238      0.1957
    112  OH        -7.1050  -61.0740  -31.3360 O.3   238  TYR238     -0.2866
    113  N         -3.4910  -67.9160  -35.1490 N.3   243  ALA243     -0.1245
    114  CA        -3.6870  -67.2110  -36.4320 C.3   243  ALA243      0.1562
    115  C         -2.3880  -66.8090  -37.1560 C.2   243  ALA243      0.2260
    116  O         -1.2950  -66.8720  -36.5960 O.2   243  ALA243     -0.2867
    117  CB        -4.5890  -65.9870  -36.2480 C.3   243  ALA243      0.0290
@<TRIPOS>BOND
     1    98    97    2
     2    97    96    1
     3    80    79    2
     4    95    96    1
     5    79    78    1
     6    96    99    1
     7    77    78    1
     8    54    53    2
     9    78    81    1
    10    57    56   ar
    11    99   100    1
    12    53    52    1
    13    53    59   am
    14    52    55    1
    15    52    51    1
    16    56    58   ar
    17    56    55    1
    18    62    61    2
    19    61    60    1
    20    81    82    1
    21    59    60    1
    22    60    63    1
    23    75    74    2
    24    74    73    1
    25    48    47    2
    26    83    84    1
    27    71    69   ar
    28    47    46    1
    29    76    73    1
    30    69    68    1
    31    69    70   ar
    32    73    72    1
    33    68    65    1
    34   115   116    2
    35   115   114    1
    36    92    90   ar
    37    92    93   ar
    38    90    88   ar
    39    72    66   am
    40    84    85    1
    41    84    87    1
    42    66    67    2
    43    66    65    1
    44   114   117    1
    45   114   113    1
    46    86    85    2
    47    50    49    1
    48    65    64    1
    49    46    45    1
    50    46    49    1
    51    94    93    1
    52    93    91   ar
    53    88    87    1
    54    88    89   ar
    55    45    39   am
    56    91    89   ar
    57    39    40    2
    58    39    38    1
    59    38    37    1
    60    38    41    1
    61    44    42    1
    62   108   110   ar
    63   108   106   ar
    64   104   103    2
    65    41    42    1
    66   110   111   ar
    67    42    43    1
    68   101   102    1
    69   105   106    1
    70   105   102    1
    71   103   102    1
    72    24    23    1
    73   106   107   ar
    74   111   112    1
    75   111   109   ar
    76    23    21   ar
    77    23    22   ar
    78   107   109   ar
    79    21    19   ar
    80     9     7   ar
    81     9    11   ar
    82    12    11    1
    83    22    20   ar
    84     7     6   ar
    85    11    10   ar
    86    19    18   ar
    87    20    18   ar
    88     6     5    1
    89     6     8   ar
    90    10     8   ar
    91    18    17    1
    92     5     2    1
    93    36    35    1
    94     2     1    1
    95     2     3    1
    96    17    14    1
    97    35    34   ar
    98    35    33   ar
    99    34    32   ar
   100     3     4    2
   101    14    13    1
   102    14    15    1
   103    33    31   ar
   104    32    30   ar
   105    16    15    2
   106    15    25   am
   107    31    30   ar
   108    30    29    1
   109    25    26    1
   110    29    26    1
   111    26    27    1
   112    27    28    2
