@<TRIPOS>MOLECULE
tmp/3roeD00.pdb
 145 134 0 0 0
SMALL
GASTEIGER

@<TRIPOS>ATOM
      1  N         55.4640   31.0150  172.4900 N.3     5  LEU5       -0.1245
      2  CA        56.6010   31.6010  171.8000 C.3     5  LEU5        0.1561
      3  C         56.5210   33.1120  171.6940 C.2     5  LEU5        0.2260
      4  O         55.4600   33.6690  171.3680 O.2     5  LEU5       -0.2867
      5  CB        56.6990   31.0320  170.3920 C.3     5  LEU5        0.0270
      6  CG        56.9750   29.5430  170.2730 C.3     5  LEU5        0.0019
      7  CD1       57.2090   29.1330  168.7990 C.3     5  LEU5        0.0001
      8  CD2       58.1370   29.1590  171.1490 C.3     5  LEU5        0.0001
      9  N         59.2230   32.3260  167.3200 N.3    10  ALA10      -0.1245
     10  CA        58.4030   31.8260  166.2120 C.3    10  ALA10       0.1562
     11  C         59.0940   32.0250  164.8610 C.2    10  ALA10       0.2260
     12  O         59.1240   31.1200  164.0030 O.2    10  ALA10      -0.2867
     13  CB        56.9690   32.5020  166.1930 C.3    10  ALA10       0.0290
     14  N         61.9150   29.5050  164.5500 N.3    13  VAL13      -0.1231
     15  CA        61.4220   28.1950  164.2490 C.3    13  VAL13       0.1692
     16  C         61.0220   28.1240  162.7830 C.2    13  VAL13       0.2592
     17  O         61.3990   27.2060  162.0960 O.2    13  VAL13      -0.2718
     18  CB        60.2780   27.8000  165.2100 C.3    13  VAL13       0.0266
     19  CG1       59.5500   26.5440  164.7310 C.3    13  VAL13       0.0020
     20  CG2       60.8480   27.6200  166.6210 C.3    13  VAL13       0.0020
     21  N         60.2850   29.1200  162.3070 N.am   14  ASP14      -0.1974
     22  CA        59.8650   29.1630  160.9210 C.3    14  ASP14       0.1709
     23  C         61.0790   29.1580  159.9890 C.2    14  ASP14       0.2293
     24  O         61.0920   28.4220  159.0170 O.2    14  ASP14      -0.2864
     25  CB        58.8810   30.3570  160.7310 C.3    14  ASP14       0.1436
     26  CG        58.4790   30.5840  159.3010 C.2    14  ASP14       0.3671
     27  OD1       57.4300   30.0180  158.8430 O.co2  14  ASP14      -0.2456
     28  OD2       59.2180   31.3490  158.6350 O.co2  14  ASP14      -0.2456
     29  N         62.6610   25.5810  159.7730 N.3    17  LEU17      -0.1231
     30  CA        61.8740   24.6710  158.9770 C.3    17  LEU17       0.1693
     31  C         62.1500   24.8590  157.5070 C.2    17  LEU17       0.2592
     32  O         62.3090   23.8910  156.7860 O.2    17  LEU17      -0.2718
     33  CB        60.3780   24.8690  159.2450 C.3    17  LEU17       0.0284
     34  CG        59.9320   24.4370  160.6380 C.3    17  LEU17       0.0019
     35  CD1       58.4630   24.8980  160.8770 C.3    17  LEU17       0.0001
     36  CD2       60.1020   22.9210  160.7340 C.3    17  LEU17       0.0001
     37  N         62.2620   26.0930  157.0600 N.am   18  PHE18      -0.1976
     38  CA        62.5000   26.3380  155.6500 C.3    18  PHE18       0.1639
     39  C         63.9160   26.2810  155.2320 C.2    18  PHE18       0.2290
     40  O         64.1950   25.7630  154.1950 O.2    18  PHE18      -0.2864
     41  CB        61.8640   27.6370  155.1930 C.3    18  PHE18       0.0560
     42  CG        60.3800   27.6260  155.3160 C.ar   18  PHE18      -0.0200
     43  CD1       59.6410   26.6290  154.7020 C.ar   18  PHE18      -0.0042
     44  CD2       59.7260   28.5560  156.1080 C.ar   18  PHE18      -0.0042
     45  CE1       58.2740   26.5790  154.8050 C.ar   18  PHE18      -0.0003
     46  CE2       58.3220   28.5360  156.2350 C.ar   18  PHE18      -0.0003
     47  CZ        57.5850   27.5620  155.5640 C.ar   18  PHE18      -0.0000
     48  N         57.3570   25.9120  151.3020 N.3    25  VAL25      -0.1245
     49  CA        56.2890   26.7580  151.7980 C.3    25  VAL25       0.1561
     50  C         54.9420   26.0970  151.4220 C.2    25  VAL25       0.2260
     51  O         54.0520   26.0110  152.2450 O.2    25  VAL25      -0.2867
     52  CB        56.3640   28.1690  151.1920 C.3    25  VAL25       0.0252
     53  CG1       55.1150   28.9740  151.5450 C.3    25  VAL25       0.0019
     54  CG2       57.6380   28.9340  151.6340 C.3    25  VAL25       0.0019
     55  N         54.1530   23.0430  153.9930 N.3    28  LEU28      -0.1245
     56  CA        53.7710   23.3600  155.3740 C.3    28  LEU28       0.1561
     57  C         52.4770   24.1880  155.4340 C.2    28  LEU28       0.2260
     58  O         51.6790   24.0210  156.3410 O.2    28  LEU28      -0.2867
     59  CB        54.8780   24.0880  156.0580 C.3    28  LEU28       0.0270
     60  CG        56.1600   23.2340  156.2170 C.3    28  LEU28       0.0019
     61  CD1       57.1090   23.8730  157.1540 C.3    28  LEU28       0.0001
     62  CD2       55.8530   21.7900  156.6460 C.3    28  LEU28       0.0001
     63  N         49.3100   23.1460  157.4800 N.3    31  ALA31      -0.1245
     64  CA        48.7960   24.1550  158.4190 C.3    31  ALA31       0.1562
     65  C         47.3060   24.3590  158.1400 C.2    31  ALA31       0.2260
     66  O         46.4820   24.3490  159.0490 O.2    31  ALA31      -0.2867
     67  CB        49.5340   25.4650  158.2910 C.3    31  ALA31       0.0290
     68  N         50.9160   35.2920  154.5050 N.3    62  ASN62      -0.1225
     69  CA        50.8740   33.8630  154.6950 C.3    62  ASN62       0.1785
     70  C         49.6200   33.3720  155.4490 C.2    62  ASN62       0.2597
     71  O         49.0720   32.2930  155.1090 O.2    62  ASN62      -0.2718
     72  CB        52.1700   33.3530  155.3540 C.3    62  ASN62       0.1169
     73  CG        53.4110   33.4760  154.4060 C.2    62  ASN62       0.2627
     74  OD1       53.3070   33.4600  153.1560 O.2    62  ASN62      -0.2716
     75  ND2       54.5490   33.7050  155.0010 N.am   62  ASN62      -0.0877
     76  N         49.1470   34.1400  156.4350 N.am   63  ASN63      -0.1974
     77  CA        47.9500   33.7260  157.1890 C.3    63  ASN63       0.1688
     78  C         46.7820   33.5910  156.2120 C.2    63  ASN63       0.2292
     79  O         45.9950   32.6790  156.2920 O.2    63  ASN63      -0.2864
     80  CB        47.6400   34.7730  158.2590 C.3    63  ASN63       0.1181
     81  CG        46.8630   34.2380  159.4370 C.2    63  ASN63       0.2629
     82  OD1       45.6810   34.5960  159.5910 O.2    63  ASN63      -0.2716
     83  ND2       47.5330   33.4590  160.3420 N.am   63  ASN63      -0.0877
     84  N         46.9940   30.3440  154.4750 N.3    66  ASP66      -0.1239
     85  CA        46.4020   29.2550  155.2580 C.3    66  ASP66       0.1674
     86  C         44.9080   29.2240  155.1240 C.2    66  ASP66       0.2266
     87  O         44.2830   28.1740  155.1520 O.2    66  ASP66      -0.2867
     88  CB        46.7400   29.3810  156.7420 C.3    66  ASP66       0.1410
     89  CG        48.2550   29.3580  157.0460 C.2    66  ASP66       0.3668
     90  OD1       49.0520   28.7470  156.3010 O.co2  66  ASP66      -0.2456
     91  OD2       48.6410   29.9750  158.0610 O.co2  66  ASP66      -0.2456
     92  N         51.4810   35.4860  162.8370 N.3   129  PHE129     -0.1241
     93  CA        52.5150   35.6980  163.8610 C.3   129  PHE129      0.1605
     94  C         53.5830   36.7550  163.5380 C.2   129  PHE129      0.2264
     95  O         54.3090   37.1820  164.4700 O.2   129  PHE129     -0.2867
     96  CB        53.2220   34.3590  164.2460 C.3   129  PHE129      0.0534
     97  CG        54.1710   33.7850  163.1660 C.ar  129  PHE129     -0.0203
     98  CD1       53.6710   33.1850  162.0020 C.ar  129  PHE129     -0.0042
     99  CD2       55.5480   33.8560  163.3200 C.ar  129  PHE129     -0.0042
    100  CE1       54.5300   32.6680  161.0050 C.ar  129  PHE129     -0.0003
    101  CE2       56.4220   33.3350  162.3340 C.ar  129  PHE129     -0.0003
    102  CZ        55.9050   32.7340  161.1900 C.ar  129  PHE129     -0.0000
    103  N         46.1590   30.9870  164.0180 N.3   157  ASP157     -0.1239
    104  CA        47.4390   31.2750  164.6170 C.3   157  ASP157      0.1674
    105  C         47.4050   32.3820  165.6740 C.2   157  ASP157      0.2266
    106  O         47.9260   32.1970  166.7960 O.2   157  ASP157     -0.2867
    107  CB        48.5420   31.5150  163.5940 C.3   157  ASP157      0.1410
    108  CG        49.9480   31.0650  164.1280 C.2   157  ASP157      0.3668
    109  OD1       50.0020   30.1710  165.0070 O.co2 157  ASP157     -0.2456
    110  OD2       51.0040   31.6400  163.7470 O.co2 157  ASP157     -0.2456
    111  N         49.4460   27.4120  165.3140 N.3   180  LEU180     -0.1231
    112  CA        50.2480   26.6290  164.3560 C.3   180  LEU180      0.1693
    113  C         51.6590   26.4100  164.8570 C.2   180  LEU180      0.2592
    114  O         52.3780   27.3630  165.1720 O.2   180  LEU180     -0.2718
    115  CB        50.2380   27.2790  162.9820 C.3   180  LEU180      0.0284
    116  CG        48.8140   27.2690  162.3840 C.3   180  LEU180      0.0019
    117  CD1       48.7470   27.9890  161.0090 C.3   180  LEU180      0.0001
    118  CD2       48.2260   25.8310  162.2790 C.3   180  LEU180      0.0001
    119  N         52.0280   25.1330  164.9410 N.am  181  THR181     -0.1953
    120  CA        53.3540   24.6580  165.3500 C.3   181  THR181      0.1897
    121  C         53.5380   24.7410  166.8530 C.2   181  THR181      0.2313
    122  O         53.9040   23.7550  167.4960 O.2   181  THR181     -0.2863
    123  CB        54.5520   25.3850  164.6650 C.3   181  THR181      0.1794
    124  OG1       54.7440   26.6470  165.2950 O.3   181  THR181     -0.2208
    125  CG2       54.3480   25.6280  163.1890 C.3   181  THR181      0.0378
    126  N         51.6690   31.1360  170.4340 N.3   184  LYS184     -0.1245
    127  CA        52.4120   32.3490  170.7020 C.3   184  LYS184      0.1561
    128  C         51.9560   32.9640  172.0430 C.2   184  LYS184      0.2260
    129  O         50.8950   32.5900  172.6070 O.2   184  LYS184     -0.2867
    130  CB        52.3370   33.3470  169.5360 C.3   184  LYS184      0.0271
    131  CG        53.4260   33.1960  168.4650 C.3   184  LYS184      0.0035
    132  CD        53.4830   31.8070  167.7840 C.3   184  LYS184      0.0206
    133  CE        52.1620   31.4750  167.0610 C.3   184  LYS184      0.1093
    134  NZ        52.2710   30.1680  166.2880 N.3   184  LYS184     -0.1314
    135  N         54.1240   18.9020  162.1320 N.3   201  PHE201     -0.1241
    136  CA        55.2360   18.7480  161.2470 C.3   201  PHE201      0.1605
    137  C         56.5540   19.1670  161.8420 C.2   201  PHE201      0.2264
    138  O         57.5730   19.1100  161.1700 O.2   201  PHE201     -0.2867
    139  CB        54.9630   19.4560  159.9010 C.3   201  PHE201      0.0534
    140  CG        54.4970   20.8770  160.0040 C.ar  201  PHE201     -0.0203
    141  CD1       55.3800   21.8760  160.3940 C.ar  201  PHE201     -0.0042
    142  CD2       53.1940   21.2300  159.6550 C.ar  201  PHE201     -0.0042
    143  CE1       54.9620   23.1830  160.4660 C.ar  201  PHE201     -0.0003
    144  CE2       52.7890   22.5250  159.6870 C.ar  201  PHE201     -0.0003
    145  CZ        53.6800   23.5320  160.1200 C.ar  201  PHE201     -0.0000
@<TRIPOS>BOND
     1    52    53    1
     2    52    54    1
     3    52    49    1
     4    48    49    1
     5    50    49    1
     6    50    51    2
     7    74    73    2
     8    55    56    1
     9    40    39    2
    10    73    75   am
    11    73    72    1
    12    84    85    1
    13    68    69    1
    14    69    72    1
    15    69    70    1
    16    43    45   ar
    17    43    42   ar
    18    45    47   ar
    19    71    70    2
    20    86    87    2
    21    86    85    1
    22    41    42    1
    23    41    38    1
    24    39    38    1
    25    85    88    1
    26    42    44   ar
    27    56    57    1
    28    56    59    1
    29    57    58    2
    30    70    76   am
    31    47    46   ar
    32    38    37    1
    33    59    60    1
    34    44    46   ar
    35    78    79    2
    36    78    77    1
    37    60    62    1
    38    60    61    1
    39    90    89   ar
    40    76    77    1
    41    88    89    1
    42    32    31    2
    43    89    91   ar
    44    37    31   am
    45    77    80    1
    46    63    64    1
    47    31    30    1
    48    65    64    1
    49    65    66    2
    50    80    81    1
    51    67    64    1
    52    28    26   ar
    53    27    26   ar
    54    30    33    1
    55    30    29    1
    56    24    23    2
    57    33    34    1
    58    26    25    1
    59    81    82    2
    60    81    83   am
    61   142   144   ar
    62   142   140   ar
    63   144   145   ar
    64   139   140    1
    65   139   136    1
    66    23    22    1
    67   140   141   ar
    68   145   143   ar
    69   141   143   ar
    70    34    36    1
    71    34    35    1
    72    25    22    1
    73    22    21    1
    74   100   102   ar
    75   100    98   ar
    76   117   116    1
    77   138   137    2
    78   102   101   ar
    79   136   137    1
    80   136   135    1
    81    98    97   ar
    82    17    16    2
    83   118   116    1
    84    21    16   am
    85   101    99   ar
    86   116   115    1
    87    16    15    1
    88    92    93    1
    89   115   112    1
    90    97    99   ar
    91    97    96    1
    92   125   123    1
    93    94    93    1
    94    94    95    2
    95   107   108    1
    96   107   104    1
    97   110   108   ar
    98    93    96    1
    99    12    11    2
   100   103   104    1
   101   108   109   ar
   102    15    14    1
   103    15    18    1
   104   112   113    1
   105   112   111    1
   106   104   105    1
   107   123   124    1
   108   123   120    1
   109    19    18    1
   110   113   119   am
   111   113   114    2
   112    11    10    1
   113   119   120    1
   114    18    20    1
   115   120   121    1
   116   105   106    2
   117    13    10    1
   118    10     9    1
   119   134   133    1
   120   121   122    2
   121   133   132    1
   122   132   131    1
   123   131   130    1
   124     7     6    1
   125   130   127    1
   126     6     5    1
   127     6     8    1
   128     5     2    1
   129   126   127    1
   130   127   128    1
   131     4     3    2
   132     3     2    1
   133     2     1    1
   134   128   129    2
