@<TRIPOS>MOLECULE
tmp/3rogA00.pdb
 150 139 0 0 0
SMALL
GASTEIGER

@<TRIPOS>ATOM
      1  N         15.0380   15.4530   36.2800 N.3     5  LEU5       -0.1245
      2  CA        14.4870   16.7290   36.7330 C.3     5  LEU5        0.1561
      3  C         12.9650   16.7150   36.7370 C.2     5  LEU5        0.2260
      4  O         12.3530   16.1190   35.8360 O.2     5  LEU5       -0.2867
      5  CB        15.0110   17.8640   35.8440 C.3     5  LEU5        0.0270
      6  CG        16.5270   18.0720   35.9410 C.3     5  LEU5        0.0019
      7  CD1       16.9590   19.1110   34.9130 C.3     5  LEU5        0.0001
      8  CD2       16.9510   18.4530   37.3810 C.3     5  LEU5        0.0001
      9  N         13.4560   21.7960   35.7280 N.3    10  ALA10      -0.1245
     10  CA        13.9140   22.0420   34.3590 C.3    10  ALA10       0.1562
     11  C         13.6450   23.4930   33.9390 C.2    10  ALA10       0.2260
     12  O         14.4860   24.1200   33.2890 O.2    10  ALA10      -0.2867
     13  CB        13.2990   21.0410   33.3520 C.3    10  ALA10       0.0290
     14  N         16.2350   25.7360   35.7710 N.3    13  VAL13      -0.1231
     15  CA        17.5460   25.6220   35.1140 C.3    13  VAL13       0.1692
     16  C         17.5420   26.4020   33.7860 C.2    13  VAL13       0.2592
     17  O         18.3930   27.2400   33.5420 O.2    13  VAL13      -0.2718
     18  CB        17.9220   24.1450   34.9110 C.3    13  VAL13       0.0266
     19  CG1       19.0740   23.9950   33.9590 C.3    13  VAL13       0.0020
     20  CG2       18.2230   23.4730   36.2600 C.3    13  VAL13       0.0020
     21  N         16.5400   26.1840   32.9660 N.am   14  ASP14      -0.1974
     22  CA        16.4570   26.8870   31.6760 C.3    14  ASP14       0.1709
     23  C         16.5100   28.4040   31.9180 C.2    14  ASP14       0.2293
     24  O         17.2230   29.1090   31.2170 O.2    14  ASP14      -0.2864
     25  CB        15.1650   26.4820   30.9650 C.3    14  ASP14       0.1436
     26  CG        14.9400   27.2230   29.6440 C.2    14  ASP14       0.3671
     27  OD1       15.4400   26.7230   28.5960 O.co2  14  ASP14      -0.2456
     28  OD2       14.2300   28.2800   29.6320 O.co2  14  ASP14      -0.2456
     29  N         19.9030   29.6730   32.9540 N.3    17  LEU17      -0.1231
     30  CA        20.8240   29.7460   31.8310 C.3    17  LEU17       0.1693
     31  C         20.6100   30.9960   30.9620 C.2    17  LEU17       0.2592
     32  O         21.5710   31.6020   30.5000 O.2    17  LEU17      -0.2718
     33  CB        20.7610   28.4720   30.9820 C.3    17  LEU17       0.0284
     34  CG        21.3700   27.1720   31.5420 C.3    17  LEU17       0.0019
     35  CD1       20.7900   25.9330   30.7560 C.3    17  LEU17       0.0001
     36  CD2       22.9090   27.2290   31.4780 C.3    17  LEU17       0.0001
     37  N         19.3630   31.4100   30.7710 N.am   18  PHE18      -0.1976
     38  CA        19.1060   32.5540   29.9060 C.3    18  PHE18       0.1639
     39  C         19.1620   33.8760   30.6320 C.2    18  PHE18       0.2290
     40  O         19.4090   34.8690   30.0070 O.2    18  PHE18      -0.2864
     41  CB        17.7690   32.4170   29.2290 C.3    18  PHE18       0.0560
     42  CG        17.7380   31.3260   28.2080 C.ar   18  PHE18      -0.0200
     43  CD1       18.6230   31.3450   27.1180 C.ar   18  PHE18      -0.0042
     44  CD2       16.8310   30.2930   28.3050 C.ar   18  PHE18      -0.0042
     45  CE1       18.6200   30.3470   26.1640 C.ar   18  PHE18      -0.0003
     46  CE2       16.7930   29.2860   27.3120 C.ar   18  PHE18      -0.0003
     47  CZ        17.6920   29.3230   26.2550 C.ar   18  PHE18      -0.0000
     48  N         19.3480   32.5270   23.2800 N.3    25  VAL25      -0.1245
     49  CA        18.6030   31.3660   22.7550 C.3    25  VAL25       0.1561
     50  C         19.3150   30.7580   21.5650 C.2    25  VAL25       0.2260
     51  O         19.4280   29.5430   21.4840 O.2    25  VAL25      -0.2867
     52  CB        17.1440   31.7180   22.4120 C.3    25  VAL25       0.0252
     53  CG1       16.4570   30.5590   21.6730 C.3    25  VAL25       0.0019
     54  CG2       16.3600   32.0590   23.6920 C.3    25  VAL25       0.0019
     55  N         22.4140   28.4040   22.6840 N.3    28  LEU28      -0.1245
     56  CA        22.1190   27.1160   23.2640 C.3    28  LEU28       0.1561
     57  C         21.2520   26.2460   22.3320 C.2    28  LEU28       0.2260
     58  O         21.3250   25.0460   22.3540 O.2    28  LEU28      -0.2867
     59  CB        21.4500   27.3250   24.6130 C.3    28  LEU28       0.0270
     60  CG        22.3130   28.0110   25.6790 C.3    28  LEU28       0.0019
     61  CD1       21.6260   27.9120   27.0520 C.3    28  LEU28       0.0001
     62  CD2       23.7590   27.4750   25.7880 C.3    28  LEU28       0.0001
     63  N         22.3190   22.5040   21.4080 N.3    31  ALA31      -0.1245
     64  CA        21.3280   21.4860   21.6300 C.3    31  ALA31       0.1562
     65  C         21.0880   20.7450   20.2690 C.2    31  ALA31       0.2260
     66  O         21.1540   19.5340   20.1950 O.2    31  ALA31      -0.2867
     67  CB        20.0480   22.1140   22.1210 C.3    31  ALA31       0.0290
     68  N         10.4690   26.0010   20.7470 N.3    62  ASN62      -0.1225
     69  CA        11.9120   25.9010   20.7990 C.3    62  ASN62       0.1785
     70  C         12.4090   24.5140   20.4660 C.2    62  ASN62       0.2597
     71  O         13.3900   24.3690   19.6820 O.2    62  ASN62      -0.2718
     72  CB        12.4400   26.3880   22.1340 C.3    62  ASN62       0.1169
     73  CG        12.6430   27.8870   22.1520 C.2    62  ASN62       0.2627
     74  OD1       12.1760   28.6180   21.2760 O.2    62  ASN62      -0.2716
     75  ND2       13.3840   28.3480   23.1230 N.am   62  ASN62      -0.0877
     76  N         11.6900   23.5080   20.9700 N.am   63  ASN63      -0.1974
     77  CA        11.9540   22.1330   20.5890 C.3    63  ASN63       0.1688
     78  C         11.9700   21.9960   19.0630 C.2    63  ASN63       0.2292
     79  O         12.8300   21.3520   18.5230 O.2    63  ASN63      -0.2864
     80  CB        10.9210   21.2190   21.1890 C.3    63  ASN63       0.1181
     81  CG        11.3550   19.7620   21.2420 C.2    63  ASN63       0.2629
     82  OD1       10.9280   18.9190   20.3810 O.2    63  ASN63      -0.2716
     83  ND2       12.1080   19.4160   22.3200 N.am   63  ASN63      -0.0877
     84  N         15.3010   23.3780   17.8240 N.3    66  ASP66      -0.1239
     85  CA        16.3360   22.3790   17.9930 C.3    66  ASP66       0.1674
     86  C         16.3010   21.4060   16.8190 C.2    66  ASP66       0.2266
     87  O         17.3370   21.0060   16.2840 O.2    66  ASP66      -0.2867
     88  CB        16.0770   21.6390   19.2910 C.3    66  ASP66       0.1410
     89  CG        16.2130   22.5260   20.5010 C.2    66  ASP66       0.3668
     90  OD1       16.7990   23.6160   20.4000 O.co2  66  ASP66      -0.2456
     91  OD2       15.7140   22.1490   21.5770 O.co2  66  ASP66      -0.2456
     92  N         10.3850   20.1190   27.1080 N.3   129  PHE129     -0.1241
     93  CA        10.2230   20.0990   28.5870 C.3   129  PHE129      0.1605
     94  C          9.0960   21.0170   29.1080 C.2   129  PHE129      0.2264
     95  O          8.6030   20.8250   30.2320 O.2   129  PHE129     -0.2867
     96  CB        11.5850   20.4470   29.2850 C.3   129  PHE129      0.0534
     97  CG        11.9660   21.9240   29.2090 C.ar  129  PHE129     -0.0203
     98  CD1       11.6690   22.7920   30.2770 C.ar  129  PHE129     -0.0042
     99  CD2       12.5710   22.4490   28.0540 C.ar  129  PHE129     -0.0042
    100  CE1       11.9830   24.1560   30.2060 C.ar  129  PHE129     -0.0003
    101  CE2       12.9040   23.8170   27.9630 C.ar  129  PHE129     -0.0003
    102  CZ        12.6150   24.6760   29.0380 C.ar  129  PHE129     -0.0000
    103  N         14.6360   15.6280   23.7250 N.3   157  ASP157     -0.1239
    104  CA        14.3480   16.0070   25.1110 C.3   157  ASP157      0.1674
    105  C         13.2540   15.2320   25.8220 C.2   157  ASP157      0.2266
    106  O         13.4760   14.7230   26.9110 O.2   157  ASP157     -0.2867
    107  CB        14.0970   17.4920   25.2620 C.3   157  ASP157      0.1410
    108  CG        14.3990   17.9890   26.6880 C.2   157  ASP157      0.3668
    109  OD1       15.3700   17.5560   27.2590 O.co2 157  ASP157     -0.2456
    110  OD2       13.6650   18.8070   27.1800 O.co2 157  ASP157     -0.2456
    111  N         18.2250   16.7420   26.9950 N.3   180  LEU180     -0.1231
    112  CA        19.0450   17.9470   26.9120 C.3   180  LEU180      0.1693
    113  C         19.2600   18.4930   28.3000 C.2   180  LEU180      0.2593
    114  O         18.3120   18.6430   29.0680 O.2   180  LEU180     -0.2718
    115  CB        18.3950   18.9760   26.0520 C.3   180  LEU180      0.0284
    116  CG        18.2640   18.5170   24.5720 C.3   180  LEU180      0.0019
    117  CD1       17.5290   19.6290   23.8250 C.3   180  LEU180      0.0001
    118  CD2       19.6190   18.2290   23.8900 C.3   180  LEU180      0.0001
    119  N         20.5320   18.7420   28.5850 N.am  181  THR181     -0.1939
    120  CA        21.0650   19.2510   29.8230 C.3   181  THR181      0.2028
    121  C         21.0370   18.2140   30.8970 C.2   181  THR181      0.2642
    122  O         22.0820   17.9270   31.5090 O.2   181  THR181     -0.2714
    123  CB        20.4670   20.6280   30.3120 C.3   181  THR181      0.1808
    124  OG1       19.3290   20.4260   31.1710 O.3   181  THR181     -0.2208
    125  CG2       20.1460   21.5790   29.1620 C.3   181  THR181      0.0379
    126  N         19.8470   17.7100   31.2070 N.am  182  ALA182     -0.1977
    127  CA        19.6830   16.5480   32.0880 C.3   182  ALA182      0.1597
    128  C         18.3270   15.9130   31.8380 C.2   182  ALA182      0.2287
    129  O         17.4230   16.5750   31.3300 O.2   182  ALA182     -0.2864
    130  CB        19.8220   16.9120   33.5380 C.3   182  ALA182      0.0319
    131  N         14.5660   14.3920   32.2070 N.3   184  LYS184     -0.1245
    132  CA        13.3640   14.6830   33.0160 C.3   184  LYS184      0.1561
    133  C         12.8270   13.3950   33.5870 C.2   184  LYS184      0.2260
    134  O         13.1650   12.3190   33.0840 O.2   184  LYS184     -0.2867
    135  CB        12.3170   15.4000   32.1920 C.3   184  LYS184      0.0271
    136  CG        12.5140   16.9310   32.1040 C.3   184  LYS184      0.0035
    137  CD        13.9290   17.3340   31.6610 C.3   184  LYS184      0.0206
    138  CE        14.0980   17.1170   30.1160 C.3   184  LYS184      0.1093
    139  NZ        15.4610   17.6530   29.7170 N.3   184  LYS184     -0.1314
    140  N         27.0050   22.1950   28.0400 N.3   201  PHE201     -0.1241
    141  CA        27.0370   23.6160   28.2900 C.3   201  PHE201      0.1605
    142  C         26.5930   23.9450   29.6800 C.2   201  PHE201      0.2264
    143  O         26.5220   25.1290   30.0570 O.2   201  PHE201     -0.2867
    144  CB        26.2120   24.4250   27.2440 C.3   201  PHE201      0.0534
    145  CG        24.7450   23.9920   27.0490 C.ar  201  PHE201     -0.0203
    146  CD1       23.7560   24.1470   28.0630 C.ar  201  PHE201     -0.0042
    147  CD2       24.3150   23.5360   25.7770 C.ar  201  PHE201     -0.0042
    148  CE1       22.4130   23.7890   27.8160 C.ar  201  PHE201     -0.0003
    149  CE2       22.9910   23.1650   25.5670 C.ar  201  PHE201     -0.0003
    150  CZ        22.0370   23.2750   26.5530 C.ar  201  PHE201     -0.0000
@<TRIPOS>BOND
     1    87    86    2
     2    86    85    1
     3    84    85    1
     4    85    88    1
     5    79    78    2
     6    78    77    1
     7    88    89    1
     8    71    70    2
     9    66    65    2
    10    65    64    1
    11    82    81    2
    12    90    89   ar
    13    70    69    1
    14    70    76   am
    15    89    91   ar
    16    77    76    1
    17    77    80    1
    18    68    69    1
    19    69    72    1
    20    80    81    1
    21    81    83   am
    22    74    73    2
    23    63    64    1
    24    51    50    2
    25    50    49    1
    26    64    67    1
    27    53    52    1
    28    72    73    1
    29    73    75   am
    30    57    58    2
    31    57    56    1
    32    52    49    1
    33    52    54    1
    34    55    56    1
    35    49    48    1
    36    56    59    1
    37   103   104    1
    38   117   116    1
    39   118   116    1
    40   116   115    1
    41    59    60    1
    42   104   107    1
    43   104   105    1
    44   107   108    1
    45   149   147   ar
    46   149   150   ar
    47    60    62    1
    48    60    61    1
    49   147   145   ar
    50   105   106    2
    51   115   112    1
    52    45    47   ar
    53    45    43   ar
    54    47    46   ar
    55   150   148   ar
    56   108   110   ar
    57   108   109   ar
    58   112   111    1
    59   112   113    1
    60   145   144    1
    61   145   146   ar
    62    92    93    1
    63    43    42   ar
    64   144   141    1
    65    46    44   ar
    66   148   146   ar
    67   101    99   ar
    68   101   102   ar
    69   140   141    1
    70    99    97   ar
    71    42    44   ar
    72    42    41    1
    73   141   142    1
    74   113   119   am
    75   113   114    2
    76   119   120    1
    77    93    94    1
    78    93    96    1
    79    27    26   ar
    80   102   100   ar
    81    94    95    2
    82   125   123    1
    83    97    96    1
    84    97    98   ar
    85    41    38    1
    86    28    26   ar
    87    26    25    1
    88   142   143    2
    89   139   138    1
    90   120   123    1
    91   120   121    1
    92    38    39    1
    93    38    37    1
    94    40    39    2
    95   138   137    1
    96   100    98   ar
    97   123   124    1
    98    32    31    2
    99    35    34    1
   100    37    31   am
   101   121   126   am
   102   121   122    2
   103    31    30    1
   104    25    22    1
   105    33    34    1
   106    33    30    1
   107   126   127    1
   108    24    23    2
   109   129   128    2
   110    36    34    1
   111   137   136    1
   112    22    23    1
   113    22    21    1
   114    30    29    1
   115   128   127    1
   116   127   130    1
   117   136   135    1
   118   135   132    1
   119   131   132    1
   120    21    16   am
   121   132   133    1
   122   134   133    2
   123    12    11    2
   124    13    10    1
   125    17    16    2
   126    16    15    1
   127    11    10    1
   128    19    18    1
   129    10     9    1
   130    18    15    1
   131    18    20    1
   132     7     6    1
   133    15    14    1
   134     4     3    2
   135     5     6    1
   136     5     2    1
   137     6     8    1
   138     1     2    1
   139     2     3    1
