@<TRIPOS>MOLECULE
tmp/3rokB00.pdb
 137 135 0 0 0
SMALL
GASTEIGER

@<TRIPOS>ATOM
      1  N         10.0270   13.3970   13.4220 N.3    79  LEU79      -0.1231
      2  CA        10.5470   12.1770   14.0000 C.3    79  LEU79       0.1693
      3  C         10.1720   12.1340   15.4810 C.2    79  LEU79       0.2592
      4  O         10.6730   12.9080   16.2960 O.2    79  LEU79      -0.2718
      5  CB        12.0690   12.0750   13.8290 C.3    79  LEU79       0.0284
      6  CG        12.7280   10.8360   14.4460 C.3    79  LEU79       0.0019
      7  CD1       12.2000    9.5230   13.8190 C.3    79  LEU79       0.0001
      8  CD2       14.2590   10.9110   14.3490 C.3    79  LEU79       0.0001
      9  N          9.2680   11.2260   15.8110 N.am   80  LEU80      -0.1966
     10  CA         8.9750   10.9150   17.1830 C.3    80  LEU80       0.1728
     11  C          9.9720    9.8550   17.6570 C.2    80  LEU80       0.2616
     12  O         10.6570    9.1910   16.8600 O.2    80  LEU80      -0.2715
     13  CB         7.5290   10.4240   17.2930 C.3    80  LEU80       0.0311
     14  CG         6.4610   11.4430   16.8240 C.3    80  LEU80       0.0022
     15  CD1        5.0420   10.8780   16.9910 C.3    80  LEU80       0.0001
     16  CD2        6.5860   12.7850   17.5570 C.3    80  LEU80       0.0001
     17  N         10.0810    9.7120   18.9650 N.am   81  TRP81      -0.1960
     18  CA        10.9220    8.6560   19.5270 C.3    81  TRP81       0.1771
     19  C         10.3800    8.2480   20.8820 C.2    81  TRP81       0.2620
     20  O          9.6540    8.9980   21.5320 O.2    81  TRP81      -0.2715
     21  CB        12.3870    9.1180   19.6730 C.3    81  TRP81       0.0590
     22  CG        12.5440   10.3630   20.4990 C.ar   81  TRP81       0.0006
     23  CD1       12.5510   11.6430   20.0420 C.ar   81  TRP81       0.0946
     24  CD2       12.6690   10.4530   21.9240 C.ar   81  TRP81       0.0152
     25  NE1       12.6690   12.5210   21.0740 N.ar   81  TRP81      -0.2442
     26  CE2       12.7670   11.8230   22.2470 C.ar   81  TRP81       0.0810
     27  CE3       12.7470    9.5110   22.9580 C.ar   81  TRP81       0.0012
     28  CZ2       12.9080   12.2750   23.5440 C.ar   81  TRP81       0.0191
     29  CZ3       12.8790    9.9620   24.2520 C.ar   81  TRP81       0.0001
     30  CH2       12.9680   11.3390   24.5420 C.ar   81  TRP81       0.0015
     31  N         10.7370    7.0500   21.3070 N.am   82  SER82      -0.1936
     32  CA        10.3760    6.6020   22.6430 C.3    82  SER82       0.2055
     33  C         11.5660    5.8850   23.2800 C.2    82  SER82       0.2642
     34  O         12.0440    4.8920   22.7540 O.2    82  SER82      -0.2714
     35  CB         9.1250    5.7220   22.5960 C.3    82  SER82       0.2130
     36  OG         8.5960    5.5460   23.9090 O.3    82  SER82      -0.2179
     37  N         12.0630    6.4570   24.3780 N.am   83  ARG83      -0.1977
     38  CA        13.1820    5.9360   25.1740 C.3    83  ARG83       0.1597
     39  C         14.5810    6.1240   24.5710 C.2    83  ARG83       0.2287
     40  O         15.5720    6.1670   25.3100 O.2    83  ARG83      -0.2864
     41  CB        12.9610    4.4590   25.5210 C.3    83  ARG83       0.0334
     42  CG        11.6390    4.1800   26.2050 C.3    83  ARG83       0.0492
     43  CD        11.7280    4.3720   27.7080 C.3    83  ARG83       0.2205
     44  NE        10.4190    4.6760   28.2860 N.pl3  83  ARG83      -0.0865
     45  CZ        10.1200    4.6120   29.5810 C.cat  83  ARG83       0.5346
     46  NH1        8.8870    4.9120   29.9800 N.pl3  83  ARG83       0.1354
     47  NH2       11.0340    4.2480   30.4810 N.pl3  83  ARG83       0.1354
     48  N         16.3390    8.5320   22.9390 N.3    85  LYS85      -0.1245
     49  CA        16.4920    9.9450   22.5980 C.3    85  LYS85       0.1561
     50  C         17.8080   10.2520   21.8970 C.2    85  LYS85       0.2260
     51  O         17.8230   11.0070   20.9260 O.2    85  LYS85      -0.2867
     52  CB        16.3850   10.8120   23.8610 C.3    85  LYS85       0.0271
     53  CG        16.2560   12.2900   23.5770 C.3    85  LYS85       0.0035
     54  CD        15.9920   13.0890   24.8430 C.3    85  LYS85       0.0206
     55  CE        17.2690   13.4230   25.5760 C.3    85  LYS85       0.1093
     56  NZ        16.9890   14.1910   26.8020 N.3    85  LYS85      -0.1314
     57  N         11.0380   16.6490   18.7490 N.3   101  LEU101     -0.1231
     58  CA        10.4800   17.6890   19.5780 C.3   101  LEU101      0.1693
     59  C         11.5850   18.5810   20.1410 C.2   101  LEU101      0.2591
     60  O         11.4060   19.7850   20.3110 O.2   101  LEU101     -0.2718
     61  CB         9.6710   17.0510   20.7100 C.3   101  LEU101      0.0284
     62  CG         9.0720   17.9920   21.7410 C.3   101  LEU101      0.0019
     63  CD1        8.2090   19.0520   21.0700 C.3   101  LEU101      0.0001
     64  CD2        8.2730   17.1650   22.7460 C.3   101  LEU101      0.0001
     65  N         12.7490   18.0010   20.4080 N.am  102  GLU102     -0.1979
     66  CA        13.8360   18.7620   21.0220 C.3   102  GLU102      0.1602
     67  C         14.5990   19.6300   20.0340 C.2   102  GLU102      0.2287
     68  O         15.5190   20.3360   20.4230 O.2   102  GLU102     -0.2864
     69  CB        14.7680   17.8230   21.7850 C.3   102  GLU102      0.0415
     70  CG        14.0440   17.0860   22.9110 C.3   102  GLU102      0.1163
     71  CD        13.1580   15.9230   22.4410 C.2   102  GLU102      0.3649
     72  OE1       13.4410   15.3030   21.3860 O.co2 102  GLU102     -0.2457
     73  OE2       12.1680   15.6340   23.1470 O.co2 102  GLU102     -0.2457
     74  N          5.9620   18.7050   29.3630 N.3   145  TRP145     -0.1241
     75  CA         6.1950   17.7860   28.2600 C.3   145  TRP145      0.1605
     76  C          4.8900   17.2500   27.6660 C.2   145  TRP145      0.2264
     77  O          4.7970   17.0170   26.4570 O.2   145  TRP145     -0.2867
     78  CB         7.1460   16.6540   28.6470 C.3   145  TRP145      0.0550
     79  CG         8.5510   17.1290   28.7880 C.ar  145  TRP145      0.0003
     80  CD1        9.2530   17.2180   29.9360 C.ar  145  TRP145      0.0946
     81  CD2        9.4200   17.6260   27.7450 C.ar  145  TRP145      0.0152
     82  NE1       10.5120   17.7270   29.7020 N.ar  145  TRP145     -0.2442
     83  CE2       10.6420   17.9780   28.3580 C.ar  145  TRP145      0.0810
     84  CE3        9.2930   17.7780   26.3600 C.ar  145  TRP145      0.0012
     85  CZ2       11.7150   18.4960   27.6460 C.ar  145  TRP145      0.0191
     86  CZ3       10.3750   18.2970   25.6460 C.ar  145  TRP145      0.0001
     87  CH2       11.5600   18.6500   26.2850 C.ar  145  TRP145      0.0015
     88  N          4.1780   18.0190   23.7800 N.3   149  SER149     -0.1217
     89  CA         4.1380   16.7720   23.0200 C.3   149  SER149      0.1889
     90  C          2.7980   16.6350   22.3120 C.2   149  SER149      0.2288
     91  O          2.7360   16.1960   21.1670 O.2   149  SER149     -0.2866
     92  CB         4.3530   15.5490   23.9240 C.3   149  SER149      0.2089
     93  OG         5.6940   15.5230   24.3630 O.3   149  SER149     -0.2183
     94  N          2.7990   19.0880   19.3630 N.3   152  PHE152     -0.1241
     95  CA         3.7180   18.5780   18.3440 C.3   152  PHE152      0.1605
     96  C          3.0530   17.4610   17.5560 C.2   152  PHE152      0.2264
     97  O          3.0620   17.4620   16.3270 O.2   152  PHE152     -0.2867
     98  CB         5.0010   18.0730   19.0150 C.3   152  PHE152      0.0534
     99  CG         6.1690   17.8650   18.0850 C.ar  152  PHE152     -0.0203
    100  CD1        6.6980   18.9090   17.3470 C.ar  152  PHE152     -0.0042
    101  CD2        6.7720   16.6240   17.9950 C.ar  152  PHE152     -0.0042
    102  CE1        7.8020   18.6970   16.5290 C.ar  152  PHE152     -0.0003
    103  CE2        7.8790   16.4130   17.1980 C.ar  152  PHE152     -0.0003
    104  CZ         8.3780   17.4440   16.4540 C.ar  152  PHE152     -0.0000
    105  N          4.2220    5.2740   28.1700 N.3   176  SER176     -0.1202
    106  CA         5.2040    6.3180   27.8530 C.3   176  SER176      0.2020
    107  C          4.4670    7.5470   27.3400 C.2   176  SER176      0.2619
    108  O          3.2600    7.4900   27.0920 O.2   176  SER176     -0.2717
    109  CB         6.1890    5.8300   26.7910 C.3   176  SER176      0.2103
    110  OG         5.5100    5.5040   25.5890 O.3   176  SER176     -0.2182
    111  N          5.1860    8.6550   27.1730 N.am  177  THR177     -0.1938
    112  CA         4.5830    9.8740   26.6180 C.3   177  THR177      0.2028
    113  C          4.2360    9.6560   25.1690 C.2   177  THR177      0.2642
    114  O          3.2200   10.1590   24.6830 O.2   177  THR177     -0.2714
    115  CB         5.5190   11.1010   26.6990 C.3   177  THR177      0.1808
    116  OG1        5.9090   11.3150   28.0510 O.3   177  THR177     -0.2208
    117  CG2        4.8220   12.3670   26.1580 C.3   177  THR177      0.0379
    118  N          5.0960    8.9250   24.4650 N.am  178  PHE178     -0.1973
    119  CA         4.7900    8.5350   23.1020 C.3   178  PHE178      0.1639
    120  C          3.4670    7.7820   23.0700 C.2   178  PHE178      0.2290
    121  O          2.5920    8.0890   22.2710 O.2   178  PHE178     -0.2864
    122  CB         5.8820    7.6640   22.4830 C.3   178  PHE178      0.0560
    123  CG         5.5040    7.1450   21.1390 C.ar  178  PHE178     -0.0200
    124  CD1        5.2370    8.0240   20.1010 C.ar  178  PHE178     -0.0042
    125  CD2        5.3460    5.7850   20.9170 C.ar  178  PHE178     -0.0042
    126  CE1        4.8390    7.5740   18.8880 C.ar  178  PHE178     -0.0003
    127  CE2        4.9590    5.3240   19.6930 C.ar  178  PHE178     -0.0003
    128  CZ         4.7080    6.2150   18.6630 C.ar  178  PHE178     -0.0000
    129  N          1.2790   11.1790   22.5630 N.3   182  GLU182     -0.1245
    130  CA         1.5990   11.4410   21.1580 C.3   182  GLU182      0.1567
    131  C          0.7890   10.5900   20.1730 C.2   182  GLU182      0.2260
    132  O          0.1630   11.1300   19.2620 O.2   182  GLU182     -0.2867
    133  CB         3.1080   11.3300   20.9170 C.3   182  GLU182      0.0388
    134  CG         3.8640   12.4570   21.6430 C.3   182  GLU182      0.1160
    135  CD         5.3680   12.2860   21.7150 C.2   182  GLU182      0.3649
    136  OE1        5.9060   11.4170   21.0050 O.co2 182  GLU182     -0.2457
    137  OE2        6.0260   13.0240   22.4940 O.co2 182  GLU182     -0.2457
@<TRIPOS>BOND
     1     1     2    1
     2     7     6    1
     3     5     2    1
     4     5     6    1
     5     2     3    1
     6     8     6    1
     7     3     9   am
     8     3     4    2
     9     9    10    1
    10    97    96    2
    11   104   102   ar
    12   104   103   ar
    13   102   100   ar
    14    14    15    1
    15    14    13    1
    16    14    16    1
    17    12    11    2
    18    10    13    1
    19    10    11    1
    20   103   101   ar
    21   100    99   ar
    22    96    95    1
    23    11    17   am
    24   101    99   ar
    25    99    98    1
    26    95    98    1
    27    95    94    1
    28   128   126   ar
    29   128   127   ar
    30    57    58    1
    31   126   124   ar
    32    17    18    1
    33   132   131    2
    34    18    21    1
    35    18    19    1
    36    58    59    1
    37    58    61    1
    38    21    22    1
    39   127   125   ar
    40    67    68    2
    41    67    66    1
    42    23    22   ar
    43    23    25   ar
    44   124   123   ar
    45    59    60    2
    46    59    65   am
    47   131   130    1
    48    65    66    1
    49    22    24   ar
    50    61    62    1
    51    19    31   am
    52    19    20    2
    53   133   130    1
    54   133   134    1
    55   125   123   ar
    56    51    50    2
    57   136   135   ar
    58    66    69    1
    59    63    62    1
    60    25    26   ar
    61   123   122    1
    62   130   129    1
    63    91    90    2
    64    31    32    1
    65    72    71   ar
    66   134   135    1
    67   135   137   ar
    68    62    64    1
    69    69    70    1
    70    50    49    1
    71    24    26   ar
    72    24    27   ar
    73    26    28   ar
    74   121   120    2
    75    90    89    1
    76    71    70    1
    77    71    73   ar
    78   122   119    1
    79    35    32    1
    80    35    36    1
    81    49    48    1
    82    49    52    1
    83    32    33    1
    84    34    33    2
    85    27    29   ar
    86    89    88    1
    87    89    92    1
    88   120   119    1
    89   119   118    1
    90    33    37   am
    91    28    30   ar
    92    53    52    1
    93    53    54    1
    94    92    93    1
    95    29    30   ar
    96    37    38    1
    97   118   113   am
    98    39    38    1
    99    39    40    2
   100   114   113    2
   101    54    55    1
   102   113   112    1
   103    38    41    1
   104    41    42    1
   105    55    56    1
   106   110   109    1
   107    86    87   ar
   108    86    84   ar
   109   117   115    1
   110    42    43    1
   111    87    85   ar
   112    84    81   ar
   113    77    76    2
   114   112   115    1
   115   112   111    1
   116   115   116    1
   117   109   106    1
   118   108   107    2
   119   111   107   am
   120   107   106    1
   121    85    83   ar
   122    76    75    1
   123    43    44    1
   124    81    83   ar
   125    81    79   ar
   126   106   105    1
   127    75    78    1
   128    75    74    1
   129    44    45    2
   130    83    82   ar
   131    78    79    1
   132    79    80   ar
   133    45    46    1
   134    45    47    1
   135    82    80   ar
