@<TRIPOS>MOLECULE
tmp/3romB00.pdb
 109 108 0 0 0
SMALL
GASTEIGER

@<TRIPOS>ATOM
      1  N         19.1520   -7.1120   38.1550 N.3    81  LEU81      -0.1231
      2  CA        18.8150   -6.7700   36.7840 C.3    81  LEU81       0.1693
      3  C         19.7650   -5.6680   36.3290 C.2    81  LEU81       0.2592
      4  O         20.4200   -5.0350   37.1550 O.2    81  LEU81      -0.2718
      5  CB        17.3590   -6.3000   36.6900 C.3    81  LEU81       0.0284
      6  CG        16.3150   -7.3110   37.1790 C.3    81  LEU81       0.0019
      7  CD1       14.9120   -6.7400   37.0760 C.3    81  LEU81       0.0001
      8  CD2       16.4380   -8.5970   36.3900 C.3    81  LEU81       0.0001
      9  N         19.8630   -5.4590   35.0180 N.am   82  TRP82      -0.1962
     10  CA        20.6460   -4.3510   34.4890 C.3    82  TRP82       0.1771
     11  C         20.0510   -3.8120   33.2050 C.2    82  TRP82       0.2620
     12  O         19.3540   -4.5330   32.4850 O.2    82  TRP82      -0.2715
     13  CB        22.1150   -4.7560   34.2660 C.3    82  TRP82       0.0590
     14  CG        22.2880   -5.9440   33.4000 C.ar   82  TRP82       0.0006
     15  CD1       22.4180   -7.2310   33.8040 C.ar   82  TRP82       0.0946
     16  CD2       22.3390   -5.9620   31.9700 C.ar   82  TRP82       0.0152
     17  NE1       22.5480   -8.0590   32.7150 N.ar   82  TRP82      -0.2442
     18  CE2       22.5000   -7.3030   31.5760 C.ar   82  TRP82       0.0810
     19  CE3       22.2600   -4.9750   30.9840 C.ar   82  TRP82       0.0012
     20  CZ2       22.5880   -7.6850   30.2400 C.ar   82  TRP82       0.0191
     21  CZ3       22.3530   -5.3590   29.6490 C.ar   82  TRP82       0.0001
     22  CH2       22.5120   -6.7010   29.2930 C.ar   82  TRP82       0.0015
     23  N         20.3330   -2.5370   32.9420 N.am   83  SER83      -0.1936
     24  CA        20.0110   -1.9020   31.6730 C.3    83  SER83       0.2055
     25  C         21.2520   -1.1780   31.1420 C.2    83  SER83       0.2642
     26  O         21.7780   -0.2750   31.8050 O.2    83  SER83      -0.2714
     27  CB        18.8590   -0.9110   31.8300 C.3    83  SER83       0.2130
     28  OG        18.3970   -0.5110   30.5570 O.3    83  SER83      -0.2179
     29  N         21.7200   -1.6310   29.9720 N.am   84  ARG84      -0.1977
     30  CA        22.8520   -1.0550   29.2250 C.3    84  ARG84       0.1597
     31  C         24.1980   -0.9790   29.9550 C.2    84  ARG84       0.2287
     32  O         25.1360   -0.3740   29.4370 O.2    84  ARG84      -0.2864
     33  CB        22.4920    0.3420   28.6950 C.3    84  ARG84       0.0334
     34  CG        21.2800    0.3790   27.7810 C.3    84  ARG84       0.0492
     35  CD        21.5250   -0.3260   26.4550 C.3    84  ARG84       0.2205
     36  NE        20.2630   -0.6820   25.8030 N.pl3  84  ARG84      -0.0865
     37  CZ        19.8480   -0.2330   24.6190 C.cat  84  ARG84       0.5346
     38  NH1       18.6740   -0.6400   24.1470 N.pl3  84  ARG84       0.1354
     39  NH2       20.5870    0.6050   23.8970 N.pl3  84  ARG84       0.1354
     40  N         21.0690  -12.3340   34.9270 N.3   102  LEU102     -0.1231
     41  CA        20.5090  -13.2940   33.9810 C.3   102  LEU102      0.1693
     42  C         21.6160  -14.1400   33.3590 C.2   102  LEU102      0.2591
     43  O         21.4470  -15.3360   33.1340 O.2   102  LEU102     -0.2718
     44  CB        19.6980  -12.5510   32.9100 C.3   102  LEU102      0.0284
     45  CG        19.0450  -13.3640   31.7860 C.3   102  LEU102      0.0019
     46  CD1       18.2200  -14.5230   32.3530 C.3   102  LEU102      0.0001
     47  CD2       18.1870  -12.4630   30.9030 C.3   102  LEU102      0.0001
     48  N         22.7740  -13.5230   33.1390 N.am  103  GLU103     -0.1979
     49  CA        23.8960  -14.1890   32.4880 C.3   103  GLU103      0.1602
     50  C         24.6630  -15.1160   33.4280 C.2   103  GLU103      0.2287
     51  O         25.5880  -15.8040   33.0040 O.2   103  GLU103     -0.2864
     52  CB        24.8420  -13.1510   31.8760 C.3   103  GLU103      0.0415
     53  CG        24.2080  -12.2910   30.7690 C.3   103  GLU103      0.1163
     54  CD        23.1860  -11.2850   31.2790 C.2   103  GLU103      0.3649
     55  OE1       23.3840  -10.7270   32.3750 O.co2 103  GLU103     -0.2457
     56  OE2       22.1800  -11.0440   30.5810 O.co2 103  GLU103     -0.2457
     57  N         16.0410  -13.3460   24.3160 N.3   146  TRP146     -0.1241
     58  CA        16.2390  -12.5300   25.5100 C.3   146  TRP146      0.1605
     59  C         14.9190  -12.0750   26.1090 C.2   146  TRP146      0.2264
     60  O         14.8100  -11.9490   27.3230 O.2   146  TRP146     -0.2867
     61  CB        17.1500  -11.3410   25.2210 C.3   146  TRP146      0.0550
     62  CG        18.5580  -11.7800   24.9690 C.ar  146  TRP146      0.0003
     63  CD1       19.2340  -11.7380   23.7920 C.ar  146  TRP146      0.0946
     64  CD2       19.4460  -12.3670   25.9260 C.ar  146  TRP146      0.0152
     65  NE1       20.5030  -12.2450   23.9550 N.ar  146  TRP146     -0.2442
     66  CE2       20.6530  -12.6460   25.2580 C.ar  146  TRP146      0.0810
     67  CE3       19.3310  -12.6940   27.2780 C.ar  146  TRP146      0.0012
     68  CZ2       21.7430  -13.2270   25.9000 C.ar  146  TRP146      0.0191
     69  CZ3       20.4170  -13.2710   27.9200 C.ar  146  TRP146      0.0001
     70  CH2       21.6100  -13.5240   27.2300 C.ar  146  TRP146      0.0015
     71  N         14.3320  -13.3930   29.7970 N.3   150  SER150     -0.1217
     72  CA        14.1750  -12.2160   30.6750 C.3   150  SER150      0.1889
     73  C         12.8610  -12.2350   31.4330 C.2   150  SER150      0.2288
     74  O         12.8240  -11.8990   32.6100 O.2   150  SER150     -0.2866
     75  CB        14.1920  -10.9010   29.8850 C.3   150  SER150      0.2089
     76  OG        15.4730  -10.6320   29.3810 O.3   150  SER150     -0.2183
     77  N         12.9920   -0.0340   26.0240 N.3   177  SER177     -0.1202
     78  CA        14.0610   -1.0340   26.0520 C.3   177  SER177      0.2020
     79  C         13.5100   -2.3830   26.5110 C.2   177  SER177      0.2619
     80  O         12.3460   -2.4790   26.9120 O.2   177  SER177     -0.2717
     81  CB        15.1930   -0.5950   26.9850 C.3   177  SER177      0.2103
     82  OG        14.8120   -0.7010   28.3470 O.3   177  SER177     -0.2182
     83  N         14.3490   -3.4180   26.4580 N.am  178  THR178     -0.1938
     84  CA        13.9560   -4.7510   26.9190 C.3   178  THR178      0.2028
     85  C         13.7050   -4.7210   28.4110 C.2   178  THR178      0.2642
     86  O         12.7060   -5.2590   28.8890 O.2   178  THR178     -0.2714
     87  CB        15.0290   -5.8190   26.6360 C.3   178  THR178      0.1808
     88  OG1       15.3680   -5.8080   25.2470 O.3   178  THR178     -0.2208
     89  CG2       14.5110   -7.2030   27.0140 C.3   178  THR178      0.0379
     90  N         14.6190   -4.0980   29.1500 N.am  179  PHE179     -0.1973
     91  CA        14.4250   -3.9290   30.5850 C.3   179  PHE179      0.1639
     92  C         13.0770   -3.2670   30.8500 C.2   179  PHE179      0.2290
     93  O         12.2740   -3.7820   31.6140 O.2   179  PHE179     -0.2864
     94  CB        15.5560   -3.1140   31.2220 C.3   179  PHE179      0.0560
     95  CG        15.3080   -2.7840   32.6580 C.ar  179  PHE179     -0.0200
     96  CD1       15.3410   -3.7810   33.6200 C.ar  179  PHE179     -0.0042
     97  CD2       15.0110   -1.4880   33.0480 C.ar  179  PHE179     -0.0042
     98  CE1       15.0890   -3.4940   34.9520 C.ar  179  PHE179     -0.0003
     99  CE2       14.7570   -1.1890   34.3790 C.ar  179  PHE179     -0.0003
    100  CZ        14.7980   -2.1950   35.3350 C.ar  179  PHE179     -0.0000
    101  N         11.2490   -6.7640   31.3900 N.3   183  GLU183     -0.1245
    102  CA        11.6740   -7.0630   32.7510 C.3   183  GLU183      0.1567
    103  C         10.8670   -6.2880   33.7930 C.2   183  GLU183      0.2260
    104  O         10.3470   -6.8840   34.7350 O.2   183  GLU183     -0.2867
    105  CB        13.1810   -6.8420   32.9120 C.3   183  GLU183      0.0388
    106  CG        13.9750   -7.6050   31.8490 C.3   183  GLU183      0.1160
    107  CD        15.4070   -7.8620   32.2190 C.2   183  GLU183      0.3649
    108  OE1       15.8060   -7.5260   33.3580 O.co2 183  GLU183     -0.2457
    109  OE2       16.1310   -8.4060   31.3600 O.co2 183  GLU183     -0.2457
@<TRIPOS>BOND
     1    63    65   ar
     2    63    62   ar
     3    39    37    1
     4    65    66   ar
     5    38    37    1
     6    57    58    1
     7    37    36    2
     8    62    61    1
     9    62    64   ar
    10    61    58    1
    11    88    87    1
    12    66    68   ar
    13    66    64   ar
    14    58    59    1
    15    36    35    1
    16    68    70   ar
    17    64    67   ar
    18    77    78    1
    19    78    79    1
    20    78    81    1
    21    59    60    2
    22    35    34    1
    23    83    79   am
    24    83    84    1
    25    79    80    2
    26    87    84    1
    27    87    89    1
    28    84    85    1
    29    81    82    1
    30    70    69   ar
    31    67    69   ar
    32    34    33    1
    33    85    86    2
    34    85    90   am
    35    33    30    1
    36    90    91    1
    37    30    31    1
    38    30    29    1
    39    22    21   ar
    40    22    20   ar
    41    76    75    1
    42    32    31    2
    43    21    19   ar
    44    71    72    1
    45    75    72    1
    46    29    25   am
    47    20    18   ar
    48    28    27    1
    49    56    54   ar
    50    91    92    1
    51    91    94    1
    52    72    73    1
    53    53    54    1
    54    53    52    1
    55    92    93    2
    56    47    45    1
    57    19    16   ar
    58    25    24    1
    59    25    26    2
    60    94    95    1
    61    54    55   ar
    62   109   107   ar
    63   101   102    1
    64    73    74    2
    65    18    16   ar
    66    18    17   ar
    67    24    27    1
    68    24    23    1
    69    45    46    1
    70    45    44    1
    71   106   107    1
    72   106   105    1
    73    52    49    1
    74    16    14   ar
    75   107   108   ar
    76    12    11    2
    77    49    48    1
    78    49    50    1
    79    95    97   ar
    80    95    96   ar
    81    17    15   ar
    82   102   105    1
    83   102   103    1
    84    44    41    1
    85    23    11   am
    86    51    50    2
    87    97    99   ar
    88    43    42    2
    89    48    42   am
    90    11    10    1
    91    42    41    1
    92    14    15   ar
    93    14    13    1
    94    96    98   ar
    95   103   104    2
    96    41    40    1
    97    13    10    1
    98    99   100   ar
    99    10     9    1
   100    98   100   ar
   101     9     3   am
   102     3     2    1
   103     3     4    2
   104     8     6    1
   105     5     2    1
   106     5     6    1
   107     2     1    1
   108     7     6    1
