@<TRIPOS>MOLECULE
tmp/3ropA01.pdb
 99 94 0 0 0
SMALL
GASTEIGER

@<TRIPOS>ATOM
      1  N        -12.0640   12.6050   54.8000 N.3    81  TRP81      -0.1241
      2  CA       -11.7810   12.8060   56.2090 C.3    81  TRP81       0.1605
      3  C        -10.2880   12.7120   56.3710 C.2    81  TRP81       0.2264
      4  O         -9.6320   12.0710   55.5620 O.2    81  TRP81      -0.2867
      5  CB       -12.4890   11.7530   57.0810 C.3    81  TRP81       0.0550
      6  CG       -12.1380   10.3630   56.7050 C.ar   81  TRP81       0.0003
      7  CD1      -12.7740    9.5860   55.8030 C.ar   81  TRP81       0.0946
      8  CD2      -11.0600    9.5730   57.2290 C.ar   81  TRP81       0.0152
      9  NE1      -12.1680    8.3630   55.7150 N.ar   81  TRP81      -0.2442
     10  CE2      -11.1090    8.3290   56.5820 C.ar   81  TRP81       0.0810
     11  CE3      -10.0530    9.8050   58.1860 C.ar   81  TRP81       0.0012
     12  CZ2      -10.1930    7.3080   56.8530 C.ar   81  TRP81       0.0191
     13  CZ3       -9.1420    8.7980   58.4520 C.ar   81  TRP81       0.0001
     14  CH2       -9.2240    7.5550   57.7990 C.ar   81  TRP81       0.0015
     15  N        -10.9440    9.0510   61.7970 N.3    85  LYS85      -0.1245
     16  CA       -11.5530    7.8880   61.1490 C.3    85  LYS85       0.1561
     17  C        -12.8780    7.5160   61.7930 C.2    85  LYS85       0.2260
     18  O        -13.8740    7.3430   61.1160 O.2    85  LYS85      -0.2867
     19  CB       -10.5970    6.6900   61.2300 C.3    85  LYS85       0.0271
     20  CG       -10.9530    5.5410   60.3080 C.3    85  LYS85       0.0035
     21  CD        -9.8250    4.5310   60.2600 C.3    85  LYS85       0.0206
     22  CE       -10.2410    3.2400   59.5720 C.3    85  LYS85       0.1093
     23  NZ       -11.1770    2.4200   60.4000 N.3    85  LYS85      -0.1314
     24  N        -14.3850    6.7390   51.5060 N.3   101  LEU101     -0.1231
     25  CA       -13.6680    5.7410   50.7100 C.3   101  LEU101      0.1693
     26  C        -13.9190    4.3200   51.2400 C.2   101  LEU101      0.2591
     27  O        -14.1150    3.3700   50.4680 O.2   101  LEU101     -0.2718
     28  CB       -12.1650    6.0890   50.6860 C.3   101  LEU101      0.0284
     29  CG       -11.2430    5.0670   50.0040 C.3   101  LEU101      0.0019
     30  CD1      -11.5650    4.8970   48.5480 C.3   101  LEU101      0.0001
     31  CD2       -9.7920    5.4940   50.1950 C.3   101  LEU101      0.0001
     32  N        -13.9690    4.1780   52.5600 N.am  102  GLU102     -0.1979
     33  CA       -14.1610    2.8620   53.1820 C.3   102  GLU102      0.1602
     34  C        -15.5730    2.3060   53.0300 C.2   102  GLU102      0.2287
     35  O        -15.8080    1.1620   53.3630 O.2   102  GLU102     -0.2864
     36  CB       -13.7750    2.9090   54.6660 C.3   102  GLU102      0.0415
     37  CG       -12.3110    3.2290   54.9150 C.3   102  GLU102      0.1163
     38  CD       -11.9260    4.6760   54.6870 C.2   102  GLU102      0.3649
     39  OE1      -12.7930    5.5980   54.7540 O.co2 102  GLU102     -0.2457
     40  OE2      -10.7180    4.8820   54.4150 O.co2 102  GLU102     -0.2457
     41  N        -10.0380   -2.1170   54.4310 N.3   111  ASP111     -0.1239
     42  CA       -10.0660   -1.3030   55.6590 C.3   111  ASP111      0.1674
     43  C         -9.4660   -2.0670   56.8550 C.2   111  ASP111      0.2266
     44  O         -9.9100   -3.1650   57.1830 O.2   111  ASP111     -0.2867
     45  CB       -11.5090   -0.9130   55.9840 C.3   111  ASP111      0.1410
     46  CG       -11.6160    0.2660   56.9610 C.2   111  ASP111      0.3668
     47  OD1      -12.7060    0.4330   57.5470 O.co2 111  ASP111     -0.2456
     48  OD2      -10.6460    1.0360   57.1260 O.co2 111  ASP111     -0.2456
     49  N          0.4650    0.7130   51.0750 N.3   142  SER142     -0.1217
     50  CA         0.5720    2.1340   50.7520 C.3   142  SER142      0.1889
     51  C          0.1740    2.4060   49.2980 C.2   142  SER142      0.2288
     52  O         -0.5170    3.4010   49.0230 O.2   142  SER142     -0.2866
     53  CB         1.9880    2.6400   51.0210 C.3   142  SER142      0.2089
     54  OG         2.3110    2.5250   52.4070 O.3   142  SER142     -0.2183
     55  N         -3.6670    2.1500   48.7850 N.3   145  TRP145     -0.1227
     56  CA        -4.4330    3.2810   49.2830 C.3   145  TRP145      0.1737
     57  C         -4.2200    4.5320   48.4610 C.2   145  TRP145      0.2595
     58  O         -5.1690    5.2610   48.2340 O.2   145  TRP145     -0.2718
     59  CB        -4.1830    3.5300   50.7570 C.3   145  TRP145      0.0564
     60  CG        -4.8310    2.4890   51.6100 C.ar  145  TRP145      0.0003
     61  CD1       -4.1960    1.5470   52.3860 C.ar  145  TRP145      0.0946
     62  CD2       -6.2400    2.2640   51.7800 C.ar  145  TRP145      0.0152
     63  NE1       -5.1230    0.7570   53.0180 N.ar  145  TRP145     -0.2442
     64  CE2       -6.3830    1.1750   52.6730 C.ar  145  TRP145      0.0810
     65  CE3       -7.3960    2.8840   51.2740 C.ar  145  TRP145      0.0012
     66  CZ2       -7.6250    0.6950   53.0740 C.ar  145  TRP145      0.0191
     67  CZ3       -8.6340    2.4010   51.6710 C.ar  145  TRP145      0.0001
     68  CH2       -8.7400    1.3150   52.5680 C.ar  145  TRP145      0.0015
     69  N         -3.0000    4.7610   47.9820 N.am  146  LYS146     -0.1980
     70  CA        -2.7420    5.8860   47.1030 C.3   146  LYS146      0.1596
     71  C         -3.5730    5.7550   45.8290 C.2   146  LYS146      0.2287
     72  O         -4.1690    6.7200   45.3940 O.2   146  LYS146     -0.2864
     73  CB        -1.2540    6.0000   46.7770 C.3   146  LYS146      0.0298
     74  CG        -0.9270    7.2200   45.9340 C.3   146  LYS146      0.0038
     75  CD         0.5510    7.5080   45.8970 C.3   146  LYS146      0.0206
     76  CE         0.8300    8.8590   45.2290 C.3   146  LYS146      0.1093
     77  NZ         2.2560    8.9740   44.8570 N.3   146  LYS146     -0.1314
     78  N         -7.4490    6.1090   46.5520 N.3   149  SER149     -0.1217
     79  CA        -7.7330    7.4510   47.0780 C.3   149  SER149      0.1889
     80  C         -7.7490    8.4790   45.9490 C.2   149  SER149      0.2288
     81  O         -8.5760    9.3870   45.9380 O.2   149  SER149     -0.2866
     82  CB        -6.6970    7.8710   48.1110 C.3   149  SER149      0.2089
     83  OG        -6.8190    7.1320   49.3240 O.3   149  SER149     -0.2183
     84  N         -2.9130   11.4970   53.7120 N.3   177  THR177     -0.1218
     85  CA        -3.4370   11.0820   52.3930 C.3   177  THR177      0.1862
     86  C         -4.4270   12.0990   51.8380 C.2   177  THR177      0.2287
     87  O         -4.4370   12.3710   50.6350 O.2   177  THR177     -0.2866
     88  CB        -4.0400    9.6870   52.4020 C.3   177  THR177      0.1770
     89  OG1       -3.0500    8.7600   52.8460 O.3   177  THR177     -0.2211
     90  CG2       -4.5180    9.3090   50.9880 C.3   177  THR177      0.0375
     91  N         -5.5600   13.3910   47.9260 N.3   182  GLU182     -0.1245
     92  CA        -6.9580   13.6680   47.5930 C.3   182  GLU182      0.1567
     93  C         -7.2000   15.1250   47.1670 C.2   182  GLU182      0.2260
     94  O         -7.8680   15.3780   46.1550 O.2   182  GLU182     -0.2867
     95  CB        -7.8680   13.1930   48.7270 C.3   182  GLU182      0.0388
     96  CG        -7.7400   11.6880   48.9120 C.3   182  GLU182      0.1160
     97  CD        -8.2810   11.1390   50.2320 C.2   182  GLU182      0.3649
     98  OE1       -8.7620   11.9360   51.0540 O.co2 182  GLU182     -0.2457
     99  OE2       -8.2320    9.8840   50.4350 O.co2 182  GLU182     -0.2457
@<TRIPOS>BOND
     1    77    76    1
     2    76    75    1
     3    72    71    2
     4    71    70    1
     5    75    74    1
     6    74    73    1
     7    81    80    2
     8    80    79    1
     9    94    93    2
    10    78    79    1
    11    73    70    1
    12    79    82    1
    13    70    69    1
    14    93    92    1
    15    92    91    1
    16    92    95    1
    17    69    57   am
    18    82    83    1
    19    58    57    2
    20    57    56    1
    21    30    29    1
    22    95    96    1
    23    55    56    1
    24    96    97    1
    25    52    51    2
    26    56    59    1
    27    51    50    1
    28    29    31    1
    29    29    28    1
    30    97    99   ar
    31    97    98   ar
    32    27    26    2
    33    87    86    2
    34    28    25    1
    35    25    26    1
    36    25    24    1
    37    50    53    1
    38    50    49    1
    39    59    60    1
    40    90    88    1
    41    53    54    1
    42    26    32   am
    43    65    67   ar
    44    65    62   ar
    45    60    62   ar
    46    60    61   ar
    47    67    68   ar
    48    62    64   ar
    49    86    85    1
    50    61    63   ar
    51    85    88    1
    52    85    84    1
    53    88    89    1
    54    32    33    1
    55    68    66   ar
    56    64    63   ar
    57    64    66   ar
    58    34    33    1
    59    34    35    2
    60    33    36    1
    61    40    38   ar
    62    41    42    1
    63    36    37    1
    64    38    39   ar
    65    38    37    1
    66     1     2    1
    67     4     3    2
    68    42    45    1
    69    42    43    1
    70     9     7   ar
    71     9    10   ar
    72     7     6   ar
    73    45    46    1
    74     2     3    1
    75     2     5    1
    76    10    12   ar
    77    10     8   ar
    78     6     5    1
    79     6     8   ar
    80    12    14   ar
    81    43    44    2
    82    46    48   ar
    83    46    47   ar
    84     8    11   ar
    85    14    13   ar
    86    11    13   ar
    87    22    21    1
    88    22    23    1
    89    21    20    1
    90    20    19    1
    91    18    17    2
    92    16    19    1
    93    16    17    1
    94    16    15    1
