@<TRIPOS>MOLECULE
tmp/3ropA00.pdb
 106 104 0 0 0
SMALL
GASTEIGER

@<TRIPOS>ATOM
      1  N        -14.7450   13.1760   52.4570 N.3    80  LEU80      -0.1231
      2  CA       -13.3420   12.8960   52.7510 C.3    80  LEU80       0.1693
      3  C        -13.1500   13.1100   54.2640 C.2    80  LEU80       0.2592
      4  O        -13.9860   13.7200   54.9410 O.2    80  LEU80      -0.2718
      5  CB       -12.4460   13.8110   51.9280 C.3    80  LEU80       0.0284
      6  CG       -12.7170   13.7790   50.4170 C.3    80  LEU80       0.0019
      7  CD1      -11.8750   14.7970   49.6870 C.3    80  LEU80       0.0001
      8  CD2      -12.5130   12.3580   49.8320 C.3    80  LEU80       0.0001
      9  N        -12.0640   12.6050   54.8000 N.am   81  TRP81      -0.1962
     10  CA       -11.7810   12.8060   56.2090 C.3    81  TRP81       0.1771
     11  C        -10.2880   12.7120   56.3710 C.2    81  TRP81       0.2620
     12  O         -9.6320   12.0710   55.5620 O.2    81  TRP81      -0.2715
     13  CB       -12.4890   11.7530   57.0810 C.3    81  TRP81       0.0590
     14  CG       -12.1380   10.3630   56.7050 C.ar   81  TRP81       0.0006
     15  CD1      -12.7740    9.5860   55.8030 C.ar   81  TRP81       0.0946
     16  CD2      -11.0600    9.5730   57.2290 C.ar   81  TRP81       0.0152
     17  NE1      -12.1680    8.3630   55.7150 N.ar   81  TRP81      -0.2442
     18  CE2      -11.1090    8.3290   56.5820 C.ar   81  TRP81       0.0810
     19  CE3      -10.0530    9.8050   58.1860 C.ar   81  TRP81       0.0012
     20  CZ2      -10.1930    7.3080   56.8530 C.ar   81  TRP81       0.0191
     21  CZ3       -9.1420    8.7980   58.4520 C.ar   81  TRP81       0.0001
     22  CH2       -9.2240    7.5550   57.7990 C.ar   81  TRP81       0.0015
     23  N         -9.7640   13.3290   57.4220 N.am   82  SER82      -0.1936
     24  CA        -8.3490   13.2160   57.7240 C.3    82  SER82       0.2055
     25  C         -8.1300   13.0850   59.2380 C.2    82  SER82       0.2642
     26  O         -8.5580   13.9300   60.0100 O.2    82  SER82      -0.2714
     27  CB        -7.5810   14.4020   57.1500 C.3    82  SER82       0.2130
     28  OG        -6.2000   14.1390   57.0810 O.3    82  SER82      -0.2179
     29  N         -7.5100   11.9820   59.6420 N.am   83  ARG83      -0.1977
     30  CA        -7.1110   11.7450   61.0390 C.3    83  ARG83       0.1597
     31  C         -8.2710   11.7280   62.0320 C.2    83  ARG83       0.2287
     32  O         -8.0820   12.0010   63.2170 O.2    83  ARG83      -0.2864
     33  CB        -6.0870   12.8080   61.4770 C.3    83  ARG83       0.0334
     34  CG        -4.9350   13.0550   60.4930 C.3    83  ARG83       0.0492
     35  CD        -3.7620   12.1560   60.8110 C.3    83  ARG83       0.2205
     36  NE        -2.7110   12.1410   59.7860 N.pl3  83  ARG83      -0.0865
     37  CZ        -1.7480   13.0520   59.6510 C.cat  83  ARG83       0.5346
     38  NH1       -0.8310   12.9020   58.7010 N.pl3  83  ARG83       0.1354
     39  NH2       -1.6900   14.1160   60.4480 N.pl3  83  ARG83       0.1354
     40  N        -14.3850    6.7390   51.5060 N.3   101  LEU101     -0.1231
     41  CA       -13.6680    5.7410   50.7100 C.3   101  LEU101      0.1693
     42  C        -13.9190    4.3200   51.2400 C.2   101  LEU101      0.2591
     43  O        -14.1150    3.3700   50.4680 O.2   101  LEU101     -0.2718
     44  CB       -12.1650    6.0890   50.6860 C.3   101  LEU101      0.0284
     45  CG       -11.2430    5.0670   50.0040 C.3   101  LEU101      0.0019
     46  CD1      -11.5650    4.8970   48.5480 C.3   101  LEU101      0.0001
     47  CD2       -9.7920    5.4940   50.1950 C.3   101  LEU101      0.0001
     48  N        -13.9690    4.1780   52.5600 N.am  102  GLU102     -0.1979
     49  CA       -14.1610    2.8620   53.1820 C.3   102  GLU102      0.1602
     50  C        -15.5730    2.3060   53.0300 C.2   102  GLU102      0.2287
     51  O        -15.8080    1.1620   53.3630 O.2   102  GLU102     -0.2864
     52  CB       -13.7750    2.9090   54.6660 C.3   102  GLU102      0.0415
     53  CG       -12.3110    3.2290   54.9150 C.3   102  GLU102      0.1163
     54  CD       -11.9260    4.6760   54.6870 C.2   102  GLU102      0.3649
     55  OE1      -12.7930    5.5980   54.7540 O.co2 102  GLU102     -0.2457
     56  OE2      -10.7180    4.8820   54.4150 O.co2 102  GLU102     -0.2457
     57  N         -7.4490    6.1090   46.5520 N.3   149  SER149     -0.1217
     58  CA        -7.7330    7.4510   47.0780 C.3   149  SER149      0.1889
     59  C         -7.7490    8.4790   45.9490 C.2   149  SER149      0.2288
     60  O         -8.5760    9.3870   45.9380 O.2   149  SER149     -0.2866
     61  CB        -6.6970    7.8710   48.1110 C.3   149  SER149      0.2089
     62  OG        -6.8190    7.1320   49.3240 O.3   149  SER149     -0.2183
     63  N        -10.9780    7.8300   43.9950 N.3   152  PHE152     -0.1241
     64  CA       -12.1220    8.3070   44.7530 C.3   152  PHE152      0.1605
     65  C        -12.2190    9.8330   44.6490 C.2   152  PHE152      0.2264
     66  O        -13.3020   10.3530   44.3770 O.2   152  PHE152     -0.2867
     67  CB       -12.0050    7.8400   46.2040 C.3   152  PHE152      0.0534
     68  CG       -13.2350    8.0490   47.0360 C.ar  152  PHE152     -0.0203
     69  CD1      -14.4230    7.4130   46.7180 C.ar  152  PHE152     -0.0042
     70  CD2      -13.1850    8.8340   48.1840 C.ar  152  PHE152     -0.0042
     71  CE1      -15.5590    7.6000   47.4940 C.ar  152  PHE152     -0.0003
     72  CE2      -14.3140    9.0020   48.9830 C.ar  152  PHE152     -0.0003
     73  CZ       -15.5070    8.3730   48.6280 C.ar  152  PHE152     -0.0000
     74  N         -0.7290   14.0780   55.0970 N.3   176  SER176     -0.1202
     75  CA        -1.7750   13.0680   55.2040 C.3   176  SER176      0.2020
     76  C         -2.1740   12.6070   53.8060 C.2   176  SER176      0.2619
     77  O         -1.8190   13.2560   52.8120 O.2   176  SER176     -0.2717
     78  CB        -2.9900   13.6630   55.8950 C.3   176  SER176      0.2103
     79  OG        -3.6000   14.6550   55.0750 O.3   176  SER176     -0.2182
     80  N         -2.9130   11.4970   53.7120 N.am  177  THR177     -0.1938
     81  CA        -3.4370   11.0820   52.3930 C.3   177  THR177      0.2028
     82  C         -4.4270   12.0990   51.8380 C.2   177  THR177      0.2642
     83  O         -4.4370   12.3710   50.6350 O.2   177  THR177     -0.2714
     84  CB        -4.0400    9.6870   52.4020 C.3   177  THR177      0.1808
     85  OG1       -3.0500    8.7600   52.8460 O.3   177  THR177     -0.2208
     86  CG2       -4.5180    9.3090   50.9880 C.3   177  THR177      0.0379
     87  N         -5.2520   12.6870   52.6960 N.am  178  PHE178     -0.1973
     88  CA        -6.0940   13.7950   52.2580 C.3   178  PHE178      0.1639
     89  C         -5.2620   14.8950   51.6060 C.2   178  PHE178      0.2290
     90  O         -5.5740   15.3580   50.5060 O.2   178  PHE178     -0.2864
     91  CB        -6.8720   14.4020   53.4240 C.3   178  PHE178      0.0560
     92  CG        -7.6240   15.6490   53.0510 C.ar  178  PHE178     -0.0200
     93  CD1       -8.6180   15.6090   52.0710 C.ar  178  PHE178     -0.0042
     94  CD2       -7.3360   16.8610   53.6450 C.ar  178  PHE178     -0.0042
     95  CE1       -9.2980   16.7250   51.7280 C.ar  178  PHE178     -0.0003
     96  CE2       -8.0320   17.9960   53.2650 C.ar  178  PHE178     -0.0003
     97  CZ        -8.9890   17.9200   52.3020 C.ar  178  PHE178     -0.0000
     98  N         -5.5600   13.3910   47.9260 N.3   182  GLU182     -0.1245
     99  CA        -6.9580   13.6680   47.5930 C.3   182  GLU182      0.1567
    100  C         -7.2000   15.1250   47.1670 C.2   182  GLU182      0.2260
    101  O         -7.8680   15.3780   46.1550 O.2   182  GLU182     -0.2867
    102  CB        -7.8680   13.1930   48.7270 C.3   182  GLU182      0.0388
    103  CG        -7.7400   11.6880   48.9120 C.3   182  GLU182      0.1160
    104  CD        -8.2810   11.1390   50.2320 C.2   182  GLU182      0.3649
    105  OE1       -8.7620   11.9360   51.0540 O.co2 182  GLU182     -0.2457
    106  OE2       -8.2320    9.8840   50.4350 O.co2 182  GLU182     -0.2457
@<TRIPOS>BOND
     1    63    64    1
     2    66    65    2
     3    65    64    1
     4    64    67    1
     5    60    59    2
     6    59    58    1
     7   101   100    2
     8    67    68    1
     9    57    58    1
    10    69    68   ar
    11    69    71   ar
    12    68    70   ar
    13    58    61    1
    14   100    99    1
    15    71    73   ar
    16    99    98    1
    17    99   102    1
    18    61    62    1
    19    70    72   ar
    20    46    45    1
    21    73    72   ar
    22   102   103    1
    23   103   104    1
    24     7     6    1
    25     8     6    1
    26    45    47    1
    27    45    44    1
    28   104   106   ar
    29   104   105   ar
    30     6     5    1
    31    43    42    2
    32    90    89    2
    33    83    82    2
    34    44    41    1
    35    41    42    1
    36    41    40    1
    37    86    84    1
    38    42    48   am
    39    89    88    1
    40    95    93   ar
    41    95    97   ar
    42    82    81    1
    43    82    87   am
    44     5     2    1
    45    93    92   ar
    46    88    87    1
    47    88    91    1
    48    97    96   ar
    49    81    84    1
    50    81    80    1
    51    84    85    1
    52     1     2    1
    53    48    49    1
    54     2     3    1
    55    77    76    2
    56    50    49    1
    57    50    51    2
    58    92    91    1
    59    92    94   ar
    60    49    52    1
    61    96    94   ar
    62    80    76   am
    63    76    75    1
    64     3     9   am
    65     3     4    2
    66    56    54   ar
    67    52    53    1
    68    54    55   ar
    69    54    53    1
    70     9    10    1
    71    79    78    1
    72    74    75    1
    73    75    78    1
    74    12    11    2
    75    17    15   ar
    76    17    18   ar
    77    15    14   ar
    78    10    11    1
    79    10    13    1
    80    11    23   am
    81    18    20   ar
    82    18    16   ar
    83    14    13    1
    84    14    16   ar
    85    20    22   ar
    86    28    27    1
    87    27    24    1
    88    16    19   ar
    89    23    24    1
    90    24    25    1
    91    22    21   ar
    92    19    21   ar
    93    38    37    1
    94    25    29   am
    95    25    26    2
    96    29    30    1
    97    37    36    2
    98    37    39    1
    99    36    35    1
   100    34    35    1
   101    34    33    1
   102    30    33    1
   103    30    31    1
   104    31    32    2
