@<TRIPOS>MOLECULE
tmp/3roqA00.pdb
 161 160 0 0 0
SMALL
GASTEIGER

@<TRIPOS>ATOM
      1  N       -397.6950 -931.1760   -7.8120 N.3    80  LEU80      -0.1231
      2  CA      -397.9530 -931.5400   -6.4310 C.3    80  LEU80       0.1693
      3  C       -396.9560 -932.6210   -6.0180 C.2    80  LEU80       0.2592
      4  O       -396.3410 -933.2690   -6.8780 O.2    80  LEU80      -0.2718
      5  CB      -399.4070 -932.0070   -6.2540 C.3    80  LEU80       0.0284
      6  CG      -400.4570 -930.9790   -6.7110 C.3    80  LEU80       0.0019
      7  CD1     -401.8490 -931.5520   -6.6040 C.3    80  LEU80       0.0001
      8  CD2     -400.3640 -929.6290   -5.9330 C.3    80  LEU80       0.0001
      9  N       -396.7880 -932.7840   -4.7060 N.am   81  TRP81      -0.1962
     10  CA      -395.9340 -933.8090   -4.1000 C.3    81  TRP81       0.1771
     11  C       -396.5180 -934.1500   -2.7310 C.2    81  TRP81       0.2620
     12  O       -397.1100 -933.2900   -2.0590 O.2    81  TRP81      -0.2715
     13  CB      -394.4790 -933.3190   -3.9290 C.3    81  TRP81       0.0590
     14  CG      -394.3600 -932.0300   -3.0980 C.ar   81  TRP81       0.0006
     15  CD1     -394.3570 -930.7550   -3.5760 C.ar   81  TRP81       0.0946
     16  CD2     -394.2530 -931.9180   -1.6630 C.ar   81  TRP81       0.0152
     17  NE1     -394.2630 -929.8490   -2.5360 N.ar   81  TRP81      -0.2442
     18  CE2     -394.1930 -930.5360   -1.3520 C.ar   81  TRP81       0.0810
     19  CE3     -394.2040 -932.8480   -0.6130 C.ar   81  TRP81       0.0012
     20  CZ2     -394.0870 -930.0620   -0.0340 C.ar   81  TRP81       0.0191
     21  CZ3     -394.1050 -932.3760    0.7030 C.ar   81  TRP81       0.0001
     22  CH2     -394.0440 -930.9920    0.9760 C.ar   81  TRP81       0.0015
     23  N       -396.3480 -935.3930   -2.3090 N.am   82  SER82      -0.1936
     24  CA      -396.6500 -935.7480   -0.9310 C.3    82  SER82       0.2055
     25  C       -395.4170 -936.3890   -0.2910 C.2    82  SER82       0.2642
     26  O       -394.9120 -937.3890   -0.8000 O.2    82  SER82      -0.2714
     27  CB      -397.8680 -936.6630   -0.8530 C.3    82  SER82       0.2130
     28  OG      -398.3120 -936.8100    0.4880 O.3    82  SER82      -0.2179
     29  N       -394.9250 -935.7680    0.7860 N.am   83  ARG83      -0.1977
     30  CA      -393.8110 -936.2670    1.6260 C.3    83  ARG83       0.1597
     31  C       -392.4880 -936.5400    0.8950 C.2    83  ARG83       0.2287
     32  O       -391.6710 -937.3400    1.3540 O.2    83  ARG83      -0.2864
     33  CB      -394.2340 -937.5210    2.4080 C.3    83  ARG83       0.0334
     34  CG      -395.4360 -937.3240    3.3330 C.3    83  ARG83       0.0492
     35  CD      -395.3680 -938.2380    4.5400 C.3    83  ARG83       0.2205
     36  NE      -394.3910 -937.7530    5.5130 N.pl3  83  ARG83      -0.0865
     37  CZ      -394.3350 -938.1430    6.7820 C.cat  83  ARG83       0.5346
     38  NH1     -393.4110 -937.6380    7.5920 N.pl3  83  ARG83       0.1354
     39  NH2     -395.2040 -939.0340    7.2450 N.pl3  83  ARG83       0.1354
     40  N       -395.9840 -925.7230   -4.8620 N.3   101  LEU101     -0.1231
     41  CA      -396.5080 -924.7120   -3.9740 C.3   101  LEU101      0.1693
     42  C       -395.4120 -923.7740   -3.4590 C.2   101  LEU101      0.2591
     43  O       -395.6280 -922.5670   -3.2980 O.2   101  LEU101     -0.2718
     44  CB      -397.2410 -925.3830   -2.8070 C.3   101  LEU101      0.0284
     45  CG      -397.7980 -924.4720   -1.6980 C.3   101  LEU101      0.0019
     46  CD1     -398.7010 -923.3870   -2.2760 C.3   101  LEU101      0.0001
     47  CD2     -398.5350 -925.3290   -0.6340 C.3   101  LEU101      0.0001
     48  N       -394.2330 -924.3250   -3.2150 N.am  102  GLU102     -0.1979
     49  CA      -393.1500 -923.5630   -2.6040 C.3   102  GLU102      0.1602
     50  C       -392.3730 -922.7040   -3.6150 C.2   102  GLU102      0.2287
     51  O       -391.4510 -921.9820   -3.2550 O.2   102  GLU102     -0.2864
     52  CB      -392.2230 -924.5030   -1.8380 C.3   102  GLU102      0.0415
     53  CG      -392.9030 -925.2000   -0.6520 C.3   102  GLU102      0.1163
     54  CD      -393.7600 -926.4090   -1.0350 C.2   102  GLU102      0.3649
     55  OE1     -393.5320 -927.0380   -2.1020 O.co2 102  GLU102     -0.2457
     56  OE2     -394.6700 -926.7310   -0.2410 O.co2 102  GLU102     -0.2457
     57  N       -399.4640 -930.3040   15.7540 N.3   132  TRP132     -0.1227
     58  CA      -400.7100 -930.5940   15.0710 C.3   132  TRP132      0.1737
     59  C       -401.4830 -931.7320   15.7490 C.2   132  TRP132      0.2595
     60  O       -402.6970 -931.6290   15.9550 O.2   132  TRP132     -0.2718
     61  CB      -400.4310 -930.8900   13.5860 C.3   132  TRP132      0.0564
     62  CG      -401.5860 -931.4640   12.8570 C.ar  132  TRP132      0.0003
     63  CD1     -402.7960 -930.8690   12.6380 C.ar  132  TRP132      0.0946
     64  CD2     -401.6590 -932.7590   12.2450 C.ar  132  TRP132      0.0152
     65  NE1     -403.6230 -931.7170   11.9360 N.ar  132  TRP132     -0.2442
     66  CE2     -402.9470 -932.8800   11.6740 C.ar  132  TRP132      0.0810
     67  CE3     -400.7550 -933.8230   12.1070 C.ar  132  TRP132      0.0012
     68  CZ2     -403.3580 -934.0270   10.9800 C.ar  132  TRP132      0.0191
     69  CZ3     -401.1670 -934.9650   11.4190 C.ar  132  TRP132      0.0001
     70  CH2     -402.4570 -935.0570   10.8690 C.ar  132  TRP132      0.0015
     71  N       -400.7700 -932.7900   16.1310 N.am  133  ARG133     -0.1980
     72  CA      -401.3920 -933.9910   16.6850 C.3   133  ARG133      0.1597
     73  C       -401.5660 -933.9530   18.2020 C.2   133  ARG133      0.2287
     74  O       -402.6260 -934.3050   18.7230 O.2   133  ARG133     -0.2864
     75  CB      -400.5740 -935.2310   16.3150 C.3   133  ARG133      0.0334
     76  CG      -400.7150 -935.6870   14.8760 C.3   133  ARG133      0.0492
     77  CD      -400.3740 -937.1650   14.7500 C.3   133  ARG133      0.2205
     78  NE      -400.2020 -937.5660   13.3560 N.pl3 133  ARG133     -0.0865
     79  CZ      -401.1650 -938.0670   12.5850 C.cat 133  ARG133      0.5346
     80  NH1     -402.3910 -938.2370   13.0680 N.pl3 133  ARG133      0.1354
     81  NH2     -400.9000 -938.3960   11.3240 N.pl3 133  ARG133      0.1354
     82  N       -400.8620 -923.6750    5.8290 N.3   145  TRP145     -0.1241
     83  CA      -400.6090 -924.6160    4.7440 C.3   145  TRP145      0.1605
     84  C       -401.8980 -925.1350    4.1190 C.2   145  TRP145      0.2264
     85  O       -401.9620 -925.3310    2.9140 O.2   145  TRP145     -0.2867
     86  CB      -399.6720 -925.7500    5.1810 C.3   145  TRP145      0.0550
     87  CG      -398.2480 -925.2820    5.2990 C.ar  145  TRP145      0.0003
     88  CD1     -397.4890 -925.2090    6.4480 C.ar  145  TRP145      0.0946
     89  CD2     -397.4080 -924.8030    4.2340 C.ar  145  TRP145      0.0152
     90  NE1     -396.2390 -924.7170    6.1560 N.ar  145  TRP145     -0.2442
     91  CE2     -396.1570 -924.4700    4.8070 C.ar  145  TRP145      0.0810
     92  CE3     -397.5870 -924.6460    2.8480 C.ar  145  TRP145      0.0012
     93  CZ2     -395.0940 -923.9620    4.0480 C.ar  145  TRP145      0.0191
     94  CZ3     -396.5300 -924.1360    2.0920 C.ar  145  TRP145      0.0001
     95  CH2     -395.2990 -923.7930    2.6990 C.ar  145  TRP145      0.0015
     96  N       -402.6520 -924.4310    0.2580 N.3   149  SER149     -0.1217
     97  CA      -402.7620 -925.6930   -0.5080 C.3   149  SER149      0.1889
     98  C       -404.1130 -925.8700   -1.1990 C.2   149  SER149      0.2288
     99  O       -404.1780 -926.4010   -2.2990 O.2   149  SER149     -0.2866
    100  CB      -402.4940 -926.8920    0.3940 C.3   149  SER149      0.2089
    101  OG      -401.1770 -926.8420    0.8930 O.3   149  SER149     -0.2183
    102  N       -404.1510 -923.3520   -4.1630 N.3   152  PHE152     -0.1241
    103  CA      -403.2100 -923.8500   -5.1580 C.3   152  PHE152      0.1605
    104  C       -403.7950 -925.0290   -5.9310 C.2   152  PHE152      0.2264
    105  O       -403.6810 -925.0920   -7.1560 O.2   152  PHE152     -0.2867
    106  CB      -401.8860 -924.2400   -4.4790 C.3   152  PHE152      0.0534
    107  CG      -400.7440 -924.4800   -5.4400 C.ar  152  PHE152     -0.0203
    108  CD1     -400.1940 -923.4250   -6.1760 C.ar  152  PHE152     -0.0042
    109  CD2     -400.2030 -925.7520   -5.5890 C.ar  152  PHE152     -0.0042
    110  CE1     -399.1320 -923.6440   -7.0550 C.ar  152  PHE152     -0.0003
    111  CE2     -399.1300 -925.9780   -6.4530 C.ar  152  PHE152     -0.0003
    112  CZ      -398.5970 -924.9260   -7.1920 C.ar  152  PHE152     -0.0000
    113  N       -401.1420 -941.4650    1.2080 N.3   173  ASP173     -0.1239
    114  CA      -401.6780 -941.4060    2.5420 C.3   173  ASP173      0.1674
    115  C       -402.8230 -940.4090    2.4700 C.2   173  ASP173      0.2266
    116  O       -402.5940 -939.1980    2.3400 O.2   173  ASP173     -0.2867
    117  CB      -400.5820 -940.9220    3.4930 C.3   173  ASP173      0.1410
    118  CG      -401.0310 -940.8540    4.9340 C.2   173  ASP173      0.3668
    119  OD1     -402.2480 -940.9560    5.2070 O.co2 173  ASP173     -0.2456
    120  OD2     -400.1450 -940.6980    5.7980 O.co2 173  ASP173     -0.2456
    121  N       -404.5100 -939.1930    4.4840 N.3   175  ASP175     -0.1225
    122  CA      -404.4690 -938.3040    5.6340 C.3   175  ASP175      0.1805
    123  C       -403.4770 -937.1590    5.4380 C.2   175  ASP175      0.2598
    124  O       -403.5180 -936.1700    6.1740 O.2   175  ASP175     -0.2718
    125  CB      -404.1170 -939.0920    6.9030 C.3   175  ASP175      0.1424
    126  CG      -405.3250 -939.7790    7.5300 C.2   175  ASP175      0.3668
    127  OD1     -406.4730 -939.4900    7.1250 O.co2 175  ASP175     -0.2456
    128  OD2     -405.1240 -940.6030    8.4510 O.co2 175  ASP175     -0.2456
    129  N       -402.5870 -937.2890    4.4510 N.am  176  SER176     -0.1938
    130  CA      -401.6340 -936.2150    4.1430 C.3   176  SER176      0.2055
    131  C       -402.3730 -934.9440    3.7040 C.2   176  SER176      0.2644
    132  O       -403.6020 -934.9590    3.5480 O.2   176  SER176     -0.2714
    133  CB      -400.6170 -936.6690    3.0850 C.3   176  SER176      0.2130
    134  OG      -401.2380 -936.9720    1.8470 O.3   176  SER176     -0.2179
    135  N       -401.6430 -933.8450    3.5260 N.am  177  THR177     -0.1936
    136  CA      -402.2390 -932.6270    2.9750 C.3   177  THR177      0.2028
    137  C       -402.5880 -932.8180    1.5020 C.2   177  THR177      0.2642
    138  O       -403.5870 -932.2730    1.0000 O.2   177  THR177     -0.2714
    139  CB      -401.3160 -931.4000    3.1560 C.3   177  THR177      0.1808
    140  OG1     -400.8930 -931.3240    4.5170 O.3   177  THR177     -0.2208
    141  CG2     -402.0380 -930.1080    2.7840 C.3   177  THR177      0.0379
    142  N       -401.7730 -933.5970    0.7990 N.am  178  PHE178     -0.1973
    143  CA      -402.1290 -933.9390   -0.5700 C.3   178  PHE178      0.1639
    144  C       -403.5020 -934.6100   -0.5500 C.2   178  PHE178      0.2290
    145  O       -404.4600 -934.0890   -1.1280 O.2   178  PHE178     -0.2864
    146  CB      -401.0870 -934.8490   -1.2220 C.3   178  PHE178      0.0560
    147  CG      -401.4960 -935.3390   -2.5820 C.ar  178  PHE178     -0.0200
    148  CD1     -401.6810 -934.4380   -3.6250 C.ar  178  PHE178     -0.0042
    149  CD2     -401.7130 -936.6960   -2.8100 C.ar  178  PHE178     -0.0042
    150  CE1     -402.0770 -934.8780   -4.8880 C.ar  178  PHE178     -0.0003
    151  CE2     -402.1080 -937.1540   -4.0790 C.ar  178  PHE178     -0.0003
    152  CZ      -402.2840 -936.2400   -5.1170 C.ar  178  PHE178     -0.0000
    153  N       -405.6370 -931.2020   -0.9820 N.3   182  GLU182     -0.1245
    154  CA      -405.3370 -930.9520   -2.3780 C.3   182  GLU182      0.1567
    155  C       -406.1900 -931.7600   -3.3310 C.2   182  GLU182      0.2260
    156  O       -406.8450 -931.1800   -4.2020 O.2   182  GLU182     -0.2867
    157  CB      -403.8420 -931.0810   -2.6640 C.3   182  GLU182      0.0388
    158  CG      -403.0630 -929.9040   -2.0680 C.3   182  GLU182      0.1160
    159  CD      -401.6110 -930.2180   -1.8260 C.2   182  GLU182      0.3649
    160  OE1     -401.0750 -931.1400   -2.5020 O.co2 182  GLU182     -0.2457
    161  OE2     -401.0120 -929.5410   -0.9590 O.co2 182  GLU182     -0.2457
@<TRIPOS>BOND
     1     1     2    1
     2   112   110   ar
     3   112   111   ar
     4   105   104    2
     5   110   108   ar
     6     4     3    2
     7     6     7    1
     8     6     5    1
     9     6     8    1
    10   111   109   ar
    11     2     5    1
    12     2     3    1
    13   108   107   ar
    14     3     9   am
    15   104   103    1
    16   109   107   ar
    17   107   106    1
    18   103   106    1
    19   103   102    1
    20   152   150   ar
    21   152   151   ar
    22   150   148   ar
    23    40    41    1
    24     9    10    1
    25   156   155    2
    26    10    13    1
    27    10    11    1
    28   151   149   ar
    29    41    42    1
    30    41    44    1
    31    13    14    1
    32   148   147   ar
    33    50    51    2
    34    50    49    1
    35    15    14   ar
    36    15    17   ar
    37    42    43    2
    38    42    48   am
    39   155   154    1
    40    48    49    1
    41    14    16   ar
    42   149   147   ar
    43    44    45    1
    44    11    23   am
    45    11    12    2
    46   157   154    1
    47   157   158    1
    48    49    52    1
    49   147   146    1
    50    17    18   ar
    51   160   159   ar
    52   154   153    1
    53    23    24    1
    54    99    98    2
    55    46    45    1
    56    55    54   ar
    57   158   159    1
    58    52    53    1
    59   159   161   ar
    60    45    47    1
    61    16    18   ar
    62    16    19   ar
    63    18    20   ar
    64   146   143    1
    65    98    97    1
    66   145   144    2
    67    54    53    1
    68    54    56   ar
    69    24    27    1
    70    24    25    1
    71    27    28    1
    72    26    25    2
    73    19    21   ar
    74   143   144    1
    75   143   142    1
    76    97    96    1
    77    97   100    1
    78    25    29   am
    79    20    22   ar
    80   100   101    1
    81    21    22   ar
    82    29    30    1
    83   142   137   am
    84    31    32    2
    85    31    30    1
    86   138   137    2
    87   113   114    1
    88   137   136    1
    89    30    33    1
    90   134   133    1
    91    94    95   ar
    92    94    92   ar
    93   116   115    2
    94    33    34    1
    95   115   114    1
    96   114   117    1
    97    95    93   ar
    98   141   139    1
    99    92    89   ar
   100    85    84    2
   101   136   139    1
   102   136   135    1
   103   133   130    1
   104   139   140    1
   105    34    35    1
   106   117   118    1
   107   135   131   am
   108   132   131    2
   109   131   130    1
   110    93    91   ar
   111    84    83    1
   112   130   129    1
   113    89    91   ar
   114    89    87   ar
   115   129   123   am
   116   121   122    1
   117    35    36    1
   118    83    86    1
   119    83    82    1
   120    91    90   ar
   121   118   119   ar
   122   118   120   ar
   123    86    87    1
   124    87    88   ar
   125   123   122    1
   126   123   124    2
   127    36    37    2
   128   122   125    1
   129    90    88   ar
   130    37    39    1
   131    37    38    1
   132   125   126    1
   133   127   126   ar
   134   126   128   ar
   135    70    68   ar
   136    70    69   ar
   137    68    66   ar
   138    81    79    1
   139    69    67   ar
   140    66    65   ar
   141    66    64   ar
   142    65    63   ar
   143    67    64   ar
   144    64    62   ar
   145    79    80    1
   146    79    78    2
   147    63    62   ar
   148    62    61    1
   149    78    77    1
   150    61    58    1
   151    77    76    1
   152    76    75    1
   153    58    59    1
   154    58    57    1
   155    59    60    2
   156    59    71   am
   157    71    72    1
   158    75    72    1
   159    72    73    1
   160    73    74    2
