@<TRIPOS>MOLECULE
tmp/3roxA00.pdb
 138 128 0 0 0
SMALL
GASTEIGER

@<TRIPOS>ATOM
      1  N          6.5830   20.2440   21.5200 N.3     5  LEU5       -0.1245
      2  CA         7.9770   20.3090   21.0540 C.3     5  LEU5        0.1561
      3  C          8.7630   19.0170   21.1850 C.2     5  LEU5        0.2260
      4  O          8.4820   18.1870   22.0550 O.2     5  LEU5       -0.2867
      5  CB         8.7270   21.3840   21.8330 C.3     5  LEU5        0.0270
      6  CG         8.4640   22.8090   21.4160 C.3     5  LEU5        0.0019
      7  CD1        7.0710   22.9570   20.8110 C.3     5  LEU5        0.0001
      8  CD2        8.6650   23.6800   22.6370 C.3     5  LEU5        0.0001
      9  N         12.9370   22.3260   21.9050 N.3    10  ALA10      -0.1245
     10  CA        12.9530   22.9690   23.2090 C.3    10  ALA10       0.1562
     11  C         14.3590   23.3300   23.6910 C.2    10  ALA10       0.2260
     12  O         14.5410   24.4130   24.2420 O.2    10  ALA10      -0.2867
     13  CB        12.2160   22.1460   24.2440 C.3    10  ALA10       0.0290
     14  N         14.8310   26.6100   21.8060 N.3    13  VAL13      -0.1231
     15  CA        14.0950   27.7480   22.2960 C.3    13  VAL13       0.1692
     16  C         14.7840   28.2260   23.5670 C.2    13  VAL13       0.2592
     17  O         15.0630   29.3990   23.7250 O.2    13  VAL13      -0.2718
     18  CB        12.6460   27.3790   22.5510 C.3    13  VAL13       0.0266
     19  CG1       12.0980   28.1620   23.7150 C.3    13  VAL13       0.0020
     20  CG2       11.8420   27.5840   21.2720 C.3    13  VAL13       0.0020
     21  N         15.1290   27.2870   24.4330 N.am   14  ASP14      -0.1974
     22  CA        15.7500   27.6160   25.7090 C.3    14  ASP14       0.1709
     23  C         17.0630   28.3730   25.5070 C.2    14  ASP14       0.2293
     24  O         17.2920   29.3840   26.1570 O.2    14  ASP14      -0.2864
     25  CB        15.8870   26.3260   26.5530 C.3    14  ASP14       0.1436
     26  CG        16.7240   26.4980   27.8540 C.2    14  ASP14       0.3671
     27  OD1       16.1230   26.5840   28.9560 O.co2  14  ASP14      -0.2456
     28  OD2       17.9860   26.4630   27.7940 O.co2  14  ASP14      -0.2456
     29  N         16.6430   31.9200   24.4680 N.3    17  LEU17      -0.1231
     30  CA        16.1940   32.7520   25.5500 C.3    17  LEU17       0.1693
     31  C         17.3740   33.2920   26.3460 C.2    17  LEU17       0.2592
     32  O         17.3320   34.4540   26.7520 O.2    17  LEU17      -0.2718
     33  CB        15.1910   32.0370   26.4790 C.3    17  LEU17       0.0284
     34  CG        13.7400   31.8170   26.0500 C.3    17  LEU17       0.0019
     35  CD1       12.9810   31.0090   27.1190 C.3    17  LEU17       0.0001
     36  CD2       13.0340   33.1180   25.8570 C.3    17  LEU17       0.0001
     37  N         18.4190   32.4940   26.5670 N.am   18  PHE18      -0.1976
     38  CA        19.5180   32.9330   27.4370 C.3    18  PHE18       0.1639
     39  C         20.6370   33.5610   26.6650 C.2    18  PHE18       0.2290
     40  O         21.3720   34.3950   27.1970 O.2    18  PHE18      -0.2864
     41  CB        20.0770   31.7610   28.2400 C.3    18  PHE18       0.0560
     42  CG        19.0740   31.1530   29.1640 C.ar   18  PHE18      -0.0200
     43  CD1       18.5720   31.8830   30.2340 C.ar   18  PHE18      -0.0042
     44  CD2       18.6060   29.8610   28.9660 C.ar   18  PHE18      -0.0042
     45  CE1       17.6080   31.3170   31.1180 C.ar   18  PHE18      -0.0003
     46  CE2       17.6480   29.2940   29.8390 C.ar   18  PHE18      -0.0003
     47  CZ        17.1500   30.0230   30.9050 C.ar   18  PHE18      -0.0000
     48  N         13.9990   33.6020   34.6380 N.3    28  LEU28      -0.1245
     49  CA        13.0280   32.6510   34.1160 C.3    28  LEU28       0.1561
     50  C         12.6840   31.5780   35.0990 C.2    28  LEU28       0.2260
     51  O         11.5460   31.0920   35.1540 O.2    28  LEU28      -0.2867
     52  CB        13.5740   32.0210   32.8490 C.3    28  LEU28       0.0270
     53  CG        13.7760   33.0010   31.7320 C.3    28  LEU28       0.0019
     54  CD1       14.2920   32.2700   30.4980 C.3    28  LEU28       0.0001
     55  CD2       12.4460   33.7440   31.4930 C.3    28  LEU28       0.0001
     56  N          9.0580   30.5440   36.1740 N.3    31  ALA31      -0.1245
     57  CA         8.5810   29.1610   35.9410 C.3    31  ALA31       0.1562
     58  C          8.0480   28.5830   37.1970 C.2    31  ALA31       0.2260
     59  O          6.9780   27.9750   37.2250 O.2    31  ALA31      -0.2867
     60  CB         9.6920   28.2780   35.3580 C.3    31  ALA31       0.0290
     61  N         17.8080   21.5800   36.8200 N.3    62  ASN62      -0.1225
     62  CA        16.9570   22.8010   36.7890 C.3    62  ASN62       0.1785
     63  C         15.5130   22.6440   37.1900 C.2    62  ASN62       0.2597
     64  O         14.8970   23.6060   37.7220 O.2    62  ASN62      -0.2718
     65  CB        17.0080   23.4180   35.4010 C.3    62  ASN62       0.1169
     66  CG        18.2750   24.1130   35.1840 C.2    62  ASN62       0.2627
     67  OD1       18.7900   24.7230   36.1240 O.2    62  ASN62      -0.2716
     68  ND2       18.8290   24.0400   33.9590 N.am   62  ASN62      -0.0877
     69  N         14.9820   21.4540   36.9090 N.am   63  ASN63      -0.1974
     70  CA        13.6500   21.0740   37.3150 C.3    63  ASN63       0.1688
     71  C         13.5890   21.1360   38.8380 C.2    63  ASN63       0.2292
     72  O         12.6530   21.7130   39.4120 O.2    63  ASN63      -0.2864
     73  CB        13.3480   19.6980   36.7650 C.3    63  ASN63       0.1181
     74  CG        11.8410   19.3690   36.6610 C.2    63  ASN63       0.2629
     75  OD1       11.3510   18.4700   37.3810 O.2    63  ASN63      -0.2716
     76  ND2       11.1390   19.9770   35.6900 N.am   63  ASN63      -0.0877
     77  N         13.1860   24.6340   39.7430 N.3    66  ASP66      -0.1239
     78  CA        11.8210   25.0960   39.5900 C.3    66  ASP66       0.1674
     79  C         11.0260   24.6450   40.7850 C.2    66  ASP66       0.2266
     80  O         10.1720   25.3670   41.2970 O.2    66  ASP66      -0.2867
     81  CB        11.1810   24.5600   38.3080 C.3    66  ASP66       0.1410
     82  CG        11.8820   25.0430   37.0310 C.2    66  ASP66       0.3668
     83  OD1       12.4450   26.1730   36.9850 O.co2  66  ASP66      -0.2456
     84  OD2       11.8730   24.2720   36.0410 O.co2  66  ASP66      -0.2456
     85  N         13.3310   18.7570   30.8550 N.3   129  PHE129     -0.1241
     86  CA        13.3140   18.6280   29.3790 C.3   129  PHE129      0.1605
     87  C         14.5980   18.0510   28.7910 C.2   129  PHE129      0.2264
     88  O         14.5880   17.4350   27.7300 O.2   129  PHE129     -0.2867
     89  CB        12.8860   19.9550   28.6500 C.3   129  PHE129      0.0534
     90  CG        13.8790   21.0940   28.7550 C.ar  129  PHE129     -0.0203
     91  CD1       13.9430   21.8790   29.9030 C.ar  129  PHE129     -0.0042
     92  CD2       14.7180   21.3990   27.6950 C.ar  129  PHE129     -0.0042
     93  CE1       14.8470   22.9310   30.0130 C.ar  129  PHE129     -0.0003
     94  CE2       15.6210   22.4670   27.7760 C.ar  129  PHE129     -0.0003
     95  CZ        15.6820   23.2370   28.9380 C.ar  129  PHE129     -0.0000
     96  N          6.7240   20.2190   34.0560 N.3   157  ASP157     -0.1239
     97  CA         7.2530   20.1570   32.6660 C.3   157  ASP157      0.1674
     98  C          7.0800   18.7800   32.0220 C.2   157  ASP157      0.2266
     99  O          6.4470   18.6410   30.9730 O.2   157  ASP157     -0.2867
    100  CB         8.7350   20.6080   32.5920 C.3   157  ASP157      0.1410
    101  CG         9.0580   21.4020   31.3310 C.2   157  ASP157      0.3668
    102  OD1        8.1270   21.9640   30.6790 O.co2 157  ASP157     -0.2456
    103  OD2       10.2730   21.4730   30.9970 O.co2 157  ASP157     -0.2456
    104  N          6.0470   23.9900   30.8050 N.3   180  LEU180     -0.1231
    105  CA         6.6690   25.3110   30.9290 C.3   180  LEU180      0.1693
    106  C          7.1130   25.7590   29.5770 C.2   180  LEU180      0.2592
    107  O          7.6890   24.9820   28.8310 O.2   180  LEU180     -0.2718
    108  CB         7.8630   25.3030   31.8850 C.3   180  LEU180      0.0284
    109  CG         7.5240   24.8680   33.3210 C.3   180  LEU180      0.0019
    110  CD1        8.7790   24.7310   34.1990 C.3   180  LEU180      0.0001
    111  CD2        6.4730   25.8260   33.9490 C.3   180  LEU180      0.0001
    112  N          6.8270   27.0260   29.2710 N.am  181  THR181     -0.1953
    113  CA         7.1310   27.6510   28.0080 C.3   181  THR181      0.1897
    114  C          6.2380   27.1340   26.9050 C.2   181  THR181      0.2313
    115  O          5.4370   27.8930   26.3510 O.2   181  THR181     -0.2863
    116  CB         8.5920   27.4890   27.6110 C.3   181  THR181      0.1794
    117  OG1        9.4470   27.8910   28.6920 O.3   181  THR181     -0.2208
    118  CG2        8.8500   28.3420   26.4550 C.3   181  THR181      0.0378
    119  N          5.6960   19.5500   25.5630 N.3   184  LYS184     -0.1245
    120  CA         6.6350   18.6390   24.8860 C.3   184  LYS184      0.1561
    121  C          5.8290   17.4490   24.4130 C.2   184  LYS184      0.2260
    122  O          4.8070   17.1260   24.9940 O.2   184  LYS184     -0.2867
    123  CB         7.7510   18.2080   25.8330 C.3   184  LYS184      0.0271
    124  CG         8.9510   19.1930   25.9810 C.3   184  LYS184      0.0035
    125  CD         8.6240   20.6750   26.3220 C.3   184  LYS184      0.0206
    126  CE         8.4780   20.9740   27.8070 C.3   184  LYS184      0.1093
    127  NZ         8.5280   22.4800   28.1100 N.3   184  LYS184     -0.1314
    128  N          6.6810   34.1620   29.4390 N.3   201  PHE201     -0.1241
    129  CA         7.8100   35.0520   29.1690 C.3   201  PHE201      0.1605
    130  C          8.3040   34.9180   27.7740 C.2   201  PHE201      0.2264
    131  O          9.4050   35.3840   27.4830 O.2   201  PHE201     -0.2867
    132  CB         8.9650   34.7950   30.1350 C.3   201  PHE201      0.0534
    133  CG         9.2880   33.3100   30.3520 C.ar  201  PHE201     -0.0203
    134  CD1        9.7750   32.5120   29.3090 C.ar  201  PHE201     -0.0042
    135  CD2        9.1000   32.7130   31.6070 C.ar  201  PHE201     -0.0042
    136  CE1       10.0490   31.1930   29.5110 C.ar  201  PHE201     -0.0003
    137  CE2        9.4030   31.4000   31.8230 C.ar  201  PHE201     -0.0003
    138  CZ         9.8630   30.6250   30.7800 C.ar  201  PHE201     -0.0000
@<TRIPOS>BOND
     1     7     6    1
     2     2     3    1
     3     2     1    1
     4     2     5    1
     5     3     4    2
     6    20    18    1
     7     6     5    1
     8     6     8    1
     9    14    15    1
    10     9    10    1
    11    15    18    1
    12    15    16    1
    13    18    19    1
    14    10    11    1
    15    10    13    1
    16    16    17    2
    17    16    21   am
    18    11    12    2
    19   121   120    1
    20   121   122    2
    21    21    22    1
    22    29    30    1
    23   120   119    1
    24   120   123    1
    25    23    22    1
    26    23    24    2
    27    30    31    1
    28    30    33    1
    29    22    25    1
    30   123   124    1
    31    36    34    1
    32   124   125    1
    33    34    33    1
    34    34    35    1
    35   125   126    1
    36    31    37   am
    37    31    32    2
    38   115   114    2
    39   118   116    1
    40    25    26    1
    41    37    38    1
    42    39    40    2
    43    39    38    1
    44   114   113    1
    45    38    41    1
    46   131   130    2
    47   116   113    1
    48   116   117    1
    49    92    94   ar
    50    92    90   ar
    51    88    87    2
    52   130   129    1
    53    94    95   ar
    54    28    26   ar
    55   126   127    1
    56    26    27   ar
    57   113   112    1
    58    41    42    1
    59    89    90    1
    60    89    86    1
    61    90    91   ar
    62    87    86    1
    63   107   106    2
    64    95    93   ar
    65    44    42   ar
    66    44    46   ar
    67    42    43   ar
    68   129   128    1
    69   129   132    1
    70   112   106   am
    71   134   136   ar
    72   134   133   ar
    73    86    85    1
    74   136   138   ar
    75   106   105    1
    76    46    47   ar
    77    91    93   ar
    78   132   133    1
    79    43    45   ar
    80   133   135   ar
    81    54    53    1
    82   102   101   ar
    83   138   137   ar
    84   104   105    1
    85    47    45   ar
    86   105   108    1
    87    99    98    2
    88   103   101   ar
    89   101   100    1
    90    55    53    1
    91   135   137   ar
    92    53    52    1
    93   108   109    1
    94    98    97    1
    95   100    97    1
    96    97    96    1
    97    52    49    1
    98   109   111    1
    99   109   110    1
   100    68    66   am
   101    49    48    1
   102    49    50    1
   103    50    51    2
   104    66    65    1
   105    66    67    2
   106    60    57    1
   107    65    62    1
   108    76    74   am
   109    57    56    1
   110    57    58    1
   111    84    82   ar
   112    74    73    1
   113    74    75    2
   114    73    70    1
   115    62    61    1
   116    62    63    1
   117    69    63   am
   118    69    70    1
   119    83    82   ar
   120    82    81    1
   121    63    64    2
   122    58    59    2
   123    70    71    1
   124    81    78    1
   125    71    72    2
   126    78    77    1
   127    78    79    1
   128    79    80    2
