@<TRIPOS>MOLECULE
tmp/3royA00.pdb
 184 175 0 0 0
SMALL
GASTEIGER

@<TRIPOS>ATOM
      1  N        -68.0640  -20.3990   28.2420 N.3     8  GLU8       -0.1245
      2  CA       -67.8080  -19.7480   29.5250 C.3     8  GLU8        0.1567
      3  C        -68.3950  -18.3420   29.5710 C.2     8  GLU8        0.2260
      4  O        -68.6980  -17.7470   28.5350 O.2     8  GLU8       -0.2867
      5  CB       -66.3010  -19.6740   29.8050 C.3     8  GLU8        0.0388
      6  CG       -65.5470  -18.6410   28.9810 C.3     8  GLU8        0.1160
      7  CD       -64.0410  -18.7170   29.1790 C.2     8  GLU8        0.3649
      8  OE1      -63.3340  -17.7620   28.7840 O.co2   8  GLU8       -0.2457
      9  OE2      -63.5630  -19.7360   29.7220 O.co2   8  GLU8       -0.2457
     10  N        -68.0850  -14.6350   29.7810 N.3    10  ILE10      -0.1231
     11  CA       -67.0530  -13.6470   29.4870 C.3    10  ILE10       0.1692
     12  C        -67.1790  -12.4600   30.4310 C.2    10  ILE10       0.2593
     13  O        -66.1970  -11.7770   30.7250 O.2    10  ILE10      -0.2718
     14  CB       -67.1630  -13.1350   28.0330 C.3    10  ILE10       0.0266
     15  CG1      -66.9520  -14.2860   27.0520 C.3    10  ILE10       0.0019
     16  CG2      -66.1210  -12.0640   27.7800 C.3    10  ILE10       0.0020
     17  CD1      -67.0360  -13.8630   25.5980 C.3    10  ILE10       0.0001
     18  N        -68.3970  -12.2160   30.9000 N.am   11  GLY11      -0.1942
     19  CA       -68.6190  -11.1130   31.8090 C.3    11  GLY11       0.2014
     20  C        -70.0730  -10.7040   31.8990 C.2    11  GLY11       0.2639
     21  O        -70.9640  -11.3760   31.3790 O.2    11  GLY11      -0.2714
     22  N        -70.3090   -9.5870   32.5720 N.am   12  GLU12      -0.1963
     23  CA       -71.6540   -9.0720   32.7380 C.3    12  GLU12       0.1733
     24  C        -71.6920   -7.6530   32.1800 C.2    12  GLU12       0.2616
     25  O        -71.7120   -6.6700   32.9260 O.2    12  GLU12      -0.2715
     26  CB       -72.0310   -9.1160   34.2200 C.3    12  GLU12       0.0429
     27  CG       -71.7920  -10.5000   34.8320 C.3    12  GLU12       0.1163
     28  CD       -72.3980  -10.6690   36.2130 C.2    12  GLU12       0.3649
     29  OE1      -72.0150   -9.9150   37.1350 O.co2  12  GLU12      -0.2457
     30  OE2      -73.2580  -11.5630   36.3750 O.co2  12  GLU12      -0.2457
     31  N        -71.6910   -7.5740   30.8490 N.am   13  GLY13      -0.1955
     32  CA       -71.7050   -6.3040   30.1430 C.3    13  GLY13       0.1869
     33  C        -72.7690   -5.3060   30.5570 C.2    13  GLY13       0.2309
     34  O        -73.6770   -5.6170   31.3310 O.2    13  GLY13      -0.2863
     35  N        -72.6540  -11.7910   29.2080 N.3    18  VAL18      -0.1245
     36  CA       -72.0270  -12.1660   27.9400 C.3    18  VAL18       0.1561
     37  C        -71.3140  -13.4980   28.0770 C.2    18  VAL18       0.2260
     38  O        -70.5920  -13.7240   29.0450 O.2    18  VAL18      -0.2867
     39  CB       -70.9900  -11.1150   27.4860 C.3    18  VAL18       0.0252
     40  CG1      -70.4190  -11.5000   26.1170 C.3    18  VAL18       0.0019
     41  CG2      -71.6380   -9.7440   27.4030 C.3    18  VAL18       0.0019
     42  N        -69.0470  -16.7250   25.9530 N.3    20  LYS20      -0.1245
     43  CA       -68.2780  -17.1230   24.7860 C.3    20  LYS20       0.1561
     44  C        -69.0410  -18.3950   24.4730 C.2    20  LYS20       0.2260
     45  O        -69.2860  -19.2090   25.3710 O.2    20  LYS20      -0.2867
     46  CB       -66.8520  -17.4660   25.1610 C.3    20  LYS20       0.0271
     47  CG       -66.0010  -17.9610   23.9950 C.3    20  LYS20       0.0035
     48  CD       -64.5920  -18.2500   24.5070 C.3    20  LYS20       0.0206
     49  CE       -63.6470  -18.7280   23.4050 C.3    20  LYS20       0.1093
     50  NZ       -62.2940  -19.0050   23.9580 N.3    20  LYS20      -0.1314
     51  N        -69.3590  -14.4250   20.5950 N.3    31  ALA31      -0.1245
     52  CA       -69.6720  -13.7890   21.8750 C.3    31  ALA31       0.1562
     53  C        -71.1940  -13.6560   21.8240 C.2    31  ALA31       0.2260
     54  O        -71.7550  -13.1390   20.8500 O.2    31  ALA31      -0.2867
     55  CB       -69.0270  -12.4070   21.9880 C.3    31  ALA31       0.0290
     56  N        -74.4150  -12.1030   23.7460 N.3    33  LYS33      -0.1245
     57  CA       -74.8560  -11.1700   24.7680 C.3    33  LYS33       0.1561
     58  C        -76.3670  -11.2840   24.9570 C.2    33  LYS33       0.2260
     59  O        -77.1270  -11.0830   24.0140 O.2    33  LYS33      -0.2867
     60  CB       -74.4790   -9.7480   24.3610 C.3    33  LYS33       0.0271
     61  CG       -74.7840   -8.6840   25.4130 C.3    33  LYS33       0.0035
     62  CD       -74.1350   -7.3650   25.0360 C.3    33  LYS33       0.0206
     63  CE       -74.5900   -6.8790   23.6580 C.3    33  LYS33       0.1093
     64  NZ       -73.8950   -5.6200   23.2310 N.3    33  LYS33      -0.1314
     65  N        -66.4260   -4.6050   15.4480 N.3    60  VAL60      -0.1245
     66  CA       -66.7740   -5.9820   15.7990 C.3    60  VAL60       0.1561
     67  C        -68.0720   -6.3470   15.0570 C.2    60  VAL60       0.2260
     68  O        -69.1070   -5.7120   15.2350 O.2    60  VAL60      -0.2867
     69  CB       -66.9840   -6.1290   17.3400 C.3    60  VAL60       0.0252
     70  CG1      -67.4220   -7.5380   17.6720 C.3    60  VAL60       0.0019
     71  CG2      -65.6870   -5.8190   18.0750 C.3    60  VAL60       0.0019
     72  N        -72.0500  -11.7640   18.3300 N.3    76  PHE76      -0.1227
     73  CA       -70.9390  -10.9890   17.7960 C.3    76  PHE76       0.1736
     74  C        -69.7430  -11.8530   17.4710 C.2    76  PHE76       0.2595
     75  O        -69.5480  -12.9250   18.0540 O.2    76  PHE76      -0.2718
     76  CB       -70.4590   -9.9690   18.8340 C.3    76  PHE76       0.0547
     77  CG       -71.4360   -8.8740   19.1220 C.ar   76  PHE76      -0.0202
     78  CD1      -71.6290   -7.8420   18.2100 C.ar   76  PHE76      -0.0042
     79  CD2      -72.1340   -8.8520   20.3240 C.ar   76  PHE76      -0.0042
     80  CE1      -72.5080   -6.7900   18.4970 C.ar   76  PHE76      -0.0003
     81  CE2      -73.0120   -7.8030   20.6160 C.ar   76  PHE76      -0.0003
     82  CZ       -73.1930   -6.7750   19.6990 C.ar   76  PHE76      -0.0000
     83  N        -68.9180  -11.3650   16.5550 N.am   77  GLU77      -0.1965
     84  CA       -67.6940  -12.0870   16.2350 C.3    77  GLU77       0.1733
     85  C        -66.8770  -12.0450   17.5380 C.2    77  GLU77       0.2616
     86  O        -66.9570  -11.0830   18.3150 O.2    77  GLU77      -0.2715
     87  CB       -66.9240  -11.4010   15.0990 C.3    77  GLU77       0.0429
     88  CG       -66.1770  -10.1570   15.4980 C.3    77  GLU77       0.1163
     89  CD       -65.2360   -9.6260   14.4110 C.2    77  GLU77       0.3649
     90  OE1      -64.1390  -10.1920   14.1940 O.co2  77  GLU77      -0.2457
     91  OE2      -65.5970   -8.6270   13.7780 O.co2  77  GLU77      -0.2457
     92  N        -66.0970  -13.0850   17.7820 N.am   78  PHE78      -0.1960
     93  CA       -65.3250  -13.1640   19.0100 C.3    78  PHE78       0.1771
     94  C        -63.8690  -12.7000   18.8930 C.2    78  PHE78       0.2619
     95  O        -63.1900  -13.0190   17.9040 O.2    78  PHE78      -0.2715
     96  CB       -65.3340  -14.6210   19.5140 C.3    78  PHE78       0.0574
     97  CG       -64.5420  -14.8360   20.7660 C.ar   78  PHE78      -0.0200
     98  CD1      -63.2350  -15.3340   20.7140 C.ar   78  PHE78      -0.0042
     99  CD2      -65.1040  -14.5390   22.0110 C.ar   78  PHE78      -0.0042
    100  CE1      -62.5110  -15.5330   21.8880 C.ar   78  PHE78      -0.0003
    101  CE2      -64.3870  -14.7340   23.1840 C.ar   78  PHE78      -0.0003
    102  CZ       -63.0810  -15.2360   23.1240 C.ar   78  PHE78      -0.0000
    103  N        -63.4150  -11.9230   19.8790 N.am   79  LEU79      -0.1963
    104  CA       -62.0160  -11.4880   19.9690 C.3    79  LEU79       0.1728
    105  C        -61.5830  -11.8520   21.3860 C.2    79  LEU79       0.2616
    106  O        -62.3510  -11.7180   22.3340 O.2    79  LEU79      -0.2715
    107  CB       -61.8240   -9.9840   19.7090 C.3    79  LEU79       0.0311
    108  CG       -61.7270   -9.6560   18.2160 C.3    79  LEU79       0.0022
    109  CD1      -63.1360   -9.3500   17.7070 C.3    79  LEU79       0.0001
    110  CD2      -60.8320   -8.4520   17.9630 C.3    79  LEU79       0.0001
    111  N        -60.3390  -12.2980   21.5260 N.am   80  HIS80      -0.1959
    112  CA       -59.8320  -12.7840   22.8010 C.3    80  HIS80       0.1787
    113  C        -59.5030  -11.8300   23.9410 C.2    80  HIS80       0.2620
    114  O        -59.4130  -12.2620   25.0960 O.2    80  HIS80      -0.2715
    115  CB       -58.5930  -13.6470   22.5430 C.3    80  HIS80       0.0785
    116  CG       -58.8920  -14.9570   21.8840 C.ar   80  HIS80       0.0821
    117  ND1      -59.0540  -15.0890   20.5210 N.ar   80  HIS80      -0.2267
    118  CD2      -59.0680  -16.1940   22.4090 C.ar   80  HIS80       0.1154
    119  CE1      -59.3170  -16.3540   20.2340 C.ar   80  HIS80       0.1986
    120  NE2      -59.3310  -17.0440   21.3610 N.ar   80  HIS80      -0.2212
    121  N        -59.2920  -10.5520   23.6530 N.am   81  GLN81      -0.1963
    122  CA       -58.9290   -9.6570   24.7510 C.3    81  GLN81       0.1733
    123  C        -59.4310   -8.2530   24.5060 C.2    81  GLN81       0.2616
    124  O        -59.6590   -7.8730   23.3580 O.2    81  GLN81      -0.2715
    125  CB       -57.4130   -9.6460   24.9040 C.3    81  GLN81       0.0408
    126  CG       -56.8900   -8.9790   26.1760 C.3    81  GLN81       0.0908
    127  CD       -55.4720   -9.4190   26.4950 C.2    81  GLN81       0.2608
    128  OE1      -55.2240  -10.6000   26.7880 O.2    81  GLN81      -0.2717
    129  NE2      -54.5320   -8.4850   26.4350 N.am   81  GLN81      -0.0878
    130  N        -59.6360   -7.5010   25.5850 N.am   82  ASP82      -0.1971
    131  CA       -60.0890   -6.1210   25.4380 C.3    82  ASP82       0.1709
    132  C        -58.9100   -5.2180   25.8110 C.2    82  ASP82       0.2293
    133  O        -57.9330   -5.6650   26.4290 O.2    82  ASP82      -0.2864
    134  CB       -61.3280   -5.8190   26.3030 C.3    82  ASP82       0.1436
    135  CG       -61.0810   -6.0300   27.7950 C.2    82  ASP82       0.3671
    136  OD1      -60.2340   -5.3170   28.3750 O.co2  82  ASP82      -0.2456
    137  OD2      -61.7350   -6.9200   28.3740 O.co2  82  ASP82      -0.2456
    138  N        -57.8930   -4.8700   29.6840 N.3    85  LYS85      -0.1245
    139  CA       -57.0170   -5.9220   30.1760 C.3    85  LYS85       0.1561
    140  C        -55.6050   -5.7640   29.6130 C.2    85  LYS85       0.2260
    141  O        -54.6240   -5.9250   30.3440 O.2    85  LYS85      -0.2867
    142  CB       -57.5550   -7.3140   29.8260 C.3    85  LYS85       0.0271
    143  CG       -56.5580   -8.3950   30.2090 C.3    85  LYS85       0.0035
    144  CD       -57.1480   -9.7990   30.1800 C.3    85  LYS85       0.0206
    145  CE       -56.1170  -10.7840   30.7160 C.3    85  LYS85       0.1093
    146  NZ       -56.6370  -12.1730   30.7770 N.3    85  LYS85      -0.1314
    147  N        -62.8070   -1.1650   27.7310 N.3   127  GLN127     -0.1231
    148  CA       -63.4300   -2.4790   27.7740 C.3   127  GLN127      0.1698
    149  C        -64.2250   -2.8090   26.5140 C.2   127  GLN127      0.2592
    150  O        -64.4750   -3.9850   26.2410 O.2   127  GLN127     -0.2718
    151  CB       -64.3060   -2.6110   29.0350 C.3   127  GLN127      0.0381
    152  CG       -65.5040   -1.6830   29.0870 C.3   127  GLN127      0.0905
    153  CD       -66.3700   -1.9140   30.3120 C.2   127  GLN127      0.2608
    154  OE1      -67.0340   -2.9450   30.4360 O.2   127  GLN127     -0.2717
    155  NE2      -66.3650   -0.9540   31.2270 N.am  127  GLN127     -0.0878
    156  N        -64.6060   -1.7830   25.7480 N.am  128  ASN128     -0.1974
    157  CA       -65.3420   -1.9780   24.5060 C.3   128  ASN128      0.1688
    158  C        -64.4270   -1.9950   23.2840 C.2   128  ASN128      0.2292
    159  O        -64.9180   -1.9870   22.1550 O.2   128  ASN128     -0.2864
    160  CB       -66.3850   -0.8770   24.2910 C.3   128  ASN128      0.1181
    161  CG       -67.5200   -0.9550   25.2680 C.2   128  ASN128      0.2629
    162  OD1      -67.7110   -1.9760   25.9560 O.2   128  ASN128     -0.2716
    163  ND2      -68.2930    0.1130   25.3410 N.am  128  ASN128     -0.0877
    164  N        -61.7320   -4.2060   21.3930 N.3   130  LEU130     -0.1245
    165  CA       -61.1970   -5.5680   21.3610 C.3   130  LEU130      0.1561
    166  C        -59.9980   -5.7360   20.4310 C.2   130  LEU130      0.2260
    167  O        -59.9350   -5.1520   19.3520 O.2   130  LEU130     -0.2867
    168  CB       -62.3210   -6.5270   20.9800 C.3   130  LEU130      0.0270
    169  CG       -63.5940   -6.2820   21.8100 C.3   130  LEU130      0.0019
    170  CD1      -64.6620   -7.3310   21.4280 C.3   130  LEU130      0.0001
    171  CD2      -63.2660   -6.3500   23.3270 C.3   130  LEU130      0.0001
    172  N        -66.4690   -2.2820   19.7260 N.3   140  ALA140     -0.1231
    173  CA       -67.6010   -3.1570   20.0340 C.3   140  ALA140      0.1694
    174  C        -68.7380   -2.3250   20.6170 C.2   140  ALA140      0.2592
    175  O        -68.4950   -1.3630   21.3470 O.2   140  ALA140     -0.2718
    176  CB       -67.1800   -4.2380   21.0300 C.3   140  ALA140      0.0304
    177  N        -69.9650   -2.7130   20.2700 N.am  141  ASP141     -0.1974
    178  CA       -71.1980   -2.0610   20.7190 C.3   141  ASP141      0.1709
    179  C        -71.6090   -0.7580   20.0300 C.2   141  ASP141      0.2293
    180  O        -72.3420    0.0380   20.6060 O.2   141  ASP141     -0.2864
    181  CB       -71.1620   -1.8690   22.2390 C.3   141  ASP141      0.1436
    182  CG       -71.1150   -3.1940   22.9820 C.2   141  ASP141      0.3671
    183  OD1      -70.9240   -3.1900   24.2140 O.co2 141  ASP141     -0.2456
    184  OD2      -71.2740   -4.2480   22.3270 O.co2 141  ASP141     -0.2456
@<TRIPOS>BOND
     1    91    89   ar
     2    90    89   ar
     3    89    88    1
     4    67    68    2
     5    67    66    1
     6    87    88    1
     7    87    84    1
     8    65    66    1
     9    66    69    1
    10    84    83    1
    11    84    85    1
    12    83    74   am
    13    69    70    1
    14    69    71    1
    15    74    73    1
    16    74    75    2
    17    85    92   am
    18    85    86    2
    19   109   108    1
    20    92    93    1
    21    73    72    1
    22    73    76    1
    23    95    94    2
    24   110   108    1
    25    78    80   ar
    26    78    77   ar
    27   108   107    1
    28    80    82   ar
    29    76    77    1
    30    94    93    1
    31    94   103   am
    32    93    96    1
    33    77    79   ar
    34   167   166    2
    35    96    97    1
    36    82    81   ar
    37   107   104    1
    38   172   173    1
    39   103   104    1
    40   104   105    1
    41   179   180    2
    42   179   178    1
    43   173   174    1
    44   173   176    1
    45   119   117   ar
    46   119   120   ar
    47   177   174   am
    48   177   178    1
    49    79    81   ar
    50   166   165    1
    51   117   116   ar
    52    51    52    1
    53   174   175    2
    54    98    97   ar
    55    98   100   ar
    56   178   181    1
    57    97    99   ar
    58    54    53    2
    59   168   165    1
    60   168   169    1
    61   165   164    1
    62   120   118   ar
    63   105   111   am
    64   105   106    2
    65   170   169    1
    66   111   112    1
    67   169   171    1
    68    53    52    1
    69    52    55    1
    70   116   118   ar
    71   116   115    1
    72   100   102   ar
    73    99   101   ar
    74   159   158    2
    75   181   182    1
    76   184   182   ar
    77   115   112    1
    78   112   113    1
    79   182   183   ar
    80   102   101   ar
    81    64    63    1
    82   158   157    1
    83   124   123    2
    84    49    50    1
    85    49    48    1
    86   121   113   am
    87   121   122    1
    88    63    62    1
    89    56    57    1
    90   113   114    2
    91    47    48    1
    92    47    46    1
    93    59    58    2
    94   160   157    1
    95   160   161    1
    96    60    57    1
    97    60    61    1
    98    44    43    1
    99    44    45    2
   100   157   156    1
   101   123   122    1
   102   123   130   am
   103   122   125    1
   104    57    58    1
   105    43    46    1
   106    43    42    1
   107   125   126    1
   108    62    61    1
   109   161   163   am
   110   161   162    2
   111   131   130    1
   112   131   132    1
   113   131   134    1
   114    17    15    1
   115   156   149   am
   116   132   133    2
   117    40    39    1
   118   126   127    1
   119   150   149    2
   120   134   135    1
   121   129   127   am
   122   127   128    2
   123   149   148    1
   124    15    14    1
   125    41    39    1
   126    39    36    1
   127   147   148    1
   128   148   151    1
   129    16    14    1
   130   135   137   ar
   131   135   136   ar
   132    36    37    1
   133    36    35    1
   134    14    11    1
   135    37    38    2
   136     1     2    1
   137     4     3    2
   138     8     7   ar
   139     6     7    1
   140     6     5    1
   141   151   152    1
   142   152   153    1
   143     7     9   ar
   144    11    10    1
   145    11    12    1
   146     2     3    1
   147     2     5    1
   148   140   139    1
   149   140   141    2
   150   138   139    1
   151   142   139    1
   152   142   143    1
   153    32    33    1
   154    32    31    1
   155   144   143    1
   156   144   145    1
   157   153   154    2
   158   153   155   am
   159    12    13    2
   160    12    18   am
   161    33    34    2
   162   145   146    1
   163    31    24   am
   164    18    19    1
   165    21    20    2
   166    19    20    1
   167    20    22   am
   168    24    23    1
   169    24    25    2
   170    22    23    1
   171    23    26    1
   172    26    27    1
   173    27    28    1
   174    28    30   ar
   175    28    29   ar
