@<TRIPOS>MOLECULE
tmp/3rozA00.pdb
 117 108 0 0 0
SMALL
GASTEIGER

@<TRIPOS>ATOM
      1  N         15.1150   26.7360   26.0130 N.3    14  ASP14      -0.1239
      2  CA        15.7840   27.0700   27.2620 C.3    14  ASP14       0.1674
      3  C         17.0610   27.7870   26.9320 C.2    14  ASP14       0.2266
      4  O         17.3770   28.8040   27.5150 O.2    14  ASP14      -0.2867
      5  CB        16.1260   25.8110   28.0680 C.3    14  ASP14       0.1410
      6  CG        14.9560   25.3060   28.9210 C.2    14  ASP14       0.3668
      7  OD1       13.8190   25.8310   28.8040 O.co2  14  ASP14      -0.2456
      8  OD2       15.1800   24.3660   29.7170 O.co2  14  ASP14      -0.2456
      9  N         16.8050   31.4850   26.1140 N.3    17  LEU17      -0.1231
     10  CA        16.3830   32.3180   27.2420 C.3    17  LEU17       0.1693
     11  C         17.5740   32.8160   28.0400 C.2    17  LEU17       0.2592
     12  O         17.5250   33.8950   28.6400 O.2    17  LEU17      -0.2718
     13  CB        15.4670   31.5310   28.1860 C.3    17  LEU17       0.0284
     14  CG        14.2130   30.8690   27.6120 C.3    17  LEU17       0.0019
     15  CD1       13.5410   29.9710   28.6500 C.3    17  LEU17       0.0001
     16  CD2       13.2680   31.9310   27.0900 C.3    17  LEU17       0.0001
     17  N         18.6300   32.0090   28.0600 N.am   18  PHE18      -0.1976
     18  CA        19.8320   32.3520   28.7900 C.3    18  PHE18       0.1639
     19  C         20.8090   33.0240   27.8600 C.2    18  PHE18       0.2290
     20  O         21.5010   33.9450   28.2720 O.2    18  PHE18      -0.2864
     21  CB        20.4280   31.1050   29.4330 C.3    18  PHE18       0.0560
     22  CG        19.4110   30.2860   30.1560 C.ar   18  PHE18      -0.0200
     23  CD1       18.7170   30.8260   31.2340 C.ar   18  PHE18      -0.0042
     24  CD2       19.1010   29.0030   29.7340 C.ar   18  PHE18      -0.0042
     25  CE1       17.7450   30.0900   31.8980 C.ar   18  PHE18      -0.0003
     26  CE2       18.1310   28.2600   30.3880 C.ar   18  PHE18      -0.0003
     27  CZ        17.4500   28.8070   31.4730 C.ar   18  PHE18      -0.0000
     28  N         19.2330   32.5970   35.4170 N.3    25  VAL25      -0.1245
     29  CA        18.5710   31.4200   35.9600 C.3    25  VAL25       0.1561
     30  C         17.7650   31.7990   37.2040 C.2    25  VAL25       0.2260
     31  O         16.6420   31.3640   37.3630 O.2    25  VAL25      -0.2867
     32  CB        19.5750   30.3110   36.2630 C.3    25  VAL25       0.0252
     33  CG1       18.8760   29.0860   36.8450 C.3    25  VAL25       0.0019
     34  CG2       20.3110   29.9250   34.9960 C.3    25  VAL25       0.0019
     35  N         14.0620   33.0830   36.0680 N.3    28  LEU28      -0.1245
     36  CA        13.0560   32.2180   35.4740 C.3    28  LEU28       0.1561
     37  C         12.6680   31.1260   36.4400 C.2    28  LEU28       0.2260
     38  O         11.5260   30.6590   36.4440 O.2    28  LEU28      -0.2867
     39  CB        13.6000   31.6060   34.1960 C.3    28  LEU28       0.0270
     40  CG        14.1170   32.6440   33.2050 C.3    28  LEU28       0.0019
     41  CD1       14.6750   31.9450   31.9820 C.3    28  LEU28       0.0001
     42  CD2       12.9930   33.5740   32.8710 C.3    28  LEU28       0.0001
     43  N          9.0540   30.0760   37.3980 N.3    31  ALA31      -0.1245
     44  CA         8.7520   28.6570   37.3420 C.3    31  ALA31       0.1562
     45  C          8.1350   28.2350   38.6650 C.2    31  ALA31       0.2260
     46  O          7.0410   27.6630   38.7380 O.2    31  ALA31      -0.2867
     47  CB        10.0280   27.8880   37.1100 C.3    31  ALA31       0.0290
     48  N         17.8580   21.3310   38.6010 N.3    62  ASN62      -0.1240
     49  CA        16.8830   22.4430   38.5790 C.3    62  ASN62       0.1653
     50  C         15.4520   22.1970   39.0600 C.2    62  ASN62       0.2266
     51  O         14.8400   23.0610   39.6810 O.2    62  ASN62      -0.2867
     52  CB        16.7530   22.9260   37.1350 C.3    62  ASN62       0.1155
     53  CG        17.8860   23.8000   36.7170 C.2    62  ASN62       0.2627
     54  OD1       19.0450   23.5470   37.0440 O.2    62  ASN62      -0.2716
     55  ND2       17.5570   24.8600   36.0040 N.am   62  ASN62      -0.0877
     56  N         13.1130   24.6780   41.2830 N.3    66  ASP66      -0.1239
     57  CA        11.7200   25.0740   41.1640 C.3    66  ASP66       0.1674
     58  C         11.0010   24.6140   42.4230 C.2    66  ASP66       0.2266
     59  O         10.3010   25.3930   43.0770 O.2    66  ASP66      -0.2867
     60  CB        11.0900   24.4550   39.9350 C.3    66  ASP66       0.1410
     61  CG        11.9060   24.6950   38.6560 C.2    66  ASP66       0.3668
     62  OD1       12.5000   25.7920   38.4830 O.co2  66  ASP66      -0.2456
     63  OD2       11.9410   23.7830   37.7940 O.co2  66  ASP66      -0.2456
     64  N         12.8180   17.3850   32.3310 N.3   129  PHE129     -0.1241
     65  CA        13.1580   17.0820   30.9250 C.3   129  PHE129      0.1605
     66  C         14.5850   16.5500   30.6300 C.2   129  PHE129      0.2264
     67  O         14.7430   15.4530   30.1040 O.2   129  PHE129     -0.2867
     68  CB        12.8500   18.3120   30.0400 C.3   129  PHE129      0.0534
     69  CG        13.7450   19.5220   30.3110 C.ar  129  PHE129     -0.0203
     70  CD1       13.8770   20.0600   31.6120 C.ar  129  PHE129     -0.0042
     71  CD2       14.4520   20.1320   29.2560 C.ar  129  PHE129     -0.0042
     72  CE1       14.7040   21.1670   31.8560 C.ar  129  PHE129     -0.0003
     73  CE2       15.2770   21.2460   29.4920 C.ar  129  PHE129     -0.0003
     74  CZ        15.4030   21.7600   30.7970 C.ar  129  PHE129     -0.0000
     75  N          6.8300   20.0200   35.7060 N.3   157  ASP157     -0.1239
     76  CA         7.4170   19.8580   34.3740 C.3   157  ASP157      0.1674
     77  C          7.2800   18.4340   33.8810 C.2   157  ASP157      0.2266
     78  O          6.7940   18.2040   32.7720 O.2   157  ASP157     -0.2867
     79  CB         8.9010   20.2680   34.3660 C.3   157  ASP157      0.1410
     80  CG         9.3460   20.8900   33.0380 C.2   157  ASP157      0.3668
     81  OD1        8.4780   21.1770   32.1720 O.co2 157  ASP157     -0.2456
     82  OD2       10.5770   21.1170   32.8960 O.co2 157  ASP157     -0.2456
     83  N          6.0300   23.4320   32.6210 N.3   180  LEU180     -0.1231
     84  CA         6.6890   24.7470   32.6780 C.3   180  LEU180      0.1693
     85  C          7.1320   25.1470   31.2870 C.2   180  LEU180      0.2592
     86  O          7.6400   24.3110   30.5380 O.2   180  LEU180     -0.2718
     87  CB         7.9370   24.7140   33.5540 C.3   180  LEU180      0.0284
     88  CG         7.7280   24.4280   35.0360 C.3   180  LEU180      0.0019
     89  CD1        9.0100   23.8770   35.6680 C.3   180  LEU180      0.0001
     90  CD2        7.2260   25.6540   35.8100 C.3   180  LEU180      0.0001
     91  N          6.9570   26.4220   30.9530 N.am  181  THR181     -0.1953
     92  CA         7.4090   26.9860   29.6660 C.3   181  THR181      0.1897
     93  C          6.5850   26.5010   28.4850 C.2   181  THR181      0.2313
     94  O          5.8240   27.2560   27.9040 O.2   181  THR181     -0.2863
     95  CB         8.9040   26.7260   29.4520 C.3   181  THR181      0.1794
     96  OG1        9.6040   27.1330   30.6430 O.3   181  THR181     -0.2208
     97  CG2        9.4110   27.4770   28.2520 C.3   181  THR181      0.0378
     98  N          5.5680   18.9520   27.4240 N.3   184  LYS184     -0.1245
     99  CA         6.5700   18.0200   26.9200 C.3   184  LYS184      0.1561
    100  C          5.8700   16.8190   26.3110 C.2   184  LYS184      0.2260
    101  O          4.7920   16.4460   26.7500 O.2   184  LYS184     -0.2867
    102  CB         7.4960   17.5920   28.0710 C.3   184  LYS184      0.0271
    103  CG         8.8510   18.3120   28.1090 C.3   184  LYS184      0.0035
    104  CD         8.7480   19.8400   28.2320 C.3   184  LYS184      0.0206
    105  CE         8.4700   20.2860   29.6600 C.3   184  LYS184      0.1093
    106  NZ         8.9610   21.6980   29.9190 N.3   184  LYS184     -0.1314
    107  N          6.8050   33.7930   30.7210 N.3   201  PHE201     -0.1241
    108  CA         7.9510   34.5980   30.2970 C.3   201  PHE201      0.1605
    109  C          8.3720   34.4190   28.8490 C.2   201  PHE201      0.2264
    110  O          9.2690   35.1190   28.3750 O.2   201  PHE201     -0.2867
    111  CB         9.1600   34.4270   31.2330 C.3   201  PHE201      0.0534
    112  CG         9.4020   33.0050   31.6900 C.ar  201  PHE201     -0.0203
    113  CD1        9.6110   31.9900   30.7750 C.ar  201  PHE201     -0.0042
    114  CD2        9.4570   32.6980   33.0580 C.ar  201  PHE201     -0.0042
    115  CE1        9.8360   30.7000   31.2150 C.ar  201  PHE201     -0.0003
    116  CE2        9.6880   31.4180   33.4960 C.ar  201  PHE201     -0.0003
    117  CZ         9.8850   30.4200   32.5980 C.ar  201  PHE201     -0.0000
@<TRIPOS>BOND
     1     1     2    1
     2     9    10    1
     3   100   101    2
     4   100    99    1
     5    99    98    1
     6    99   102    1
     7     3     2    1
     8     3     4    2
     9    16    14    1
    10    10    11    1
    11    10    13    1
    12     2     5    1
    13    14    13    1
    14    14    15    1
    15    19    20    2
    16    19    18    1
    17    94    93    2
    18    11    17   am
    19    11    12    2
    20    17    18    1
    21     5     6    1
    22   102   103    1
    23   103   104    1
    24   104   105    1
    25    97    95    1
    26   110   109    2
    27    93    92    1
    28    18    21    1
    29     7     6   ar
    30   109   108    1
    31     6     8   ar
    32    71    73   ar
    33    71    69   ar
    34    21    22    1
    35    95    92    1
    36    95    96    1
    37    73    74   ar
    38   105   106    1
    39    92    91    1
    40    24    22   ar
    41    24    26   ar
    42    68    69    1
    43    68    65    1
    44    67    66    2
    45    22    23   ar
    46   108   107    1
    47   108   111    1
    48    69    70   ar
    49    26    27   ar
    50    86    85    2
    51    66    65    1
    52   113   115   ar
    53   113   112   ar
    54    74    72   ar
    55    65    64    1
    56    91    85   am
    57   115   117   ar
    58   111   112    1
    59    23    25   ar
    60    85    84    1
    61    27    25   ar
    62    70    72   ar
    63   112   114   ar
    64    41    40    1
    65    81    80   ar
    66   117   116   ar
    67    83    84    1
    68    84    87    1
    69    78    77    2
    70    42    40    1
    71    82    80   ar
    72    80    79    1
    73   114   116   ar
    74    40    39    1
    75    87    88    1
    76    77    76    1
    77    39    36    1
    78    79    76    1
    79    76    75    1
    80    34    32    1
    81    88    89    1
    82    88    90    1
    83    28    29    1
    84    36    35    1
    85    36    37    1
    86    29    32    1
    87    29    30    1
    88    55    53   am
    89    32    33    1
    90    37    38    2
    91    53    54    2
    92    53    52    1
    93    47    44    1
    94    52    49    1
    95    30    31    2
    96    44    43    1
    97    44    45    1
    98    63    61   ar
    99    62    61   ar
   100    49    48    1
   101    49    50    1
   102    61    60    1
   103    45    46    2
   104    50    51    2
   105    60    57    1
   106    57    56    1
   107    57    58    1
   108    58    59    2
