@<TRIPOS>MOLECULE
tmp/3rp7A00.pdb
 144 141 0 0 0
SMALL
GASTEIGER

@<TRIPOS>ATOM
      1  N          6.5840   37.3400    1.6200 N.3    45  ALA45      -0.1231
      2  CA         5.1970   37.4590    2.0760 C.3    45  ALA45       0.1694
      3  C          4.2230   36.5830    1.2970 C.2    45  ALA45       0.2592
      4  O          4.5440   36.0970    0.2150 O.2    45  ALA45      -0.2718
      5  CB         4.7420   38.9130    2.0360 C.3    45  ALA45       0.0304
      6  N          3.0330   36.4010    1.8650 N.am   46  ILE46      -0.1966
      7  CA         1.9680   35.6140    1.2590 C.3    46  ILE46       0.1727
      8  C          0.6420   36.3670    1.3350 C.2    46  ILE46       0.2616
      9  O          0.2780   36.9070    2.3870 O.2    46  ILE46      -0.2715
     10  CB         1.7770   34.2640    1.9880 C.3    46  ILE46       0.0290
     11  CG1        3.0620   33.3950    1.7400 C.3    46  ILE46       0.0022
     12  CG2        0.5490   33.5460    1.4520 C.3    46  ILE46       0.0023
     13  CD1        2.9210   31.9610    2.0940 C.3    46  ILE46       0.0001
     14  N         -0.0770   36.4070    0.2200 N.am   47  SER47      -0.1950
     15  CA        -1.4350   36.9360    0.2210 C.3    47  SER47       0.1924
     16  C         -2.4120   35.8320    0.6100 C.2    47  SER47       0.2314
     17  O         -2.6350   34.8950   -0.1520 O.2    47  SER47      -0.2863
     18  CB        -1.7950   37.4920   -1.1590 C.3    47  SER47       0.2116
     19  OG        -3.0890   38.0710   -1.1460 O.3    47  SER47      -0.2180
     20  N         -5.9440   34.8970    0.8210 N.3    49  TRP49      -0.1241
     21  CA        -7.2910   35.2880    0.4200 C.3    49  TRP49       0.1605
     22  C         -8.3280   34.6920    1.3600 C.2    49  TRP49       0.2264
     23  O         -7.9900   33.8810    2.2100 O.2    49  TRP49      -0.2867
     24  CB        -7.5270   34.9230   -1.0470 C.3    49  TRP49       0.0550
     25  CG        -6.5920   35.7010   -1.8990 C.ar   49  TRP49       0.0003
     26  CD1       -5.4040   35.2740   -2.4260 C.ar   49  TRP49       0.0946
     27  CD2       -6.7210   37.0800   -2.2640 C.ar   49  TRP49       0.0152
     28  NE1       -4.8030   36.2960   -3.1200 N.ar   49  TRP49      -0.2442
     29  CE2       -5.5920   37.4150   -3.0340 C.ar   49  TRP49       0.0810
     30  CE3       -7.6910   38.0590   -2.0240 C.ar   49  TRP49       0.0012
     31  CZ2       -5.4060   38.6910   -3.5690 C.ar   49  TRP49       0.0191
     32  CZ3       -7.5040   39.3240   -2.5550 C.ar   49  TRP49       0.0001
     33  CH2       -6.3710   39.6280   -3.3180 C.ar   49  TRP49       0.0015
     34  N          9.6880   33.4210  -16.1800 N.3   174  TYR174     -0.1241
     35  CA         9.9320   34.7330  -15.5910 C.3   174  TYR174      0.1605
     36  C         10.6180   34.6610  -14.2360 C.2   174  TYR174      0.2264
     37  O         10.6150   33.6190  -13.5740 O.2   174  TYR174     -0.2867
     38  CB         8.6560   35.5920  -15.5460 C.3   174  TYR174      0.0534
     39  CG         7.6820   35.3170  -14.4170 C.ar  174  TYR174     -0.0201
     40  CD1        7.7410   36.0470  -13.2330 C.ar  174  TYR174     -0.0009
     41  CD2        6.6770   34.3620  -14.5480 C.ar  174  TYR174     -0.0009
     42  CE1        6.8380   35.8170  -12.1880 C.ar  174  TYR174      0.0417
     43  CE2        5.7620   34.1270  -13.5080 C.ar  174  TYR174      0.0417
     44  CZ         5.8510   34.8630  -12.3340 C.ar  174  TYR174      0.1957
     45  OH         4.9560   34.6530  -11.3040 O.3   174  TYR174     -0.2866
     46  N         11.1810   36.5110  -10.4340 N.3   176  ASN176     -0.1240
     47  CA        10.5090   37.3480   -9.4510 C.3   176  ASN176      0.1653
     48  C         11.5350   37.8740   -8.4440 C.2   176  ASN176      0.2266
     49  O         12.3110   37.1010   -7.8860 O.2   176  ASN176     -0.2867
     50  CB         9.4120   36.5280   -8.7510 C.3   176  ASN176      0.1155
     51  CG         8.8640   37.2030   -7.4990 C.2   176  ASN176      0.2627
     52  OD1        9.5980   37.5100   -6.5600 O.2   176  ASN176     -0.2716
     53  ND2        7.5650   37.4320   -7.4860 N.am  176  ASN176     -0.0877
     54  N         11.5620   39.8090   -4.8580 N.3   178  ASN178     -0.1240
     55  CA        10.6270   40.1870   -3.8070 C.3   178  ASN178      0.1653
     56  C         11.2820   40.5320   -2.4710 C.2   178  ASN178      0.2266
     57  O         12.3920   40.1000   -2.1760 O.2   178  ASN178     -0.2867
     58  CB         9.5540   39.1080   -3.6120 C.3   178  ASN178      0.1155
     59  CG        10.1190   37.8070   -3.0820 C.2   178  ASN178      0.2627
     60  OD1       10.3120   37.6520   -1.8800 O.2   178  ASN178     -0.2716
     61  ND2       10.3730   36.8570   -3.9780 N.am  178  ASN178     -0.0877
     62  N         -3.5120   47.1620   -2.8550 N.3   193  TRP193     -0.1241
     63  CA        -2.6010   46.3460   -3.6350 C.3   193  TRP193      0.1605
     64  C         -2.4390   47.0580   -4.9720 C.2   193  TRP193      0.2264
     65  O         -3.3740   47.1200   -5.7720 O.2   193  TRP193     -0.2867
     66  CB        -3.1970   44.9470   -3.8200 C.3   193  TRP193      0.0550
     67  CG        -2.4090   44.0290   -4.7130 C.ar  193  TRP193      0.0003
     68  CD1       -1.0660   44.0700   -4.9640 C.ar  193  TRP193      0.0946
     69  CD2       -2.9270   42.9330   -5.4800 C.ar  193  TRP193      0.0152
     70  NE1       -0.7160   43.0630   -5.8350 N.ar  193  TRP193     -0.2442
     71  CE2       -1.8410   42.3550   -6.1710 C.ar  193  TRP193      0.0810
     72  CE3       -4.2050   42.3860   -5.6500 C.ar  193  TRP193      0.0012
     73  CZ2       -1.9920   41.2520   -7.0180 C.ar  193  TRP193      0.0191
     74  CZ3       -4.3550   41.2910   -6.4950 C.ar  193  TRP193      0.0001
     75  CH2       -3.2520   40.7360   -7.1670 C.ar  193  TRP193      0.0015
     76  N          5.7010   43.2980  -14.3050 N.3   202  ARG202     -0.1245
     77  CA         4.8570   43.7830  -13.2090 C.3   202  ARG202      0.1563
     78  C          5.7190   44.3470  -12.0970 C.2   202  ARG202      0.2260
     79  O          6.8020   43.8330  -11.8250 O.2   202  ARG202     -0.2867
     80  CB         4.0370   42.6470  -12.5900 C.3   202  ARG202      0.0307
     81  CG         2.7980   42.2390  -13.3400 C.3   202  ARG202      0.0489
     82  CD         1.8590   41.4650  -12.4100 C.3   202  ARG202      0.2205
     83  NE         2.4470   40.2180  -11.9140 N.pl3 202  ARG202     -0.0865
     84  CZ         1.8350   39.3920  -11.0680 C.cat 202  ARG202      0.5346
     85  NH1        0.6180   39.6790  -10.6150 N.pl3 202  ARG202      0.1354
     86  NH2        2.4370   38.2820  -10.6720 N.pl3 202  ARG202      0.1354
     87  N          4.7730   44.5580    1.0750 N.3   213  TYR213     -0.1241
     88  CA         5.3700   43.4500    0.3550 C.3   213  TYR213      0.1605
     89  C          5.5080   43.9250   -1.0850 C.2   213  TYR213      0.2264
     90  O          4.5300   44.3770   -1.6810 O.2   213  TYR213     -0.2867
     91  CB         4.4880   42.2000    0.4190 C.3   213  TYR213      0.0534
     92  CG         4.9850   41.0970   -0.4920 C.ar  213  TYR213     -0.0201
     93  CD1        6.2940   40.6500   -0.4080 C.ar  213  TYR213     -0.0009
     94  CD2        4.1470   40.5050   -1.4330 C.ar  213  TYR213     -0.0009
     95  CE1        6.7640   39.6500   -1.2310 C.ar  213  TYR213      0.0417
     96  CE2        4.6130   39.5000   -2.2680 C.ar  213  TYR213      0.0417
     97  CZ         5.9250   39.0830   -2.1620 C.ar  213  TYR213      0.1957
     98  OH         6.4060   38.0860   -2.9750 O.3   213  TYR213     -0.2866
     99  N          7.0480   43.1090   -5.1520 N.3   215  PHE215     -0.1241
    100  CA         7.7040   42.2160   -6.1110 C.3   215  PHE215      0.1605
    101  C          7.8080   42.7990   -7.5180 C.2   215  PHE215      0.2264
    102  O          6.9500   43.5740   -7.9480 O.2   215  PHE215     -0.2867
    103  CB         7.0700   40.8090   -6.1360 C.3   215  PHE215      0.0534
    104  CG         5.6650   40.7600   -6.6780 C.ar  215  PHE215     -0.0203
    105  CD1        5.4340   40.6410   -8.0450 C.ar  215  PHE215     -0.0042
    106  CD2        4.5750   40.7840   -5.8190 C.ar  215  PHE215     -0.0042
    107  CE1        4.1380   40.5750   -8.5420 C.ar  215  PHE215     -0.0003
    108  CE2        3.2740   40.7120   -6.3130 C.ar  215  PHE215     -0.0003
    109  CZ         3.0580   40.6090   -7.6740 C.ar  215  PHE215     -0.0000
    110  N          8.3610   41.4080  -11.5250 N.3   217  ASP217     -0.1239
    111  CA         8.3770   40.2590  -12.4370 C.3   217  ASP217      0.1674
    112  C          9.0000   40.6780  -13.7580 C.2   217  ASP217      0.2266
    113  O          8.5830   41.6780  -14.3450 O.2   217  ASP217     -0.2867
    114  CB         6.9610   39.7840  -12.7720 C.3   217  ASP217      0.1410
    115  CG         6.2430   39.1550  -11.6050 C.2   217  ASP217      0.3668
    116  OD1        6.8650   38.9460  -10.5420 O.co2 217  ASP217     -0.2456
    117  OD2        5.0370   38.8520  -11.7800 O.co2 217  ASP217     -0.2456
    118  N          3.0530   31.7350   -8.4150 N.3   289  PRO289     -0.2102
    119  CA         2.3640   32.5850   -7.4340 C.3   289  PRO289      0.1504
    120  C          1.2840   33.4920   -8.0360 C.2   289  PRO289      0.2576
    121  O          0.6570   34.2530   -7.3070 O.2   289  PRO289     -0.2718
    122  CB         3.4980   33.4490   -6.8790 C.3   289  PRO289      0.0282
    123  CG         4.4730   33.5370   -7.9990 C.3   289  PRO289      0.0208
    124  CD         4.4350   32.1790   -8.6570 C.3   289  PRO289      0.0893
    125  N          1.0530   33.3850   -9.3390 N.am  290  ASP290     -0.1960
    126  CA         0.2540   34.3750  -10.0770 C.3   290  ASP290      0.1840
    127  C         -1.2070   34.6160   -9.6780 C.2   290  ASP290      0.2622
    128  O         -1.7850   35.6320  -10.0650 O.2   290  ASP290     -0.2715
    129  CB         0.3650   34.1320  -11.5800 C.3   290  ASP290      0.1450
    130  CG         1.7560   34.4350  -12.0950 C.2   290  ASP290      0.3671
    131  OD1        2.6850   33.6660  -11.7510 O.co2 290  ASP290     -0.2456
    132  OD2        1.9170   35.4470  -12.8160 O.co2 290  ASP290     -0.2456
    133  N         -1.8220   33.7150   -8.9290 N.am  291  ILE291     -0.1963
    134  CA        -3.1330   34.0710   -8.3800 C.3   291  ILE291      0.1727
    135  C         -3.1280   34.0760   -6.8540 C.2   291  ILE291      0.2616
    136  O         -4.1770   34.1620   -6.2130 O.2   291  ILE291     -0.2715
    137  CB        -4.2850   33.2110   -8.9550 C.3   291  ILE291      0.0290
    138  CG1       -4.0720   31.7280   -8.6540 C.3   291  ILE291      0.0022
    139  CG2       -4.4250   33.4570  -10.4650 C.3   291  ILE291      0.0023
    140  CD1       -5.2790   30.8620   -9.0190 C.3   291  ILE291      0.0001
    141  N         -1.9290   34.0040   -6.2870 N.am  292  GLY292     -0.1955
    142  CA        -1.7440   34.0710   -4.8490 C.3   292  GLY292      0.1869
    143  C         -2.5170   33.0020   -4.0990 C.2   292  GLY292      0.2309
    144  O         -3.1460   33.2950   -3.0820 O.2   292  GLY292     -0.2863
@<TRIPOS>BOND
     1    34    35    1
     2    35    38    1
     3    35    36    1
     4    38    39    1
     5    41    39   ar
     6    41    43   ar
     7    39    40   ar
     8   113   112    2
     9    76    77    1
    10    36    37    2
    11   112   111    1
    12    43    44   ar
    13    81    80    1
    14    81    82    1
    15    40    42   ar
    16    77    80    1
    17    77    78    1
    18   132   130   ar
    19   114   111    1
    20   114   115    1
    21   111   110    1
    22    82    83    1
    23    44    42   ar
    24    44    45    1
    25    78    79    2
    26   130   131   ar
    27   130   129    1
    28    83    84    2
    29   117   115   ar
    30   115   116   ar
    31   129   126    1
    32    84    86    1
    33    84    85    1
    34   139   137    1
    35    46    47    1
    36   126   127    1
    37   126   125    1
    38   128   127    2
    39   127   133   am
    40    47    50    1
    41    47    48    1
    42   125   120   am
    43   140   138    1
    44   137   138    1
    45   137   134    1
    46   133   134    1
    47    50    51    1
    48   124   118    1
    49   124   123    1
    50   107   105   ar
    51   107   109   ar
    52    48    49    2
    53   118   119    1
    54   134   135    1
    55   105   104   ar
    56   120   119    1
    57   120   121    2
    58   123   122    1
    59   102   101    2
    60   109   108   ar
    61   101   100    1
    62    51    53   am
    63    51    52    2
    64   119   122    1
    65    75    73   ar
    66    75    74   ar
    67    73    71   ar
    68   135   141   am
    69   135   136    2
    70   104   103    1
    71   104   106   ar
    72    74    72   ar
    73   108   106   ar
    74   141   142    1
    75    71    70   ar
    76    71    69   ar
    77   103   100    1
    78   100    99    1
    79    70    68   ar
    80    65    64    2
    81    72    69   ar
    82    69    67   ar
    83    64    63    1
    84    68    67   ar
    85    54    55    1
    86   142   143    1
    87    67    66    1
    88   143   144    2
    89    61    59   am
    90    66    63    1
    91    55    58    1
    92    55    56    1
    93    63    62    1
    94    58    59    1
    95    31    33   ar
    96    31    29   ar
    97    33    32   ar
    98    28    29   ar
    99    28    26   ar
   100    59    60    2
   101    29    27   ar
   102    98    97    1
   103    32    30   ar
   104    56    57    2
   105    26    25   ar
   106    96    97   ar
   107    96    94   ar
   108    27    30   ar
   109    27    25   ar
   110    97    95   ar
   111    25    24    1
   112    90    89    2
   113    94    92   ar
   114    95    93   ar
   115    18    19    1
   116    18    15    1
   117    89    88    1
   118    24    21    1
   119    92    93   ar
   120    92    91    1
   121    17    16    2
   122     4     3    2
   123    14    15    1
   124    14     8   am
   125    15    16    1
   126    88    91    1
   127    88    87    1
   128    21    20    1
   129    21    22    1
   130     7     8    1
   131     7     6    1
   132     7    10    1
   133     3     6   am
   134     3     2    1
   135     8     9    2
   136    22    23    2
   137    12    10    1
   138     1     2    1
   139    11    10    1
   140    11    13    1
   141     5     2    1
