@<TRIPOS>MOLECULE
tmp/3rpdA00.pdb
 108 101 0 0 0
SMALL
GASTEIGER

@<TRIPOS>ATOM
      1  N          4.0270   37.4570   39.9040 N.3    11  ALA11      -0.1231
      2  CA         3.7180   36.5850   38.7860 C.3    11  ALA11       0.1694
      3  C          2.4170   35.8160   38.9910 C.2    11  ALA11       0.2593
      4  O          1.8040   35.3910   38.0110 O.2    11  ALA11      -0.2718
      5  CB         4.8700   35.6370   38.4720 C.3    11  ALA11       0.0304
      6  N          2.0110   35.6000   40.2350 N.am   12  GLY12      -0.1942
      7  CA         0.6730   35.1030   40.5360 C.3    12  GLY12       0.2014
      8  C          0.5740   34.2480   41.7720 C.2    12  GLY12       0.2639
      9  O         -0.3450   34.4650   42.5950 O.2    12  GLY12      -0.2714
     10  N          1.4160   33.2230   41.8660 N.am   13  SER13      -0.1949
     11  CA         1.2710   32.2260   42.9310 C.3    13  SER13       0.1924
     12  C          2.0250   32.5760   44.1990 C.2    13  SER13       0.2314
     13  O          3.0930   33.1500   44.1800 O.2    13  SER13      -0.2863
     14  CB         1.6670   30.8320   42.5030 C.3    13  SER13       0.2116
     15  OG         3.0810   30.7500   42.3130 O.3    13  SER13      -0.2180
     16  N         -2.9010   32.1500   43.5460 N.3    64  GLU64      -0.1245
     17  CA        -3.1900   30.7820   43.0120 C.3    64  GLU64       0.1567
     18  C         -3.5300   29.7920   44.1250 C.2    64  GLU64       0.2260
     19  O         -3.1730   28.6080   44.0830 O.2    64  GLU64      -0.2867
     20  CB        -2.0730   30.3390   42.0250 C.3    64  GLU64       0.0388
     21  CG        -1.9540   31.4070   40.9380 C.3    64  GLU64       0.1160
     22  CD        -0.9480   31.2010   39.8530 C.2    64  GLU64       0.3649
     23  OE1       -0.2760   30.1650   39.7640 O.co2  64  GLU64      -0.2457
     24  OE2       -0.8610   32.1300   39.0140 O.co2  64  GLU64      -0.2457
     25  N         -0.2850   25.7150   38.1720 N.3    70  PHE70      -0.1241
     26  CA        -0.6650   26.8020   37.2620 C.3    70  PHE70       0.1605
     27  C         -1.0750   26.3610   35.8740 C.2    70  PHE70       0.2264
     28  O         -1.7280   27.1280   35.1650 O.2    70  PHE70      -0.2867
     29  CB         0.4430   27.8810   37.2000 C.3    70  PHE70       0.0534
     30  CG         1.5970   27.5650   36.2430 C.ar   70  PHE70      -0.0203
     31  CD1        2.5520   26.6110   36.5830 C.ar   70  PHE70      -0.0042
     32  CD2        1.7290   28.2420   35.0350 C.ar   70  PHE70      -0.0042
     33  CE1        3.6300   26.3510   35.7120 C.ar   70  PHE70      -0.0003
     34  CE2        2.7840   27.9750   34.1500 C.ar   70  PHE70      -0.0003
     35  CZ         3.7370   27.0350   34.4940 C.ar   70  PHE70      -0.0000
     36  N          9.1280   21.3670   28.9990 N.3    92  ARG92      -0.1245
     37  CA        10.0440   22.4780   28.6900 C.3    92  ARG92       0.1563
     38  C         11.3170   22.0250   27.9460 C.2    92  ARG92       0.2260
     39  O         12.3560   22.6810   28.0610 O.2    92  ARG92      -0.2867
     40  CB        10.3940   23.2640   29.9580 C.3    92  ARG92       0.0307
     41  CG         9.2100   23.5840   30.8430 C.3    92  ARG92       0.0489
     42  CD         8.1510   24.5050   30.2030 C.3    92  ARG92       0.2205
     43  NE         7.0300   24.5540   31.1280 N.pl3  92  ARG92      -0.0865
     44  CZ         5.9390   23.7950   31.0850 C.cat  92  ARG92       0.5346
     45  NH1        5.7130   22.9560   30.0750 N.pl3  92  ARG92       0.1354
     46  NH2        5.0560   23.8880   32.0610 N.pl3  92  ARG92       0.1354
     47  N         -4.1420   34.6170   36.4060 N.3   131  ALA131     -0.1245
     48  CA        -3.3360   33.9210   35.4240 C.3   131  ALA131      0.1562
     49  C         -4.0010   32.6130   35.0100 C.2   131  ALA131      0.2260
     50  O         -4.6140   31.8950   35.8070 O.2   131  ALA131     -0.2867
     51  CB        -1.9260   33.6380   35.9610 C.3   131  ALA131      0.0290
     52  N          0.3010   32.4150   31.0450 N.3   177  ASP177     -0.1239
     53  CA         1.6310   31.9560   31.4110 C.3   177  ASP177      0.1674
     54  C          2.1710   31.1170   30.2820 C.2   177  ASP177      0.2266
     55  O          1.6650   30.0030   29.9970 O.2   177  ASP177     -0.2867
     56  CB         1.5790   31.1720   32.7130 C.3   177  ASP177      0.1410
     57  CG         1.1680   32.0190   33.8650 C.2   177  ASP177      0.3668
     58  OD1        1.5000   33.2310   33.8600 O.co2 177  ASP177     -0.2456
     59  OD2        0.4920   31.4840   34.7860 O.co2 177  ASP177     -0.2456
     60  N          5.7750   30.0890   29.7970 N.3   179  PRO179     -0.2116
     61  CA         7.2030   29.7580   29.9100 C.3   179  PRO179      0.1372
     62  C          7.7280   28.9360   28.7140 C.2   179  PRO179      0.2244
     63  O          8.9020   29.0380   28.3770 O.2   179  PRO179     -0.2868
     64  CB         7.2710   29.0090   31.2580 C.3   179  PRO179      0.0268
     65  CG         5.8700   28.4460   31.4640 C.3   179  PRO179      0.0207
     66  CD         4.9750   29.5050   30.8980 C.3   179  PRO179      0.0892
     67  N          3.2590   36.0450   30.3920 N.3   210  HIS210     -0.1241
     68  CA         4.3790   35.8800   31.3090 C.3   210  HIS210      0.1621
     69  C          5.3350   34.8410   30.7350 C.2   210  HIS210      0.2264
     70  O          4.9380   33.7020   30.4580 O.2   210  HIS210     -0.2867
     71  CB         3.8660   35.4420   32.6890 C.3   210  HIS210      0.0745
     72  CG         4.9250   34.9290   33.6180 C.ar  210  HIS210      0.0817
     73  ND1        5.7930   35.7580   34.2900 N.ar  210  HIS210     -0.2268
     74  CD2        5.2030   33.6720   34.0330 C.ar  210  HIS210      0.1154
     75  CE1        6.5870   35.0320   35.0630 C.ar  210  HIS210      0.1986
     76  NE2        6.2540   33.7610   34.9240 N.ar  210  HIS210     -0.2212
     77  N          9.3590   33.3970   31.3970 N.3   212  CYS212     -0.1235
     78  CA        10.3450   33.4250   32.4710 C.3   212  CYS212      0.1677
     79  C         11.3250   32.2560   32.2850 C.2   212  CYS212      0.2270
     80  O         11.2810   31.5370   31.2700 O.2   212  CYS212     -0.2867
     81  CB         9.6000   33.2780   33.7910 C.3   212  CYS212      0.0956
     82  SG         8.8140   31.6490   33.9040 S.3   212  CYS212     -0.0801
     83  N         11.5640   30.1060   34.9210 N.3   214  GLY214     -0.1210
     84  CA        10.9690   29.0280   35.7190 C.3   214  GLY214      0.1956
     85  C         10.9490   29.1820   37.2110 C.2   214  GLY214      0.2611
     86  O         11.5140   30.1110   37.7820 O.2   214  GLY214     -0.2717
     87  N         10.2890   28.2330   37.8550 N.am  215  TYR215     -0.1976
     88  CA        10.2390   28.2150   39.3040 C.3   215  TYR215      0.1639
     89  C         11.5990   27.9830   39.9120 C.2   215  TYR215      0.2290
     90  O         12.5150   27.4760   39.2690 O.2   215  TYR215     -0.2864
     91  CB         9.3080   27.1100   39.7940 C.3   215  TYR215      0.0560
     92  CG         7.8370   27.3810   39.6410 C.ar  215  TYR215     -0.0198
     93  CD1        7.2340   28.4850   40.2570 C.ar  215  TYR215     -0.0009
     94  CD2        7.0460   26.5200   38.9060 C.ar  215  TYR215     -0.0009
     95  CE1        5.8670   28.7170   40.1250 C.ar  215  TYR215      0.0417
     96  CE2        5.7080   26.7440   38.7670 C.ar  215  TYR215      0.0417
     97  CZ         5.1190   27.8310   39.3780 C.ar  215  TYR215      0.1957
     98  OH         3.7700   27.9770   39.2480 O.3   215  TYR215     -0.2866
     99  N          9.0450   35.1300   38.7380 N.3   309  CYS309     -0.1221
    100  CA         8.1000   34.0210   38.5790 C.3   309  CYS309      0.1808
    101  C          7.3100   33.8960   39.8670 C.2   309  CYS309      0.2601
    102  O          7.4140   34.7490   40.7170 O.2   309  CYS309     -0.2717
    103  CB         8.8470   32.7180   38.2190 C.3   309  CYS309      0.0970
    104  SG         7.7860   31.4060   37.5510 S.3   309  CYS309     -0.0800
    105  N          6.5000   32.8510   39.9740 N.am  310  GLY310     -0.1957
    106  CA         5.6490   32.6180   41.1160 C.3   310  GLY310      0.1869
    107  C          6.4060   32.1220   42.3170 C.2   310  GLY310      0.2309
    108  O          7.5730   31.7630   42.2350 O.2   310  GLY310     -0.2863
@<TRIPOS>BOND
     1    38    39    2
     2    38    37    1
     3    63    62    2
     4    37    36    1
     5    37    40    1
     6    62    61    1
     7    60    61    1
     8    60    66    1
     9    61    64    1
    10    40    41    1
    11    55    54    2
    12    45    44    1
    13    42    41    1
    14    42    43    1
    15    54    53    1
    16    67    68    1
    17    70    69    2
    18    69    68    1
    19    66    65    1
    20    52    53    1
    21    44    43    2
    22    44    46    1
    23    64    65    1
    24    80    79    2
    25    68    71    1
    26    77    78    1
    27    53    56    1
    28    79    78    1
    29    78    81    1
    30    71    72    1
    31    56    57    1
    32    72    74   ar
    33    72    73   ar
    34    81    82    1
    35    58    57   ar
    36    57    59   ar
    37    74    76   ar
    38    34    35   ar
    39    34    32   ar
    40    73    75   ar
    41    35    33   ar
    42    83    84    1
    43    76    75   ar
    44    49    48    1
    45    49    50    2
    46    32    30   ar
    47    28    27    2
    48    48    51    1
    49    48    47    1
    50    33    31   ar
    51    84    85    1
    52    27    26    1
    53    30    31   ar
    54    30    29    1
    55    29    26    1
    56    85    86    2
    57    85    87   am
    58    26    25    1
    59   104   103    1
    60    87    88    1
    61     4     3    2
    62   103   100    1
    63     5     2    1
    64   100    99    1
    65   100   101    1
    66    96    94   ar
    67    96    97   ar
    68     2     3    1
    69     2     1    1
    70    94    92   ar
    71     3     6   am
    72    24    22   ar
    73    98    97    1
    74    90    89    2
    75    88    91    1
    76    88    89    1
    77    97    95   ar
    78    92    91    1
    79    92    93   ar
    80    23    22   ar
    81    22    21    1
    82   101   105   am
    83   101   102    2
    84   105   106    1
    85    95    93   ar
    86     6     7    1
    87     7     8    1
    88    21    20    1
    89   106   107    1
    90     8    10   am
    91     8     9    2
    92    10    11    1
    93    20    17    1
    94   108   107    2
    95    15    14    1
    96    14    11    1
    97    11    12    1
    98    17    16    1
    99    17    18    1
   100    19    18    2
   101    13    12    2
