@<TRIPOS>MOLECULE
tmp/3rpeA00.pdb
 194 196 0 0 0
SMALL
GASTEIGER

@<TRIPOS>ATOM
      1  N         55.3920   10.5920    4.5810 N.3    14  LYS14      -0.1245
      2  CA        55.4120    9.3250    3.8640 C.3    14  LYS14       0.1561
      3  C         56.6370    8.5320    4.2630 C.2    14  LYS14       0.2260
      4  O         57.7520    9.0670    4.3080 O.2    14  LYS14      -0.2867
      5  CB        55.3800    9.5100    2.3510 C.3    14  LYS14       0.0271
      6  CG        55.2770    8.1820    1.5800 C.3    14  LYS14       0.0035
      7  CD        54.8990    8.4360    0.1210 C.3    14  LYS14       0.0206
      8  CE        54.8310    7.1670   -0.7170 C.3    14  LYS14       0.1093
      9  NZ        53.7960    6.2300   -0.2090 N.3    14  LYS14      -0.1314
     10  N         59.2690    6.1040    3.2940 N.3    16  PHE16      -0.1227
     11  CA        59.9230    5.7160    2.0530 C.3    16  PHE16       0.1736
     12  C         61.4120    5.9390    2.1600 C.2    16  PHE16       0.2595
     13  O         61.8480    7.0230    2.5630 O.2    16  PHE16      -0.2718
     14  CB        59.3590    6.5220    0.8710 C.3    16  PHE16       0.0547
     15  CG        60.0330    6.2350   -0.4490 C.ar   16  PHE16      -0.0202
     16  CD1       59.9440    4.9740   -1.0380 C.ar   16  PHE16      -0.0042
     17  CD2       60.7100    7.2410   -1.1250 C.ar   16  PHE16      -0.0042
     18  CE1       60.5570    4.7210   -2.2540 C.ar   16  PHE16      -0.0003
     19  CE2       61.3140    6.9970   -2.3390 C.ar   16  PHE16      -0.0003
     20  CZ        61.2400    5.7420   -2.9060 C.ar   16  PHE16      -0.0000
     21  N         62.1960    4.9280    1.8060 N.am   17  ALA17      -0.1966
     22  CA        63.6390    5.0450    1.8400 C.3    17  ALA17       0.1728
     23  C         64.0970    5.5690    3.1960 C.2    17  ALA17       0.2616
     24  O         63.7540    4.9930    4.2190 O.2    17  ALA17      -0.2715
     25  CB        64.1470    5.9020    0.6810 C.3    17  ALA17       0.0334
     26  N         64.8220    6.6790    3.2310 N.am   18  HIS18      -0.1959
     27  CA        65.3230    7.1860    4.5170 C.3    18  HIS18       0.1787
     28  C         64.3810    8.1230    5.3010 C.2    18  HIS18       0.2621
     29  O         64.7510    8.6270    6.3630 O.2    18  HIS18      -0.2715
     30  CB        66.7250    7.7580    4.3680 C.3    18  HIS18       0.0785
     31  CG        66.8310    8.8710    3.3830 C.ar   18  HIS18       0.0821
     32  ND1       66.7740    8.6690    2.0200 N.ar   18  HIS18      -0.2267
     33  CD2       67.0350   10.1940    3.5610 C.ar   18  HIS18       0.1154
     34  CE1       66.9110    9.8290    1.4040 C.ar   18  HIS18       0.1986
     35  NE2       67.0840   10.7660    2.3150 N.ar   18  HIS18      -0.2212
     36  N         63.1740    8.3420    4.7790 N.am   19  SER19      -0.1936
     37  CA        62.1450    9.1050    5.4930 C.3    19  SER19       0.2055
     38  C         61.2150    8.1050    6.1860 C.2    19  SER19       0.2643
     39  O         60.7440    7.1770    5.5380 O.2    19  SER19      -0.2714
     40  CB        61.2900    9.9460    4.5490 C.3    19  SER19       0.2130
     41  OG        61.9860   11.0550    4.0050 O.3    19  SER19      -0.2179
     42  N         60.9130    8.3220    7.4680 N.am   20  LYS20      -0.1963
     43  CA        59.9920    7.4330    8.2250 C.3    20  LYS20       0.1728
     44  C         58.6480    8.1020    8.5890 C.2    20  LYS20       0.2617
     45  O         57.7290    7.4530    9.0970 O.2    20  LYS20      -0.2715
     46  CB        60.6790    6.8370    9.4690 C.3    20  LYS20       0.0311
     47  CG        61.9750    6.0690    9.1470 C.3    20  LYS20       0.0038
     48  CD        61.7590    4.8710    8.2410 C.3    20  LYS20       0.0206
     49  CE        63.0880    4.2270    7.8620 C.3    20  LYS20       0.1093
     50  NZ        62.9240    3.1200    6.8780 N.3    20  LYS20      -0.1314
     51  N         58.5480    9.4070    8.3410 N.am   21  GLY21      -0.1940
     52  CA        57.3100   10.1620    8.5690 C.3    21  GLY21       0.2014
     53  C         56.9960   10.6400    9.9780 C.2    21  GLY21       0.2639
     54  O         56.0050   11.3310   10.1990 O.2    21  GLY21      -0.2714
     55  N         57.8300   10.2690   10.9410 N.am   22  ALA22      -0.1963
     56  CA        57.5570   10.5810   12.3450 C.3    22  ALA22       0.1728
     57  C         57.6290   12.0560   12.6890 C.2    22  ALA22       0.2616
     58  O         56.8410   12.5420   13.4960 O.2    22  ALA22      -0.2715
     59  CB        58.4890    9.7920   13.2530 C.3    22  ALA22       0.0334
     60  N         58.5870   12.7720   12.1120 N.am   23  LEU23      -0.1963
     61  CA        58.7110   14.2050   12.4120 C.3    23  LEU23       0.1728
     62  C         57.4960   14.9610   11.8990 C.2    23  LEU23       0.2616
     63  O         56.9440   15.8210   12.5790 O.2    23  LEU23      -0.2715
     64  CB        59.9850   14.7860   11.8060 C.3    23  LEU23       0.0311
     65  CG        60.2250   16.2770   12.0730 C.3    23  LEU23       0.0022
     66  CD1       60.2640   16.6050   13.5680 C.3    23  LEU23       0.0001
     67  CD2       61.5100   16.7130   11.4040 C.3    23  LEU23       0.0001
     68  N         57.0690   14.6190   10.6950 N.am   24  ASN24      -0.1972
     69  CA        55.9010   15.2720   10.1120 C.3    24  ASN24       0.1688
     70  C         54.6050   14.9100   10.8300 C.2    24  ASN24       0.2292
     71  O         53.7350   15.7530   11.0020 O.2    24  ASN24      -0.2864
     72  CB        55.8340   15.0830    8.6080 C.3    24  ASN24       0.1181
     73  CG        56.7830   16.0360    7.8850 C.2    24  ASN24       0.2629
     74  OD1       56.3960   17.1350    7.5230 O.2    24  ASN24      -0.2716
     75  ND2       58.0450   15.6580    7.7530 N.am   24  ASN24      -0.0877
     76  N         54.4990   14.2160   14.0290 N.3    26  THR26      -0.1218
     77  CA        54.6380   14.9470   15.2890 C.3    26  THR26       0.1862
     78  C         54.2320   16.4090   15.1350 C.2    26  THR26       0.2287
     79  O         53.4590   16.9290   15.9390 O.2    26  THR26      -0.2866
     80  CB        56.0920   14.8900   15.8260 C.3    26  THR26       0.1770
     81  OG1       56.4670   13.5220   16.0730 O.3    26  THR26      -0.2211
     82  CG2       56.2420   15.7100   17.1150 C.3    26  THR26       0.0375
     83  N         57.6980   16.9000    4.3790 N.3    71  PRO71      -0.2102
     84  CA        59.1280   16.7910    4.2370 C.3    71  PRO71       0.1504
     85  C         59.5420   17.3160    2.8610 C.2    71  PRO71       0.2576
     86  O         58.7520   17.3490    1.9190 O.2    71  PRO71      -0.2718
     87  CB        59.3680   15.2670    4.2930 C.3    71  PRO71       0.0282
     88  CG        58.1380   14.7010    3.6980 C.3    71  PRO71       0.0208
     89  CD        57.0220   15.6060    4.1470 C.3    71  PRO71       0.0893
     90  N         60.8070   17.6940    2.7580 N.am   72  ALA72      -0.1966
     91  CA        61.4270   18.0170    1.4870 C.3    72  ALA72       0.1728
     92  C         61.8910   16.7140    0.8170 C.2    72  ALA72       0.2616
     93  O         62.7050   15.9520    1.3660 O.2    72  ALA72      -0.2715
     94  CB        62.6120   18.9040    1.6980 C.3    72  ALA72       0.0334
     95  N         61.3600   16.4520   -0.3640 N.am   73  TRP73      -0.1960
     96  CA        61.7560   15.3220   -1.2210 C.3    73  TRP73       0.1771
     97  C         62.1890   15.9300   -2.5620 C.2    73  TRP73       0.2620
     98  O         61.4120   16.5830   -3.2650 O.2    73  TRP73      -0.2715
     99  CB        60.6200   14.3410   -1.4280 C.3    73  TRP73       0.0590
    100  CG        60.4060   13.3410   -0.3370 C.ar   73  TRP73       0.0006
    101  CD1       60.8430   13.3970    0.9550 C.ar   73  TRP73       0.0946
    102  CD2       59.6000   12.1700   -0.4360 C.ar   73  TRP73       0.0152
    103  NE1       60.3990   12.3040    1.6500 N.ar   73  TRP73      -0.2442
    104  CE2       59.6320   11.5290    0.8200 C.ar   73  TRP73       0.0810
    105  CE3       58.8800   11.5910   -1.4780 C.ar   73  TRP73       0.0012
    106  CZ2       58.9570   10.3430    1.0670 C.ar   73  TRP73       0.0191
    107  CZ3       58.2150   10.4080   -1.2430 C.ar   73  TRP73       0.0001
    108  CH2       58.2550    9.7940    0.0290 C.ar   73  TRP73       0.0015
    109  N         63.4540   15.7680   -2.8920 N.am   74  TRP74      -0.1960
    110  CA        64.0100   16.2900   -4.1360 C.3    74  TRP74       0.1771
    111  C         63.6070   17.7480   -4.3740 C.2    74  TRP74       0.2619
    112  O         63.0840   18.1160   -5.4150 O.2    74  TRP74      -0.2715
    113  CB        63.7250   15.3360   -5.3210 C.3    74  TRP74       0.0590
    114  CG        64.4850   14.0720   -5.0990 C.ar   74  TRP74       0.0006
    115  CD1       63.9900   12.8720   -4.6650 C.ar   74  TRP74       0.0946
    116  CD2       65.9010   13.9370   -5.1520 C.ar   74  TRP74       0.0152
    117  NE1       65.0140   11.9900   -4.4930 N.ar   74  TRP74      -0.2442
    118  CE2       66.2000   12.6240   -4.7690 C.ar   74  TRP74       0.0810
    119  CE3       66.9490   14.7900   -5.5150 C.ar   74  TRP74       0.0012
    120  CZ2       67.5060   12.1420   -4.7310 C.ar   74  TRP74       0.0191
    121  CZ3       68.2320   14.3140   -5.4790 C.ar   74  TRP74       0.0001
    122  CH2       68.5110   13.0080   -5.0830 C.ar   74  TRP74       0.0015
    123  N         63.8980   18.5570   -3.3440 N.am   75  MET75      -0.1977
    124  CA        63.7480   20.0240   -3.3400 C.3    75  MET75       0.1605
    125  C         62.3400   20.5520   -3.2290 C.2    75  MET75       0.2287
    126  O         62.1450   21.7640   -3.3350 O.2    75  MET75      -0.2864
    127  CB        64.4450   20.6650   -4.5730 C.3    75  MET75       0.0413
    128  CG        65.8150   20.0770   -4.8580 C.3    75  MET75       0.0598
    129  SD        66.9570   20.2680   -3.4560 S.3    75  MET75      -0.1393
    130  CE        67.9610   18.7940   -3.6430 C.3    75  MET75       0.0692
    131  N         60.2660   20.2480    6.4200 N.3   127  THR127     -0.1203
    132  CA        61.3850   19.6090    7.1270 C.3   127  THR127      0.1994
    133  C         62.4420   19.1630    6.1070 C.2   127  THR127      0.2618
    134  O         62.1590   18.4210    5.1540 O.2   127  THR127     -0.2717
    135  CB        60.9170   18.4210    8.0150 C.3   127  THR127      0.1784
    136  OG1       60.3410   17.3980    7.2160 O.3   127  THR127     -0.2211
    137  CG2       59.8860   18.8950    9.0230 C.3   127  THR127      0.0376
    138  N         63.6660   19.6350    6.3150 N.am  128  TRP128     -0.1961
    139  CA        64.7770   19.4060    5.4020 C.3   128  TRP128      0.1771
    140  C         66.0150   18.8320    6.0730 C.2   128  TRP128      0.2620
    141  O         66.3390   19.1800    7.2090 O.2   128  TRP128     -0.2715
    142  CB        65.2280   20.7540    4.7890 C.3   128  TRP128      0.0590
    143  CG        64.3120   21.3250    3.7410 C.ar  128  TRP128      0.0006
    144  CD1       63.0400   21.7890    3.9250 C.ar  128  TRP128      0.0946
    145  CD2       64.6060   21.4900    2.3470 C.ar  128  TRP128      0.0152
    146  NE1       62.5220   22.2350    2.7170 N.ar  128  TRP128     -0.2442
    147  CE2       63.4610   22.0480    1.7410 C.ar  128  TRP128      0.0810
    148  CE3       65.7030   21.1780    1.5470 C.ar  128  TRP128      0.0012
    149  CZ2       63.4130   22.3480    0.3840 C.ar  128  TRP128      0.0191
    150  CZ3       65.6560   21.4620    0.2070 C.ar  128  TRP128      0.0001
    151  CH2       64.5080   22.0450   -0.3750 C.ar  128  TRP128      0.0015
    152  N         66.6990   17.9340    5.3650 N.am  129  ASN129     -0.1958
    153  CA        68.0600   17.5120    5.7210 C.3   129  ASN129      0.1819
    154  C         69.0200   18.7130    5.5050 C.2   129  ASN129      0.2621
    155  O         69.9580   18.9410    6.2750 O.2   129  ASN129     -0.2715
    156  CB        68.4870   16.3290    4.8360 C.3   129  ASN129      0.1195
    157  CG        69.9850   16.0670    4.8610 C.2   129  ASN129      0.2630
    158  OD1       70.5710   15.7730    5.8990 O.2   129  ASN129     -0.2716
    159  ND2       70.6100   16.1750    3.6890 N.am  129  ASN129     -0.0877
    160  N         68.7770   19.5150    4.4660 N.am  130  ALA130     -0.1977
    161  CA        69.6450   20.6700    4.1680 C.3   130  ALA130      0.1597
    162  C         69.7200   21.6360    5.3470 C.2   130  ALA130      0.2287
    163  O         68.7400   21.8070    6.0870 O.2   130  ALA130     -0.2864
    164  CB        69.1410   21.4540    2.9290 C.3   130  ALA130      0.0319
    165  N         67.4750   17.9380    9.8000 N.3   174  VAL174     -0.1231
    166  CA        66.6050   17.0940   10.6380 C.3   174  VAL174      0.1692
    167  C         67.0400   15.6460   10.7650 C.2   174  VAL174      0.2591
    168  O         66.5320   14.9060   11.6190 O.2   174  VAL174     -0.2718
    169  CB        65.1280   17.1330   10.1730 C.3   174  VAL174      0.0266
    170  CG1       64.5940   18.6050   10.1670 C.3   174  VAL174      0.0020
    171  CG2       64.9720   16.4880    8.8190 C.3   174  VAL174      0.0020
    172  N         67.9910   15.2240    9.9370 N.am  175  ILE175     -0.1980
    173  CA        68.4710   13.8430    9.9960 C.3   175  ILE175      0.1595
    174  C         69.7180   13.7500   10.8650 C.2   175  ILE175      0.2287
    175  O         69.7740   12.9740   11.8280 O.2   175  ILE175     -0.2864
    176  CB        68.7700   13.2680    8.5920 C.3   175  ILE175      0.0276
    177  CG1       67.5200   13.3440    7.7090 C.3   175  ILE175      0.0022
    178  CG2       69.2730   11.8330    8.6930 C.3   175  ILE175      0.0022
    179  CD1       67.7310   12.7840    6.3370 C.3   175  ILE175      0.0001
    180  N         68.8630   16.0300   14.8220 N.3   178  PRO178     -0.2116
    181  CA        67.4910   16.1300   15.2890 C.3   178  PRO178      0.1372
    182  C         67.3960   16.9870   16.5420 C.2   178  PRO178      0.2244
    183  O         68.2440   16.8970   17.4340 O.2   178  PRO178     -0.2868
    184  CB        67.1020   14.6770   15.6020 C.3   178  PRO178      0.0268
    185  CG        68.1330   13.8330   14.9780 C.3   178  PRO178      0.0207
    186  CD        69.3660   14.6460   14.8550 C.3   178  PRO178      0.0892
    187  N         63.9660   17.7850   18.3010 N.3   180  ILE180     -0.1245
    188  CA        62.5050   17.7460   18.4040 C.3   180  ILE180      0.1561
    189  C         61.9540   18.7960   19.3630 C.2   180  ILE180      0.2260
    190  O         60.9790   19.4760   19.0500 O.2   180  ILE180     -0.2867
    191  CB        61.9760   16.3480   18.8130 C.3   180  ILE180      0.0252
    192  CG1       60.4550   16.2990   18.6530 C.3   180  ILE180      0.0019
    193  CG2       62.3940   15.9960   20.2370 C.3   180  ILE180      0.0019
    194  CD1       59.9760   16.5680   17.2280 C.3   180  ILE180      0.0001
@<TRIPOS>BOND
     1   119   121   ar
     2   119   116   ar
     3   121   122   ar
     4   112   111    2
     5   113   114    1
     6   113   110    1
     7   116   114   ar
     8   116   118   ar
     9   114   115   ar
    10   122   120   ar
    11   128   127    1
    12   128   129    1
    13   118   120   ar
    14   118   117   ar
    15   115   117   ar
    16   127   124    1
    17   111   110    1
    18   111   123   am
    19   110   109    1
    20   130   129    1
    21   123   124    1
    22   124   125    1
    23   126   125    2
    24    98    97    2
    25    20    19   ar
    26    20    18   ar
    27   109    97   am
    28    97    96    1
    29    19    17   ar
    30    18    16   ar
    31   105   107   ar
    32   105   102   ar
    33    99    96    1
    34    99   100    1
    35   107   108   ar
    36    96    95    1
    37    17    15   ar
    38    16    15   ar
    39     8     9    1
    40     8     7    1
    41    15    14    1
    42   102   100   ar
    43   102   104   ar
    44   151   150   ar
    45   151   149   ar
    46    95    92   am
    47   100   101   ar
    48   108   106   ar
    49     7     6    1
    50   150   148   ar
    51   149   147   ar
    52    25    22    1
    53    92    93    2
    54    92    91    1
    55   104   106   ar
    56   104   103   ar
    57    14    11    1
    58   101   103   ar
    59    34    32   ar
    60    34    35   ar
    61    91    94    1
    62    91    90    1
    63   148   145   ar
    64     6     5    1
    65   147   145   ar
    66   147   146   ar
    67    21    22    1
    68    21    12   am
    69    22    23    1
    70    86    85    2
    71    32    31   ar
    72    11    12    1
    73    11    10    1
    74    12    13    2
    75    35    33   ar
    76   145   143   ar
    77     5     2    1
    78   146   144   ar
    79    90    85   am
    80    85    84    1
    81   164   161    1
    82    23    26   am
    83    23    24    2
    84    26    27    1
    85    31    33   ar
    86    31    30    1
    87   159   157   am
    88    88    89    1
    89    88    87    1
    90   143   144   ar
    91   143   142    1
    92     2     3    1
    93     2     1    1
    94    41    40    1
    95    89    83    1
    96   161   160    1
    97   161   162    1
    98    84    87    1
    99    84    83    1
   100     3     4    2
   101    30    27    1
   102   160   154   am
   103    27    28    1
   104    40    37    1
   105    36    28   am
   106    36    37    1
   107   142   139    1
   108   156   157    1
   109   156   153    1
   110   157   158    2
   111   134   133    2
   112    28    29    2
   113   162   163    2
   114   152   153    1
   115   152   140   am
   116   139   140    1
   117   139   138    1
   118    37    38    1
   119   154   153    1
   120   154   155    2
   121    39    38    2
   122   140   141    2
   123   133   138   am
   124   133   132    1
   125    38    42   am
   126   179   177    1
   127   131   132    1
   128    50    49    1
   129   132   135    1
   130   136   135    1
   131    42    43    1
   132    74    73    2
   133   177   176    1
   134    75    73   am
   135    49    48    1
   136    73    72    1
   137   135   137    1
   138    43    44    1
   139    43    46    1
   140    48    47    1
   141    51    52    1
   142    51    44   am
   143    52    53    1
   144    44    45    2
   145   176   178    1
   146   176   173    1
   147    72    69    1
   148   171   169    1
   149    47    46    1
   150   165   166    1
   151   172   173    1
   152   172   167   am
   153    53    54    2
   154    53    55   am
   155   173   174    1
   156    69    68    1
   157    69    70    1
   158   170   169    1
   159   169   166    1
   160   166   167    1
   161    68    62   am
   162   167   168    2
   163    70    71    2
   164   174   175    2
   165    55    56    1
   166    67    65    1
   167    64    65    1
   168    64    61    1
   169    62    61    1
   170    62    63    2
   171    65    66    1
   172    60    61    1
   173    60    57   am
   174    56    57    1
   175    56    59    1
   176    57    58    2
   177    76    77    1
   178   180   186    1
   179   180   181    1
   180   186   185    1
   181   185   184    1
   182    78    77    1
   183    78    79    2
   184    77    80    1
   185   181   184    1
   186   181   182    1
   187    80    81    1
   188    80    82    1
   189   182   183    2
   190   194   192    1
   191   187   188    1
   192   188   191    1
   193   188   189    1
   194   192   191    1
   195   191   193    1
   196   190   189    2
