@<TRIPOS>MOLECULE
tmp/3rphA00.pdb
 161 154 0 0 0
SMALL
GASTEIGER

@<TRIPOS>ATOM
      1  N        -19.0780  -43.5440  -17.2840 N.3   129  ASP129     -0.1239
      2  CA       -19.7130  -42.3530  -17.8790 C.3   129  ASP129      0.1674
      3  C        -20.2430  -41.4480  -16.7870 C.2   129  ASP129      0.2266
      4  O        -20.4510  -41.8940  -15.6560 O.2   129  ASP129     -0.2867
      5  CB       -20.8520  -42.8010  -18.8400 C.3   129  ASP129      0.1410
      6  CG       -21.4700  -41.6650  -19.6050 C.2   129  ASP129      0.3668
      7  OD1      -20.7640  -40.6570  -19.8740 O.co2 129  ASP129     -0.2456
      8  OD2      -22.6740  -41.7880  -19.9730 O.co2 129  ASP129     -0.2456
      9  N        -17.8260  -35.9960  -22.2060 N.3   150  HIS150     -0.1241
     10  CA       -17.8900  -34.8070  -23.0130 C.3   150  HIS150      0.1621
     11  C        -16.8150  -33.8640  -22.5130 C.2   150  HIS150      0.2264
     12  O        -16.1730  -34.1240  -21.4830 O.2   150  HIS150     -0.2867
     13  CB       -19.2800  -34.1820  -23.0740 C.3   150  HIS150      0.0745
     14  CG       -19.7990  -33.6840  -21.7810 C.ar  150  HIS150      0.0817
     15  ND1      -19.1160  -32.7740  -20.9950 N.ar  150  HIS150     -0.2268
     16  CD2      -20.9600  -33.9460  -21.1380 C.ar  150  HIS150      0.1154
     17  CE1      -19.8510  -32.4920  -19.9220 C.ar  150  HIS150      0.1986
     18  NE2      -20.9790  -33.1830  -19.9920 N.ar  150  HIS150     -0.2212
     19  N        -16.6540  -32.9840  -18.8260 N.3   153  GLU153     -0.1245
     20  CA       -16.2200  -34.0950  -18.0530 C.3   153  GLU153      0.1567
     21  C        -14.7190  -34.3500  -18.2170 C.2   153  GLU153      0.2260
     22  O        -14.0360  -34.7320  -17.2560 O.2   153  GLU153     -0.2867
     23  CB       -17.0390  -35.3180  -18.4430 C.3   153  GLU153      0.0388
     24  CG       -18.4690  -35.2280  -17.8570 C.3   153  GLU153      0.1160
     25  CD       -19.4910  -36.1260  -18.4960 C.2   153  GLU153      0.3649
     26  OE1      -19.2700  -36.6270  -19.6220 O.co2 153  GLU153     -0.2457
     27  OE2      -20.5950  -36.2260  -17.8810 O.co2 153  GLU153     -0.2457
     28  N        -16.3490  -36.9730  -26.5750 N.3   187  LYS187     -0.1231
     29  CA       -17.5560  -36.6320  -27.3130 C.3   187  LYS187      0.1693
     30  C        -17.5350  -35.2620  -27.9300 C.2   187  LYS187      0.2593
     31  O        -16.7060  -34.4160  -27.5640 O.2   187  LYS187     -0.2718
     32  CB       -18.7240  -36.6970  -26.3720 C.3   187  LYS187      0.0285
     33  CG       -19.0350  -38.0750  -25.8770 C.3   187  LYS187      0.0035
     34  CD       -19.9270  -37.9000  -24.6170 C.3   187  LYS187      0.0206
     35  CE       -20.6140  -39.1470  -24.3350 C.3   187  LYS187      0.1093
     36  NZ       -21.1310  -39.1960  -22.8980 N.3   187  LYS187     -0.1314
     37  N        -18.4670  -35.0810  -28.8780 N.am  188  GLY188     -0.1942
     38  CA       -18.6160  -33.8760  -29.6370 C.3   188  GLY188      0.2014
     39  C        -18.7360  -34.1700  -31.1300 C.2   188  GLY188      0.2639
     40  O        -18.6410  -35.3090  -31.5840 O.2   188  GLY188     -0.2714
     41  N        -18.9610  -33.1160  -31.8970 N.am  189  ASN189     -0.1958
     42  CA       -18.7450  -33.1890  -33.3310 C.3   189  ASN189      0.1819
     43  C        -17.3560  -33.8250  -33.5310 C.2   189  ASN189      0.2621
     44  O        -16.4080  -33.4520  -32.8510 O.2   189  ASN189     -0.2715
     45  CB       -18.8160  -31.7850  -33.9430 C.3   189  ASN189      0.1195
     46  CG       -18.5680  -31.7660  -35.4460 C.2   189  ASN189      0.2630
     47  OD1      -19.1310  -32.5440  -36.2030 O.2   189  ASN189     -0.2716
     48  ND2      -17.6550  -30.8640  -35.8910 N.am  189  ASN189     -0.0877
     49  N        -17.2580  -34.7960  -34.4350 N.am  190  GLN190     -0.1963
     50  CA       -16.0270  -35.5850  -34.6800 C.3   190  GLN190      0.1733
     51  C        -15.4800  -36.1460  -33.3760 C.2   190  GLN190      0.2617
     52  O        -14.3620  -35.8230  -32.9470 O.2   190  GLN190     -0.2715
     53  CB       -14.9630  -34.7750  -35.4370 C.3   190  GLN190      0.0408
     54  CG       -15.5210  -34.3810  -36.8380 C.3   190  GLN190      0.0908
     55  CD       -14.4990  -33.7650  -37.7490 C.2   190  GLN190      0.2608
     56  OE1      -13.4740  -33.2440  -37.3010 O.2   190  GLN190     -0.2717
     57  NE2      -14.7850  -33.7700  -39.0310 N.am  190  GLN190     -0.0878
     58  N        -16.3040  -36.9930  -32.7690 N.am  191  THR191     -0.1951
     59  CA       -15.9600  -37.6640  -31.5340 C.3   191  THR191      0.1897
     60  C        -14.6240  -38.3510  -31.7660 C.2   191  THR191      0.2313
     61  O        -14.4150  -38.9640  -32.8330 O.2   191  THR191     -0.2863
     62  CB       -17.0670  -38.6810  -31.1310 C.3   191  THR191      0.1794
     63  OG1      -18.1700  -37.9240  -30.5690 O.3   191  THR191     -0.2208
     64  CG2      -16.5520  -39.7410  -30.1150 C.3   191  THR191      0.0378
     65  N        -19.9210  -39.5210  -38.1850 N.3   205  THR205     -0.1203
     66  CA       -21.3790  -39.4450  -38.1920 C.3   205  THR205      0.1994
     67  C        -21.9320  -38.5700  -37.0760 C.2   205  THR205      0.2618
     68  O        -21.2780  -38.3230  -36.0420 O.2   205  THR205     -0.2717
     69  CB       -22.0210  -40.8570  -38.0870 C.3   205  THR205      0.1784
     70  OG1      -21.7130  -41.3850  -36.8080 O.3   205  THR205     -0.2211
     71  CG2      -21.5600  -41.7900  -39.2520 C.3   205  THR205      0.0376
     72  N        -23.1820  -38.1510  -37.2470 N.am  206  GLY206     -0.1942
     73  CA       -23.7880  -37.3240  -36.2190 C.3   206  GLY206      0.2014
     74  C        -23.9720  -35.8780  -36.6090 C.2   206  GLY206      0.2639
     75  O        -23.4090  -35.3920  -37.5970 O.2   206  GLY206     -0.2714
     76  N        -24.8190  -35.2100  -35.8530 N.am  207  ASN207     -0.1958
     77  CA       -25.1220  -33.8060  -36.1210 C.3   207  ASN207      0.1819
     78  C        -25.7530  -33.1850  -34.9010 C.2   207  ASN207      0.2621
     79  O        -25.8010  -33.8210  -33.8070 O.2   207  ASN207     -0.2715
     80  CB       -26.0220  -33.6630  -37.3510 C.3   207  ASN207      0.1195
     81  CG       -27.3480  -34.3990  -37.1850 C.2   207  ASN207      0.2630
     82  OD1      -27.9310  -34.3940  -36.0960 O.2   207  ASN207     -0.2716
     83  ND2      -27.8280  -35.0230  -38.2620 N.am  207  ASN207     -0.0877
     84  N        -26.1310  -31.9200  -35.0390 N.am  208  GLY208     -0.1954
     85  CA       -26.6360  -31.1710  -33.8930 C.3   208  GLY208      0.1869
     86  C        -27.9250  -31.6790  -33.2780 C.2   208  GLY208      0.2309
     87  O        -28.3150  -31.2030  -32.1970 O.2   208  GLY208     -0.2863
     88  N        -28.1390  -34.3090  -31.9060 N.3   210  LEU210     -0.1231
     89  CA       -27.5600  -34.9580  -30.7140 C.3   210  LEU210      0.1693
     90  C        -27.2490  -34.0230  -29.5600 C.2   210  LEU210      0.2592
     91  O        -26.9680  -34.4840  -28.4570 O.2   210  LEU210     -0.2718
     92  CB       -26.3030  -35.7580  -31.0860 C.3   210  LEU210      0.0284
     93  CG       -26.5510  -36.9580  -32.0040 C.3   210  LEU210      0.0019
     94  CD1      -25.2000  -37.5640  -32.4500 C.3   210  LEU210      0.0001
     95  CD2      -27.4720  -38.0750  -31.3860 C.3   210  LEU210      0.0001
     96  N        -27.3270  -32.7150  -29.7890 N.am  211  ALA211     -0.1966
     97  CA       -26.9160  -31.7050  -28.8140 C.3   211  ALA211      0.1728
     98  C        -28.0690  -31.4050  -27.8900 C.2   211  ALA211      0.2616
     99  O        -28.6120  -30.3050  -27.8770 O.2   211  ALA211     -0.2715
    100  CB       -26.4580  -30.3920  -29.5630 C.3   211  ALA211      0.0334
    101  N        -28.4440  -32.4250  -27.1140 N.am  212  LYS212     -0.1963
    102  CA       -29.5660  -32.3400  -26.1980 C.3   212  LYS212      0.1728
    103  C        -29.4460  -33.4570  -25.1860 C.2   212  LYS212      0.2617
    104  O        -28.9730  -34.5390  -25.5070 O.2   212  LYS212     -0.2715
    105  CB       -30.9000  -32.4610  -26.9730 C.3   212  LYS212      0.0311
    106  CG       -32.1540  -32.1140  -26.1460 C.3   212  LYS212      0.0038
    107  CD       -33.4750  -32.3110  -26.8970 C.3   212  LYS212      0.0206
    108  CE       -33.5770  -31.4450  -28.1790 C.3   212  LYS212      0.1093
    109  NZ       -34.8090  -31.8290  -29.0600 N.3   212  LYS212     -0.1314
    110  N        -29.9050  -33.1650  -23.9750 N.am  213  GLY213     -0.1940
    111  CA       -29.8100  -34.0930  -22.8690 C.3   213  GLY213      0.2014
    112  C        -30.2370  -35.5190  -23.1870 C.2   213  GLY213      0.2639
    113  O        -31.2960  -35.7580  -23.7870 O.2   213  GLY213     -0.2714
    114  N        -29.4160  -36.4600  -22.7280 N.am  214  GLY214     -0.1939
    115  CA       -29.7250  -37.8610  -22.7890 C.3   214  GLY214      0.2014
    116  C        -29.0470  -38.6280  -23.8750 C.2   214  GLY214      0.2640
    117  O        -28.9650  -39.8590  -23.8050 O.2   214  GLY214     -0.2714
    118  N        -28.5600  -37.9500  -24.9170 N.am  215  THR215     -0.1936
    119  CA       -27.9930  -38.6680  -26.0300 C.3   215  THR215      0.2028
    120  C        -26.7630  -39.4820  -25.6210 C.2   215  THR215      0.2643
    121  O        -26.5350  -40.5840  -26.1780 O.2   215  THR215     -0.2714
    122  CB       -27.7300  -37.7490  -27.1980 C.3   215  THR215      0.1808
    123  OG1      -26.8290  -36.7080  -26.7990 O.3   215  THR215     -0.2208
    124  CG2      -29.0640  -37.1670  -27.7300 C.3   215  THR215      0.0379
    125  N        -25.9430  -38.9860  -24.6950 N.am  216  GLY216     -0.1939
    126  CA       -24.8120  -39.7460  -24.2810 C.3   216  GLY216      0.2014
    127  C        -25.2070  -40.9710  -23.4350 C.2   216  GLY216      0.2638
    128  O        -24.4150  -41.9270  -23.3480 O.2   216  GLY216     -0.2714
    129  N        -26.3530  -40.9000  -22.7430 N.am  217  ASP217     -0.1971
    130  CA       -26.8360  -42.0540  -21.9750 C.3   217  ASP217      0.1709
    131  C        -27.1980  -43.2080  -22.9050 C.2   217  ASP217      0.2293
    132  O        -26.8250  -44.3650  -22.7050 O.2   217  ASP217     -0.2864
    133  CB       -28.0060  -41.6510  -21.0730 C.3   217  ASP217      0.1436
    134  CG       -27.6360  -40.5490  -20.0980 C.2   217  ASP217      0.3671
    135  OD1      -26.5030  -40.5120  -19.5530 O.co2 217  ASP217     -0.2456
    136  OD2      -28.5520  -39.6960  -19.9110 O.co2 217  ASP217     -0.2456
    137  N        -25.8610  -43.5750  -25.8520 N.3   219  LEU219     -0.1245
    138  CA       -24.5630  -44.0500  -26.3480 C.3   219  LEU219      0.1561
    139  C        -23.9270  -45.0530  -25.3820 C.2   219  LEU219      0.2260
    140  O        -23.4200  -46.0910  -25.7660 O.2   219  LEU219     -0.2867
    141  CB       -23.6160  -42.9040  -26.6170 C.3   219  LEU219      0.0270
    142  CG       -22.2140  -43.3370  -27.0730 C.3   219  LEU219      0.0019
    143  CD1      -22.2560  -44.1640  -28.4100 C.3   219  LEU219      0.0001
    144  CD2      -21.2370  -42.1320  -27.2230 C.3   219  LEU219      0.0001
    145  N        -20.3260  -45.7300  -31.5120 N.3   241  VAL241     -0.1245
    146  CA       -20.2390  -44.3120  -31.7460 C.3   241  VAL241      0.1561
    147  C        -20.7300  -43.9610  -33.1490 C.2   241  VAL241      0.2260
    148  O        -21.5150  -43.0270  -33.3570 O.2   241  VAL241     -0.2867
    149  CB       -18.7820  -43.8160  -31.4610 C.3   241  VAL241      0.0252
    150  CG1      -18.6580  -42.3460  -31.8110 C.3   241  VAL241      0.0019
    151  CG2      -18.4450  -44.0110  -29.9680 C.3   241  VAL241      0.0019
    152  N        -24.6280  -44.6650  -33.5090 N.3   244  HIS244     -0.1241
    153  CA       -25.2990  -43.5970  -32.7490 C.3   244  HIS244      0.1621
    154  C        -25.4430  -42.3240  -33.5720 C.2   244  HIS244      0.2264
    155  O        -26.5500  -41.7760  -33.7090 O.2   244  HIS244     -0.2867
    156  CB       -24.5300  -43.4060  -31.4370 C.3   244  HIS244      0.0745
    157  CG       -25.0070  -42.3110  -30.5110 C.ar  244  HIS244      0.0817
    158  ND1      -24.3990  -41.0700  -30.4630 N.ar  244  HIS244     -0.2268
    159  CD2      -25.9400  -42.3170  -29.5190 C.ar  244  HIS244      0.1154
    160  CE1      -24.9600  -40.3570  -29.4870 C.ar  244  HIS244      0.1986
    161  NE2      -25.9060  -41.0820  -28.9160 N.ar  244  HIS244     -0.2212
@<TRIPOS>BOND
     1    71    69    1
     2    57    55   am
     3    83    81   am
     4    66    65    1
     5    66    69    1
     6    66    67    1
     7    69    70    1
     8    55    56    2
     9    55    54    1
    10    75    74    2
    11    80    81    1
    12    80    77    1
    13    72    67   am
    14    72    73    1
    15    81    82    2
    16    67    68    2
    17    54    53    1
    18    74    73    1
    19    74    76   am
    20    47    46    2
    21    77    76    1
    22    77    78    1
    23    48    46   am
    24    46    45    1
    25    53    50    1
    26    84    78   am
    27    84    85    1
    28    78    79    2
    29    50    49    1
    30    50    51    1
    31    49    43   am
    32    45    42    1
    33    85    86    1
    34   155   154    2
    35   154   153    1
    36    43    42    1
    37    43    44    2
    38   152   153    1
    39    51    52    2
    40    51    58   am
    41   148   147    2
    42    42    41    1
    43    86    87    2
    44   147   146    1
    45    61    60    2
    46    58    59    1
    47   153   156    1
    48    94    93    1
    49    93    95    1
    50    93    92    1
    51    88    89    1
    52    41    39   am
    53   150   149    1
    54    60    59    1
    55   146   145    1
    56   146   149    1
    57    40    39    2
    58    59    62    1
    59   149   151    1
    60   156   157    1
    61    62    63    1
    62    62    64    1
    63    39    38    1
    64    92    89    1
    65    89    90    1
    66   157   158   ar
    67   157   159   ar
    68   158   160   ar
    69    96    90   am
    70    96    97    1
    71    38    37    1
    72   100    97    1
    73    90    91    2
    74   159   161   ar
    75   160   161   ar
    76   109   108    1
    77    37    30   am
    78    97    98    1
    79   143   142    1
    80   108   107    1
    81    30    31    2
    82    30    29    1
    83    98    99    2
    84    98   101   am
    85   124   122    1
    86    29    28    1
    87    29    32    1
    88   144   142    1
    89   122   123    1
    90   122   119    1
    91   101   102    1
    92   142   141    1
    93   105   102    1
    94   105   106    1
    95   107   106    1
    96   141   138    1
    97    32    33    1
    98   138   137    1
    99   138   139    1
   100   102   103    1
   101   121   120    2
   102   119   120    1
   103   119   118    1
   104    33    34    1
   105   140   139    2
   106   120   125   am
   107   104   103    2
   108   103   110   am
   109   118   116   am
   110   125   126    1
   111    34    35    1
   112    35    36    1
   113   126   127    1
   114   110   111    1
   115   116   117    2
   116   116   115    1
   117   113   112    2
   118   127   128    2
   119   127   129   am
   120   112   111    1
   121   112   114   am
   122    13    10    1
   123    13    14    1
   124    10    11    1
   125    10     9    1
   126   131   132    2
   127   131   130    1
   128   115   114    1
   129   129   130    1
   130    11    12    2
   131   130   133    1
   132    14    16   ar
   133    14    15   ar
   134    16    18   ar
   135   133   134    1
   136    15    17   ar
   137   134   136   ar
   138   134   135   ar
   139    18    17   ar
   140     8     6   ar
   141     7     6   ar
   142    26    25   ar
   143     6     5    1
   144     5     2    1
   145    19    20    1
   146    25    27   ar
   147    25    24    1
   148    23    20    1
   149    23    24    1
   150    21    20    1
   151    21    22    2
   152     2     1    1
   153     2     3    1
   154     3     4    2
