@<TRIPOS>MOLECULE
tmp/3rphA01.pdb
 78 74 0 0 0
SMALL
GASTEIGER

@<TRIPOS>ATOM
      1  N        -22.0100  -37.5290   -8.6160 N.3   108  GLN108     -0.1245
      2  CA       -20.5560  -37.5470   -8.6700 C.3   108  GLN108      0.1566
      3  C        -20.0090  -37.6610   -7.2530 C.2   108  GLN108      0.2260
      4  O        -19.4070  -36.7200   -6.7520 O.2   108  GLN108     -0.2867
      5  CB       -20.0150  -36.2350   -9.2560 C.3   108  GLN108      0.0367
      6  CG       -20.3620  -36.0500  -10.7070 C.3   108  GLN108      0.0905
      7  CD       -20.1770  -34.6000  -11.1560 C.2   108  GLN108      0.2608
      8  OE1      -19.1530  -33.9740  -10.8580 O.2   108  GLN108     -0.2717
      9  NE2      -21.1670  -34.0730  -11.8640 N.am  108  GLN108     -0.0878
     10  N        -17.8260  -35.9960  -22.2060 N.3   150  HIS150     -0.1227
     11  CA       -17.8900  -34.8070  -23.0130 C.3   150  HIS150      0.1737
     12  C        -16.8150  -33.8640  -22.5130 C.2   150  HIS150      0.2438
     13  O        -16.1730  -34.1240  -21.4830 O.2   150  HIS150     -0.2733
     14  CB       -19.2800  -34.1820  -23.0740 C.3   150  HIS150      0.0758
     15  CG       -19.7990  -33.6840  -21.7810 C.ar  150  HIS150      0.0818
     16  ND1      -19.1160  -32.7740  -20.9950 N.ar  150  HIS150     -0.2268
     17  CD2      -20.9600  -33.9460  -21.1380 C.ar  150  HIS150      0.1154
     18  CE1      -19.8510  -32.4920  -19.9220 C.ar  150  HIS150      0.1986
     19  NE2      -20.9790  -33.1830  -19.9920 N.ar  150  HIS150     -0.2212
     20  N        -16.5430  -32.7910  -23.2660 N.am  151  PRO151     -0.2718
     21  CA       -15.4420  -31.9050  -22.8990 C.3   151  PRO151      0.1535
     22  C        -15.4820  -31.3530  -21.4810 C.2   151  PRO151      0.2599
     23  O        -14.4470  -31.2660  -20.8680 O.2   151  PRO151     -0.2715
     24  CB       -15.4930  -30.8110  -23.9710 C.3   151  PRO151      0.0310
     25  CG       -15.9870  -31.5670  -25.1750 C.3   151  PRO151      0.0237
     26  CD       -17.0860  -32.4360  -24.5960 C.3   151  PRO151      0.0939
     27  N        -16.6620  -31.0750  -20.9280 N.am  152  GLY152     -0.1941
     28  CA       -16.7790  -30.6820  -19.5300 C.3   152  GLY152      0.2014
     29  C        -16.3150  -31.7380  -18.5310 C.2   152  GLY152      0.2638
     30  O        -15.6450  -31.4370  -17.5440 O.2   152  GLY152     -0.2714
     31  N        -16.6540  -32.9840  -18.8260 N.am  153  GLU153     -0.1977
     32  CA       -16.2200  -34.0950  -18.0530 C.3   153  GLU153      0.1602
     33  C        -14.7190  -34.3500  -18.2170 C.2   153  GLU153      0.2287
     34  O        -14.0360  -34.7320  -17.2560 O.2   153  GLU153     -0.2864
     35  CB       -17.0390  -35.3180  -18.4430 C.3   153  GLU153      0.0415
     36  CG       -18.4690  -35.2280  -17.8570 C.3   153  GLU153      0.1163
     37  CD       -19.4910  -36.1260  -18.4960 C.2   153  GLU153      0.3649
     38  OE1      -19.2700  -36.6270  -19.6220 O.co2 153  GLU153     -0.2457
     39  OE2      -20.5950  -36.2260  -17.8810 O.co2 153  GLU153     -0.2457
     40  N        -13.0150  -32.0770  -15.9610 N.3   156  ARG156     -0.1245
     41  CA       -13.0910  -32.6030  -14.5970 C.3   156  ARG156      0.1563
     42  C        -12.0260  -33.6860  -14.3520 C.2   156  ARG156      0.2260
     43  O        -11.3720  -33.6920  -13.3020 O.2   156  ARG156     -0.2867
     44  CB       -14.4810  -33.1730  -14.3010 C.3   156  ARG156      0.0307
     45  CG       -14.6370  -33.6100  -12.9060 C.3   156  ARG156      0.0489
     46  CD       -16.1250  -33.6830  -12.5920 C.3   156  ARG156      0.2205
     47  NE       -16.7050  -34.9360  -13.0870 N.pl3 156  ARG156     -0.0865
     48  CZ       -17.8780  -35.1050  -13.7100 C.cat 156  ARG156      0.5346
     49  NH1      -18.6210  -34.0900  -14.1460 N.pl3 156  ARG156      0.1354
     50  NH2      -18.2740  -36.3350  -13.9910 N.pl3 156  ARG156      0.1354
     51  N        -11.8480  -26.5310  -21.2020 N.3   162  VAL162     -0.1245
     52  CA       -12.6050  -26.8620  -22.4050 C.3   162  VAL162      0.1561
     53  C        -12.1500  -26.0280  -23.5910 C.2   162  VAL162      0.2260
     54  O        -12.0200  -26.5390  -24.7010 O.2   162  VAL162     -0.2867
     55  CB       -14.1340  -26.6370  -22.1810 C.3   162  VAL162      0.0252
     56  CG1      -14.8960  -26.7950  -23.4960 C.3   162  VAL162      0.0019
     57  CG2      -14.6930  -27.6070  -21.0930 C.3   162  VAL162      0.0019
     58  N        -10.6590  -27.9930  -26.9350 N.3   166  GLN166     -0.1245
     59  CA       -11.3660  -27.9690  -28.1990 C.3   166  GLN166      0.1566
     60  C        -10.4710  -27.5600  -29.3550 C.2   166  GLN166      0.2260
     61  O        -10.8130  -27.8080  -30.5110 O.2   166  GLN166     -0.2867
     62  CB       -12.6530  -27.1250  -28.0620 C.3   166  GLN166      0.0367
     63  CG       -13.7670  -27.8370  -27.2060 C.3   166  GLN166      0.0905
     64  CD       -14.3040  -29.1650  -27.8300 C.2   166  GLN166      0.2608
     65  OE1      -13.9020  -30.2370  -27.4480 O.2   166  GLN166     -0.2717
     66  NE2      -15.1790  -29.0530  -28.8080 N.am  166  GLN166     -0.0878
     67  N        -18.4670  -35.0810  -28.8780 N.3   188  GLY188     -0.1210
     68  CA       -18.6160  -33.8760  -29.6370 C.3   188  GLY188      0.1956
     69  C        -18.7360  -34.1700  -31.1300 C.2   188  GLY188      0.2611
     70  O        -18.6410  -35.3090  -31.5840 O.2   188  GLY188     -0.2717
     71  N        -18.9610  -33.1160  -31.8970 N.am  189  ASN189     -0.1974
     72  CA       -18.7450  -33.1890  -33.3310 C.3   189  ASN189      0.1688
     73  C        -17.3560  -33.8250  -33.5310 C.2   189  ASN189      0.2292
     74  O        -16.4080  -33.4520  -32.8510 O.2   189  ASN189     -0.2864
     75  CB       -18.8160  -31.7850  -33.9430 C.3   189  ASN189      0.1181
     76  CG       -18.5680  -31.7660  -35.4460 C.2   189  ASN189      0.2629
     77  OD1      -19.1310  -32.5440  -36.2030 O.2   189  ASN189     -0.2716
     78  ND2      -17.6550  -30.8640  -35.8910 N.am  189  ASN189     -0.0877
@<TRIPOS>BOND
     1    77    76    2
     2    78    76   am
     3    76    75    1
     4    75    72    1
     5    73    72    1
     6    73    74    2
     7    72    71    1
     8    71    69   am
     9    70    69    2
    10    69    68    1
    11    61    60    2
    12    68    67    1
    13    60    59    1
    14    66    64   am
    15    59    62    1
    16    59    58    1
    17    62    63    1
    18    64    65    2
    19    64    63    1
    20    25    26    1
    21    25    24    1
    22    54    53    2
    23    26    20    1
    24    24    21    1
    25    53    52    1
    26    56    55    1
    27    20    21    1
    28    20    12   am
    29    14    11    1
    30    14    15    1
    31    11    12    1
    32    11    10    1
    33    21    22    1
    34    12    13    2
    35    52    55    1
    36    52    51    1
    37    55    57    1
    38    15    17   ar
    39    15    16   ar
    40    22    27   am
    41    22    23    2
    42    17    19   ar
    43    16    18   ar
    44    27    28    1
    45    19    18   ar
    46    38    37   ar
    47    28    29    1
    48    31    29   am
    49    31    32    1
    50    29    30    2
    51    37    39   ar
    52    37    36    1
    53    35    32    1
    54    35    36    1
    55    33    32    1
    56    33    34    2
    57    40    41    1
    58    41    42    1
    59    41    44    1
    60    42    43    2
    61    44    45    1
    62    49    48    1
    63    50    48    1
    64    48    47    2
    65    47    46    1
    66    45    46    1
    67     9     7   am
    68     7     8    2
    69     7     6    1
    70     6     5    1
    71     5     2    1
    72     2     1    1
    73     2     3    1
    74     3     4    2
