@<TRIPOS>MOLECULE
tmp/3rplA01.pdb
 102 101 0 0 0
SMALL
GASTEIGER

@<TRIPOS>ATOM
      1  N         41.7220  -45.1620    0.0030 N.3   309  ARG309     -0.1231
      2  CA        41.7490  -45.3990   -1.4390 C.3   309  ARG309      0.1694
      3  C         41.1820  -46.7730   -1.7710 C.2   309  ARG309      0.2592
      4  O         41.6770  -47.7770   -1.2590 O.2   309  ARG309     -0.2718
      5  CB        43.1850  -45.3380   -1.9650 C.3   309  ARG309      0.0321
      6  CG        43.8390  -43.9690   -1.9610 C.3   309  ARG309      0.0489
      7  CD        45.1950  -44.0450   -1.2910 C.3   309  ARG309      0.2205
      8  NE        45.0910  -44.2220    0.1620 N.pl3 309  ARG309     -0.0865
      9  CZ        46.0980  -44.5790    0.9530 C.cat 309  ARG309      0.5346
     10  NH1       47.2930  -44.8230    0.4400 N.pl3 309  ARG309      0.1354
     11  NH2       45.9090  -44.6890    2.2630 N.pl3 309  ARG309      0.1354
     12  N         40.1700  -46.8270   -2.6400 N.am  310  PHE310     -0.1962
     13  CA        39.6330  -48.1070   -3.1370 C.3   310  PHE310      0.1771
     14  C         40.1780  -48.3850   -4.5300 C.2   310  PHE310      0.2620
     15  O         40.0960  -47.5320   -5.4310 O.2   310  PHE310     -0.2715
     16  CB        38.1000  -48.0830   -3.2070 C.3   310  PHE310      0.0574
     17  CG        37.4390  -47.8510   -1.8810 C.ar  310  PHE310     -0.0200
     18  CD1       37.1860  -48.9070   -1.0250 C.ar  310  PHE310     -0.0042
     19  CD2       37.0970  -46.5700   -1.4840 C.ar  310  PHE310     -0.0042
     20  CE1       36.6080  -48.6820    0.2010 C.ar  310  PHE310     -0.0003
     21  CE2       36.5060  -46.3420   -0.2640 C.ar  310  PHE310     -0.0003
     22  CZ        36.2670  -47.3920    0.5790 C.ar  310  PHE310     -0.0000
     23  N         40.7430  -49.5720   -4.7050 N.am  311  PHE311     -0.1960
     24  CA        41.2900  -49.9680   -5.9890 C.3   311  PHE311      0.1771
     25  C         40.9460  -51.4240   -6.2520 C.2   311  PHE311      0.2619
     26  O         40.3110  -52.0860   -5.4280 O.2   311  PHE311     -0.2715
     27  CB        42.8030  -49.7850   -6.0030 C.3   311  PHE311      0.0574
     28  CG        43.4880  -50.5040   -4.8990 C.ar  311  PHE311     -0.0200
     29  CD1       43.9070  -51.8200   -5.0600 C.ar  311  PHE311     -0.0042
     30  CD2       43.6820  -49.8790   -3.6720 C.ar  311  PHE311     -0.0042
     31  CE1       44.5260  -52.4840   -4.0220 C.ar  311  PHE311     -0.0003
     32  CE2       44.2940  -50.5370   -2.6350 C.ar  311  PHE311     -0.0003
     33  CZ        44.7150  -51.8430   -2.8030 C.ar  311  PHE311     -0.0000
     34  N         41.3920  -51.9170   -7.4000 N.am  312  HIS312     -0.1973
     35  CA        41.0790  -53.2640   -7.8460 C.3   312  HIS312      0.1656
     36  C         41.8050  -54.2740   -6.9780 C.2   312  HIS312      0.2291
     37  O         43.0190  -54.4280   -7.0750 O.2   312  HIS312     -0.2864
     38  CB        41.4880  -53.4260   -9.3110 C.3   312  HIS312      0.0771
     39  CG        41.1620  -54.7670   -9.8970 C.ar  312  HIS312      0.0820
     40  ND1       39.8770  -55.2600   -9.9670 N.ar  312  HIS312     -0.2267
     41  CD2       41.9550  -55.7050  -10.4660 C.ar  312  HIS312      0.1154
     42  CE1       39.8930  -56.4490  -10.5440 C.ar  312  HIS312      0.1986
     43  NE2       41.1440  -56.7400  -10.8570 N.ar  312  HIS312     -0.2212
     44  N         43.2300  -49.1330    0.7350 N.3   316  ARG316     -0.1245
     45  CA        44.4260  -48.6850    1.4400 C.3   316  ARG316      0.1563
     46  C         44.0660  -47.5550    2.3880 C.2   316  ARG316      0.2260
     47  O         43.3360  -46.6290    2.0240 O.2   316  ARG316     -0.2867
     48  CB        45.5350  -48.2590    0.4680 C.3   316  ARG316      0.0307
     49  CG        46.9310  -48.1720    1.0960 C.3   316  ARG316      0.0489
     50  CD        48.0560  -48.2650    0.0420 C.3   316  ARG316      0.2205
     51  NE        49.3460  -48.5410    0.6710 N.pl3 316  ARG316     -0.0865
     52  CZ        50.3760  -49.1500    0.0950 C.cat 316  ARG316      0.5346
     53  NH1       50.3090  -49.5640   -1.1620 N.pl3 316  ARG316      0.1354
     54  NH2       51.4800  -49.3600    0.8040 N.pl3 316  ARG316      0.1354
     55  N         47.4250  -52.1370    3.6010 N.3   335  VAL335     -0.1245
     56  CA        46.7750  -52.6600    2.4070 C.3   335  VAL335      0.1561
     57  C         45.8180  -53.7710    2.8350 C.2   335  VAL335      0.2260
     58  O         46.2340  -54.8400    3.3070 O.2   335  VAL335     -0.2867
     59  CB        47.7970  -53.2020    1.3980 C.3   335  VAL335      0.0252
     60  CG1       47.0920  -53.7420    0.1770 C.3   335  VAL335      0.0019
     61  CG2       48.8080  -52.1090    1.0220 C.3   335  VAL335      0.0019
     62  N         44.6360  -59.6630   -4.8900 N.3   341  PRO341     -0.2116
     63  CA        45.0550  -58.7500   -5.9560 C.3   341  PRO341      0.1372
     64  C         46.2740  -59.2470   -6.7270 C.2   341  PRO341      0.2244
     65  O         47.2220  -59.7500   -6.1280 O.2   341  PRO341     -0.2868
     66  CB        45.4190  -57.4770   -5.1890 C.3   341  PRO341      0.0268
     67  CG        45.7250  -57.9460   -3.8010 C.3   341  PRO341      0.0207
     68  CD        44.7460  -59.0380   -3.5640 C.3   341  PRO341      0.0892
     69  N         48.2350  -57.3030   -8.3790 N.3   343  VAL343     -0.1231
     70  CA        49.2490  -56.2710   -8.2520 C.3   343  VAL343      0.1692
     71  C         49.1440  -55.6570   -6.8750 C.2   343  VAL343      0.2592
     72  O         48.0550  -55.2690   -6.4570 O.2   343  VAL343     -0.2718
     73  CB        49.0850  -55.1630   -9.3260 C.3   343  VAL343      0.0266
     74  CG1       49.9580  -53.9510   -8.9970 C.3   343  VAL343      0.0020
     75  CG2       49.4350  -55.7020  -10.6950 C.3   343  VAL343      0.0020
     76  N         50.2700  -55.5900   -6.1660 N.am  344  ILE344     -0.1966
     77  CA        50.3280  -54.9170   -4.8740 C.3   344  ILE344      0.1727
     78  C         51.3610  -53.7930   -4.9190 C.2   344  ILE344      0.2616
     79  O         52.5650  -54.0390   -5.0800 O.2   344  ILE344     -0.2715
     80  CB        50.6780  -55.8880   -3.7450 C.3   344  ILE344      0.0290
     81  CG1       49.6330  -57.0010   -3.6680 C.3   344  ILE344      0.0022
     82  CG2       50.7120  -55.1650   -2.4190 C.3   344  ILE344      0.0023
     83  CD1       50.0860  -58.2170   -2.8930 C.3   344  ILE344      0.0001
     84  N         50.8850  -52.5570   -4.7920 N.am  345  GLN345     -0.1977
     85  CA        51.7620  -51.3960   -4.8380 C.3   345  GLN345      0.1601
     86  C         52.5460  -51.2360   -3.5420 C.2   345  GLN345      0.2287
     87  O         51.9710  -51.3410   -2.4610 O.2   345  GLN345     -0.2864
     88  CB        50.9460  -50.1280   -5.1340 C.3   345  GLN345      0.0394
     89  CG        50.5320  -49.9910   -6.5960 C.3   345  GLN345      0.0908
     90  CD        51.7220  -49.9530   -7.5440 C.2   345  GLN345      0.2608
     91  OE1       52.8520  -49.6630   -7.1430 O.2   345  GLN345     -0.2717
     92  NE2       51.4720  -50.2520   -8.8060 N.am  345  GLN345     -0.0878
     93  N         53.6050  -48.4830   -2.4120 N.3   347  HIS347     -0.1241
     94  CA        53.0660  -47.2780   -1.7830 C.3   347  HIS347      0.1621
     95  C         51.7010  -46.9400   -2.3230 C.2   347  HIS347      0.2264
     96  O         51.3870  -47.3120   -3.4600 O.2   347  HIS347     -0.2867
     97  CB        53.9700  -46.0750   -2.0220 C.3   347  HIS347      0.0745
     98  CG        55.3780  -46.2920   -1.5910 C.ar  347  HIS347      0.0817
     99  ND1       55.7650  -46.2270   -0.2720 N.ar  347  HIS347     -0.2268
    100  CD2       56.4920  -46.5820   -2.3040 C.ar  347  HIS347      0.1154
    101  CE1       57.0620  -46.4650   -0.1870 C.ar  347  HIS347      0.1986
    102  NE2       57.5270  -46.6840   -1.4100 N.ar  347  HIS347     -0.2212
@<TRIPOS>BOND
     1    43    42   ar
     2    43    41   ar
     3    75    73    1
     4    42    40   ar
     5    41    39   ar
     6    40    39   ar
     7    39    38    1
     8    73    74    1
     9    73    70    1
    10    38    35    1
    11    92    90   am
    12    69    70    1
    13    70    71    1
    14    35    34    1
    15    35    36    1
    16    90    91    2
    17    90    89    1
    18    34    25   am
    19    37    36    2
    20    71    72    2
    21    71    76   am
    22    64    65    2
    23    64    63    1
    24    89    88    1
    25    25    24    1
    26    25    26    2
    27    76    77    1
    28    27    24    1
    29    27    28    1
    30    24    23    1
    31    63    66    1
    32    63    62    1
    33    15    14    2
    34    66    67    1
    35    88    85    1
    36    79    78    2
    37    29    28   ar
    38    29    31   ar
    39    78    77    1
    40    78    84   am
    41    28    30   ar
    42    62    68    1
    43    77    80    1
    44    85    84    1
    45    85    86    1
    46    23    14   am
    47    14    13    1
    48    31    33   ar
    49    67    68    1
    50    80    81    1
    51    80    82    1
    52    30    32   ar
    53    81    83    1
    54    86    87    2
    55    96    95    2
    56    16    13    1
    57    16    17    1
    58    13    12    1
    59    33    32   ar
    60    12     3   am
    61    93    94    1
    62    95    94    1
    63   100    98   ar
    64   100   102   ar
    65    97    94    1
    66    97    98    1
    67     5     6    1
    68     5     2    1
    69     6     7    1
    70    17    19   ar
    71    17    18   ar
    72     3     2    1
    73     3     4    2
    74    98    99   ar
    75    19    21   ar
    76     2     1    1
    77   102   101   ar
    78     7     8    1
    79    53    52    1
    80    18    20   ar
    81    99   101   ar
    82    21    22   ar
    83    50    51    1
    84    50    49    1
    85    52    51    2
    86    52    54    1
    87     8     9    2
    88    60    59    1
    89    20    22   ar
    90    10     9    1
    91    48    49    1
    92    48    45    1
    93    44    45    1
    94     9    11    1
    95    61    59    1
    96    59    56    1
    97    45    46    1
    98    47    46    2
    99    56    57    1
   100    56    55    1
   101    57    58    2
