@<TRIPOS>MOLECULE
tmp/3rplA00.pdb
 136 126 0 0 0
SMALL
GASTEIGER

@<TRIPOS>ATOM
      1  N         26.1230  -35.9640    4.5540 N.3    31  LYS31      -0.1245
      2  CA        27.0430  -35.8750    5.6790 C.3    31  LYS31       0.1561
      3  C         26.6000  -36.6870    6.8880 C.2    31  LYS31       0.2260
      4  O         27.4180  -37.0290    7.7360 O.2    31  LYS31      -0.2867
      5  CB        27.2350  -34.4240    6.0970 C.3    31  LYS31       0.0271
      6  CG        26.0530  -33.8560    6.8090 C.3    31  LYS31       0.0035
      7  CD        26.3130  -32.4270    7.2240 C.3    31  LYS31       0.0206
      8  CE        25.0920  -31.8830    7.9440 C.3    31  LYS31       0.1093
      9  NZ        25.4020  -30.7070    8.7970 N.3    31  LYS31      -0.1314
     10  N         35.0720  -39.6740   18.0120 N.3    99  ASP99      -0.1239
     11  CA        34.5890  -38.8120   16.9550 C.3    99  ASP99       0.1674
     12  C         34.7510  -39.6110   15.6750 C.2    99  ASP99       0.2266
     13  O         35.7370  -39.4400   14.9520 O.2    99  ASP99      -0.2867
     14  CB        35.3880  -37.5150   16.8850 C.3    99  ASP99       0.1410
     15  CG        34.6710  -36.4500   16.0940 C.2    99  ASP99       0.3668
     16  OD1       35.0120  -35.2650   16.2360 O.co2  99  ASP99      -0.2456
     17  OD2       33.7370  -36.8040   15.3420 O.co2  99  ASP99      -0.2456
     18  N         33.3840  -39.7810   12.7740 N.3   101  CYS101     -0.1221
     19  CA        33.5300  -39.0350   11.5300 C.3   101  CYS101      0.1808
     20  C         33.7560  -37.5480   11.8140 C.2   101  CYS101      0.2601
     21  O         32.8080  -36.7620   11.9200 O.2   101  CYS101     -0.2717
     22  CB        32.3380  -39.2260   10.5860 C.3   101  CYS101      0.0970
     23  SG        32.5370  -38.3040    9.0250 S.3   101  CYS101     -0.0800
     24  N         34.9920  -37.1570   12.0000 N.am  102  GLU102     -0.1965
     25  CA        35.2970  -35.7730   12.2280 C.3   102  GLU102      0.1733
     26  C         35.4800  -35.0090   10.9060 C.2   102  GLU102      0.2617
     27  O         36.3890  -35.2450   10.1800 O.2   102  GLU102     -0.2715
     28  CB        36.4790  -35.6470   13.1750 C.3   102  GLU102      0.0429
     29  CG        37.6050  -34.8050   12.7370 C.3   102  GLU102      0.1163
     30  CD        37.4370  -33.3590   13.0350 C.2   102  GLU102      0.3649
     31  OE1       38.4000  -32.6510   12.9200 O.co2 102  GLU102     -0.2457
     32  OE2       36.3630  -32.9080   13.3350 O.co2 102  GLU102     -0.2457
     33  N         34.5790  -34.0960   10.6140 N.am  103  GLY103     -0.1940
     34  CA        34.4650  -33.5040    9.3070 C.3   103  GLY103      0.2014
     35  C         33.4400  -34.1970    8.4230 C.2   103  GLY103      0.2640
     36  O         33.7530  -34.6210    7.3490 O.2   103  GLY103     -0.2714
     37  N         32.2250  -34.3510    8.9180 N.am  104  THR104     -0.1936
     38  CA        31.1520  -34.9720    8.1490 C.3   104  THR104      0.2028
     39  C         30.8980  -34.2790    6.8080 C.2   104  THR104      0.2642
     40  O         30.6900  -34.9360    5.7970 O.2   104  THR104     -0.2714
     41  CB        29.8280  -35.0410    8.9470 C.3   104  THR104      0.1808
     42  OG1       29.3000  -33.7210    9.1170 O.3   104  THR104     -0.2208
     43  CG2       30.0530  -35.6720   10.3030 C.3   104  THR104      0.0379
     44  N         30.9030  -32.9550    6.7900 N.am  105  ASN105     -0.1971
     45  CA        30.7310  -32.2570    5.5150 C.3   105  ASN105      0.1688
     46  C         31.9510  -32.3340    4.5820 C.2   105  ASN105      0.2292
     47  O         31.8060  -32.3050    3.3670 O.2   105  ASN105     -0.2864
     48  CB        30.2730  -30.8110    5.7170 C.3   105  ASN105      0.1181
     49  CG        29.0600  -30.4710    4.8710 C.2   105  ASN105      0.2629
     50  OD1       28.3390  -31.3590    4.4100 O.2   105  ASN105     -0.2716
     51  ND2       28.8360  -29.1840    4.6490 N.am  105  ASN105     -0.0877
     52  N         31.2530  -24.5380   22.5800 N.3   133  TYR133     -0.1241
     53  CA        32.4580  -24.1790   21.8440 C.3   133  TYR133      0.1605
     54  C         33.6600  -24.0610   22.7680 C.2   133  TYR133      0.2264
     55  O         33.5110  -23.9920   23.9910 O.2   133  TYR133     -0.2867
     56  CB        32.2600  -22.9100   21.0180 C.3   133  TYR133      0.0534
     57  CG        31.4100  -23.1580   19.7980 C.ar  133  TYR133     -0.0201
     58  CD1       31.9700  -23.6610   18.6360 C.ar  133  TYR133     -0.0009
     59  CD2       30.0410  -22.9250   19.8210 C.ar  133  TYR133     -0.0009
     60  CE1       31.1960  -23.9170   17.5200 C.ar  133  TYR133      0.0417
     61  CE2       29.2580  -23.1740   18.7200 C.ar  133  TYR133      0.0417
     62  CZ        29.8410  -23.6660   17.5680 C.ar  133  TYR133      0.1957
     63  OH        29.0600  -23.9220   16.4710 O.3   133  TYR133     -0.2866
     64  N         40.8150  -22.3650   21.4070 N.3   136  LYS136     -0.1245
     65  CA        41.9620  -23.2640   21.4210 C.3   136  LYS136      0.1561
     66  C         43.2410  -22.5990   20.9620 C.2   136  LYS136      0.2260
     67  O         43.2280  -21.6840   20.1310 O.2   136  LYS136     -0.2867
     68  CB        41.7100  -24.4870   20.5250 C.3   136  LYS136      0.0271
     69  CG        40.3080  -25.0720   20.6090 C.3   136  LYS136      0.0035
     70  CD        40.1510  -26.2930   19.7100 C.3   136  LYS136      0.0206
     71  CE        38.7460  -26.8630   19.8210 C.3   136  LYS136      0.1093
     72  NZ        38.4380  -27.9500   18.8400 N.3   136  LYS136     -0.1314
     73  N         39.7480  -21.5770   11.7110 N.3   176  MET176     -0.1245
     74  CA        38.5100  -21.9850   11.0400 C.3   176  MET176      0.1570
     75  C         37.8670  -20.8170   10.3150 C.2   176  MET176      0.2261
     76  O         37.7400  -19.7200   10.8600 O.2   176  MET176     -0.2867
     77  CB        37.4970  -22.5890   12.0240 C.3   176  MET176      0.0387
     78  CG        38.0390  -23.7460   12.8160 C.3   176  MET176      0.0595
     79  SD        36.7510  -24.8760   13.3450 S.3   176  MET176     -0.1393
     80  CE        36.2690  -25.5690   11.7570 C.3   176  MET176      0.0692
     81  N         35.3340  -18.7470    9.7650 N.3   178  ARG178     -0.1245
     82  CA        34.1010  -18.4780   10.4920 C.3   178  ARG178      0.1563
     83  C         33.9800  -16.9960   10.7850 C.2   178  ARG178      0.2260
     84  O         34.9730  -16.3450   11.0880 O.2   178  ARG178     -0.2867
     85  CB        34.0770  -19.2550   11.8120 C.3   178  ARG178      0.0307
     86  CG        34.0950  -20.7700   11.6870 C.3   178  ARG178      0.0489
     87  CD        32.7260  -21.3150   11.2790 C.3   178  ARG178      0.2205
     88  NE        32.6800  -22.7760   11.2850 N.pl3 178  ARG178     -0.0865
     89  CZ        33.1010  -23.5540   10.2890 C.cat 178  ARG178      0.5346
     90  NH1       33.6150  -23.0210    9.1890 N.pl3 178  ARG178      0.1354
     91  NH2       33.0050  -24.8730   10.3960 N.pl3 178  ARG178      0.1354
     92  N         33.1170  -15.5320   13.3250 N.3   180  ARG180     -0.1245
     93  CA        33.6040  -15.2500   14.6790 C.3   180  ARG180      0.1563
     94  C         35.0980  -14.9810   14.7440 C.2   180  ARG180      0.2260
     95  O         35.6060  -14.4770   15.7430 O.2   180  ARG180     -0.2867
     96  CB        33.2610  -16.4030   15.6190 C.3   180  ARG180      0.0307
     97  CG        33.8760  -17.7550   15.2520 C.3   180  ARG180      0.0489
     98  CD        33.3160  -18.8130   16.1720 C.3   180  ARG180      0.2205
     99  NE        33.8820  -20.1460   15.9940 N.pl3 180  ARG180     -0.0865
    100  CZ        33.2510  -21.1610   15.4100 C.cat 180  ARG180      0.5346
    101  NH1       32.0380  -20.9970   14.9120 N.pl3 180  ARG180      0.1354
    102  NH2       33.8400  -22.3420   15.3130 N.pl3 180  ARG180      0.1354
    103  N         36.2110  -26.9360    7.9540 N.3   200  ASP200     -0.1225
    104  CA        35.8940  -27.8730    9.0380 C.3   200  ASP200      0.1805
    105  C         37.1500  -28.6550    9.3970 C.2   200  ASP200      0.2598
    106  O         38.1280  -28.6490    8.6470 O.2   200  ASP200     -0.2718
    107  CB        34.8250  -28.8910    8.6060 C.3   200  ASP200      0.1424
    108  CG        33.4220  -28.3530    8.7100 C.2   200  ASP200      0.3668
    109  OD1       32.6750  -28.4820    7.7230 O.co2 200  ASP200     -0.2456
    110  OD2       33.0670  -27.8150    9.7740 O.co2 200  ASP200     -0.2456
    111  N         37.1080  -29.3390   10.5350 N.am  201  GLY201     -0.1942
    112  CA        38.1570  -30.2690   10.9160 C.3   201  GLY201      0.2014
    113  C         39.3480  -29.6710   11.6530 C.2   201  GLY201      0.2638
    114  O         40.4680  -29.7390   11.1470 O.2   201  GLY201     -0.2714
    115  N         39.1310  -29.1040   12.8440 N.am  202  ASP202     -0.1971
    116  CA        40.2450  -28.5300   13.6080 C.3   202  ASP202      0.1709
    117  C         41.0080  -29.5480   14.4910 C.2   202  ASP202      0.2293
    118  O         41.9770  -29.1890   15.1610 O.2   202  ASP202     -0.2864
    119  CB        39.8220  -27.2620   14.3890 C.3   202  ASP202      0.1436
    120  CG        38.8700  -27.5560   15.5350 C.2   202  ASP202      0.3671
    121  OD1       38.6580  -26.6610   16.3710 O.co2 202  ASP202     -0.2456
    122  OD2       38.3360  -28.6750   15.6190 O.co2 202  ASP202     -0.2456
    123  N         34.8190  -26.7730   18.3500 N.3   224  ALA224     -0.1245
    124  CA        33.9740  -27.5410   19.2670 C.3   224  ALA224      0.1562
    125  C         34.8050  -28.1700   20.3980 C.2   224  ALA224      0.2260
    126  O         35.9040  -28.6750   20.1840 O.2   224  ALA224     -0.2867
    127  CB        33.1930  -28.6020   18.5250 C.3   224  ALA224      0.0290
    128  N         35.9800  -32.0780   20.3990 N.3   227  GLU227     -0.1245
    129  CA        37.0890  -32.2160   19.4630 C.3   227  GLU227      0.1567
    130  C         38.3900  -31.7690   20.1150 C.2   227  GLU227      0.2260
    131  O         39.4320  -32.4010   19.9320 O.2   227  GLU227     -0.2867
    132  CB        36.8270  -31.4170   18.1820 C.3   227  GLU227      0.0388
    133  CG        35.8830  -32.1060   17.2010 C.3   227  GLU227      0.1160
    134  CD        34.4040  -31.7890   17.4500 C.2   227  GLU227      0.3649
    135  OE1       33.6630  -31.6720   16.4480 O.co2 227  GLU227     -0.2457
    136  OE2       33.9770  -31.6600   18.6270 O.co2 227  GLU227     -0.2457
@<TRIPOS>BOND
     1    47    46    2
     2    50    49    2
     3     1     2    1
     4    46    45    1
     5    51    49   am
     6    49    48    1
     7    45    48    1
     8    45    44    1
     9     2     5    1
    10     2     3    1
    11    40    39    2
    12     5     6    1
    13    44    39   am
    14    39    38    1
    15     6     7    1
    16     3     4    2
    17     7     8    1
    18    36    35    2
    19   109   108   ar
    20     8     9    1
    21   103   104    1
    22    38    37    1
    23    38    41    1
    24    35    37   am
    25    35    34    1
    26   107   108    1
    27   107   104    1
    28   106   105    2
    29   108   110   ar
    30    41    42    1
    31    41    43    1
    32    23    22    1
    33   104   105    1
    34    90    89    1
    35    34    33    1
    36   105   111   am
    37    81    82    1
    38    27    26    2
    39    89    91    1
    40    89    88    2
    41    75    76    2
    42    75    74    1
    43    82    83    1
    44    82    85    1
    45   111   112    1
    46    22    19    1
    47    33    26   am
    48    83    84    2
    49    26    25    1
    50   112   113    1
    51    74    73    1
    52    74    77    1
    53   114   113    2
    54    87    88    1
    55    87    86    1
    56    19    20    1
    57    19    18    1
    58   113   115   am
    59    86    85    1
    60    80    79    1
    61    20    21    2
    62    20    24   am
    63    24    25    1
    64    77    78    1
    65    25    28    1
    66    29    30    1
    67    29    28    1
    68    78    79    1
    69   115   116    1
    70    31    30   ar
    71    30    32   ar
    72    92    93    1
    73   116   119    1
    74   116   117    1
    75   119   120    1
    76   117   118    2
    77    93    94    1
    78    93    96    1
    79    94    95    2
    80   101   100    1
    81    13    12    2
    82    97    96    1
    83    97    98    1
    84   102   100    1
    85    17    15   ar
    86   100    99    2
    87   120   122   ar
    88   120   121   ar
    89    12    11    1
    90    99    98    1
    91    15    16   ar
    92    15    14    1
    93   135   134   ar
    94    63    62    1
    95    14    11    1
    96    11    10    1
    97   133   134    1
    98   133   132    1
    99   134   136   ar
   100    60    62   ar
   101    60    58   ar
   102    62    61   ar
   103   132   129    1
   104   123   124    1
   105   127   124    1
   106    58    57   ar
   107    61    59   ar
   108    72    71    1
   109   124   125    1
   110   129   130    1
   111   129   128    1
   112    70    71    1
   113    70    69    1
   114    57    59   ar
   115    57    56    1
   116   131   130    2
   117    67    66    2
   118   126   125    2
   119    68    69    1
   120    68    65    1
   121    66    65    1
   122    56    53    1
   123    64    65    1
   124    53    52    1
   125    53    54    1
   126    54    55    2
