@<TRIPOS>MOLECULE
tmp/3rpmA01.pdb
 98 94 0 0 0
SMALL
GASTEIGER

@<TRIPOS>ATOM
      1  N         98.9950    0.7870    7.7310 N.3   132  TYR132     -0.1227
      2  CA       100.2350    0.5040    8.4290 C.3   132  TYR132      0.1736
      3  C        101.2990    1.4780    7.9330 C.2   132  TYR132      0.2595
      4  O        101.7710    1.3620    6.7910 O.2   132  TYR132     -0.2718
      5  CB       100.6540   -0.9520    8.1810 C.3   132  TYR132      0.0548
      6  CG       101.8470   -1.3650    8.9940 C.ar  132  TYR132     -0.0200
      7  CD1      101.7950   -1.3590   10.3890 C.ar  132  TYR132     -0.0009
      8  CD2      103.0310   -1.7510    8.3780 C.ar  132  TYR132     -0.0009
      9  CE1      102.9030   -1.7250   11.1510 C.ar  132  TYR132      0.0417
     10  CE2      104.1390   -2.1290    9.1310 C.ar  132  TYR132      0.0417
     11  CZ       104.0650   -2.1120   10.5090 C.ar  132  TYR132      0.1957
     12  OH       105.1530   -2.4870   11.2610 O.3   132  TYR132     -0.2866
     13  N        101.6370    2.4510    8.7770 N.am  133  PHE133     -0.1976
     14  CA       102.5510    3.5550    8.4090 C.3   133  PHE133      0.1639
     15  C        102.2500    4.0860    6.9960 C.2   133  PHE133      0.2290
     16  O        103.1240    4.0970    6.1350 O.2   133  PHE133     -0.2864
     17  CB       104.0170    3.1090    8.5190 C.3   133  PHE133      0.0560
     18  CG       104.4670    2.8360    9.9330 C.ar  133  PHE133     -0.0200
     19  CD1      104.0830    1.6640   10.5920 C.ar  133  PHE133     -0.0042
     20  CD2      105.2810    3.7490   10.6070 C.ar  133  PHE133     -0.0042
     21  CE1      104.4950    1.4070   11.9070 C.ar  133  PHE133     -0.0003
     22  CE2      105.7060    3.5010   11.9170 C.ar  133  PHE133     -0.0003
     23  CZ       105.3080    2.3250   12.5700 C.ar  133  PHE133     -0.0000
     24  N        101.3690   -5.0980    5.5300 N.3   182  THR182     -0.1203
     25  CA       102.4110   -5.3430    6.5240 C.3   182  THR182      0.1994
     26  C        103.4530   -6.3280    6.0010 C.2   182  THR182      0.2617
     27  O        104.1770   -6.9390    6.7910 O.2   182  THR182     -0.2717
     28  CB       101.8110   -5.9450    7.8260 C.3   182  THR182      0.1784
     29  OG1      101.1390   -7.1830    7.5190 O.3   182  THR182     -0.2211
     30  CG2      100.8360   -4.9620    8.4900 C.3   182  THR182      0.0376
     31  N        103.5090   -6.4950    4.6800 N.am  183  ASP183     -0.1973
     32  CA       104.4020   -7.4770    4.0360 C.3   183  ASP183      0.1709
     33  C        104.1890   -8.8800    4.5990 C.2   183  ASP183      0.2293
     34  O        105.1590   -9.5740    4.9050 O.2   183  ASP183     -0.2864
     35  CB       105.8960   -7.0910    4.1720 C.3   183  ASP183      0.1436
     36  CG       106.2400   -5.7620    3.5020 C.2   183  ASP183      0.3671
     37  OD1      105.7610   -5.4950    2.3700 O.co2 183  ASP183     -0.2456
     38  OD2      107.0170   -4.9840    4.1140 O.co2 183  ASP183     -0.2456
     39  N        103.1250   -9.8840    7.4930 N.3   185  LYS185     -0.1245
     40  CA       103.5030  -10.0710    8.9010 C.3   185  LYS185      0.1561
     41  C        102.4700   -9.4910    9.8840 C.2   185  LYS185      0.2260
     42  O        102.8060   -9.0770   10.9930 O.2   185  LYS185     -0.2867
     43  CB       104.8970   -9.4820    9.1650 C.3   185  LYS185      0.0271
     44  CG       106.0340  -10.2100    8.4450 C.3   185  LYS185      0.0035
     45  CD       107.1800   -9.2390    8.2230 C.3   185  LYS185      0.0206
     46  CE       108.2620   -9.8170    7.3130 C.3   185  LYS185      0.1093
     47  NZ       109.3190   -8.7930    7.0570 N.3   185  LYS185     -0.1314
     48  N        102.4620  -10.5460   13.5780 N.3   188  SER188     -0.1202
     49  CA       103.6460  -10.0400   14.2870 C.3   188  SER188      0.2020
     50  C        103.4720   -8.5630   14.5930 C.2   188  SER188      0.2618
     51  O        103.7630   -8.1110   15.6960 O.2   188  SER188     -0.2717
     52  CB       104.9100  -10.2200   13.4380 C.3   188  SER188      0.2103
     53  OG       105.2970  -11.5740   13.4240 O.3   188  SER188     -0.2182
     54  N        102.9890   -7.8240   13.6010 N.am  189  VAL189     -0.1979
     55  CA       102.6180   -6.4200   13.7850 C.3   189  VAL189      0.1595
     56  C        101.6600   -6.2400   14.9830 C.2   189  VAL189      0.2287
     57  O        101.9000   -5.3870   15.8410 O.2   189  VAL189     -0.2864
     58  CB       102.0710   -5.8170   12.4610 C.3   189  VAL189      0.0276
     59  CG1      101.3700   -4.4670   12.6900 C.3   189  VAL189      0.0022
     60  CG2      103.2110   -5.6670   11.4510 C.3   189  VAL189      0.0022
     61  N        103.6710   -6.8590   18.1560 N.3   192  ALA192     -0.1245
     62  CA       104.9410   -6.1150   18.2660 C.3   192  ALA192      0.1562
     63  C        105.0380   -5.1080   19.4190 C.2   192  ALA192      0.2260
     64  O        106.0590   -5.0700   20.1140 O.2   192  ALA192     -0.2867
     65  CB       105.2780   -5.4340   16.9430 C.3   192  ALA192      0.0290
     66  N        108.1140   -4.3420   21.6970 N.3   196  TYR196     -0.1241
     67  CA       108.8590   -3.2180   21.1480 C.3   196  TYR196      0.1605
     68  C        108.0560   -1.9320   21.2960 C.2   196  TYR196      0.2264
     69  O        107.6000   -1.3690   20.2990 O.2   196  TYR196     -0.2867
     70  CB       109.1770   -3.4600   19.6750 C.3   196  TYR196      0.0534
     71  CG       109.9170   -4.7370   19.4060 C.ar  196  TYR196     -0.0201
     72  CD1      109.2280   -5.9200   19.1160 C.ar  196  TYR196     -0.0009
     73  CD2      111.3090   -4.7710   19.4310 C.ar  196  TYR196     -0.0009
     74  CE1      109.9100   -7.1060   18.8680 C.ar  196  TYR196      0.0417
     75  CE2      112.0010   -5.9510   19.1720 C.ar  196  TYR196      0.0417
     76  CZ       111.2940   -7.1090   18.8920 C.ar  196  TYR196      0.1957
     77  OH       111.9780   -8.2690   18.6400 O.3   196  TYR196     -0.2866
     78  N        107.1950    2.4940   19.2320 N.3   199  GLU199     -0.1245
     79  CA       107.7430    2.4510   17.8820 C.3   199  GLU199      0.1567
     80  C        106.6820    2.6170   16.8050 C.2   199  GLU199      0.2260
     81  O        106.9670    2.4610   15.6160 O.2   199  GLU199     -0.2867
     82  CB       108.5890    1.1990   17.6680 C.3   199  GLU199      0.0388
     83  CG       110.0400    1.4440   17.9660 C.3   199  GLU199      0.1160
     84  CD       110.7300    0.2350   18.5360 C.2   199  GLU199      0.3649
     85  OE1      111.4500   -0.4360   17.7770 O.co2 199  GLU199     -0.2457
     86  OE2      110.5580   -0.0500   19.7460 O.co2 199  GLU199     -0.2457
     87  N        103.8270    0.7510   16.6330 N.3   201  TYR201     -0.1241
     88  CA       103.0330   -0.4810   16.4580 C.3   201  TYR201      0.1605
     89  C        101.6490   -0.3810   17.1300 C.2   201  TYR201      0.2264
     90  O        101.5170    0.2800   18.1650 O.2   201  TYR201     -0.2867
     91  CB       103.8070   -1.7050   16.9800 C.3   201  TYR201      0.0534
     92  CG       105.0810   -2.0080   16.2100 C.ar  201  TYR201     -0.0201
     93  CD1      105.0480   -2.2480   14.8340 C.ar  201  TYR201     -0.0009
     94  CD2      106.3200   -2.0600   16.8590 C.ar  201  TYR201     -0.0009
     95  CE1      106.2120   -2.5270   14.1200 C.ar  201  TYR201      0.0417
     96  CE2      107.4930   -2.3440   16.1510 C.ar  201  TYR201      0.0417
     97  CZ       107.4280   -2.5750   14.7830 C.ar  201  TYR201      0.1957
     98  OH       108.5700   -2.8540   14.0670 O.3   201  TYR201     -0.2866
@<TRIPOS>BOND
     1    37    36   ar
     2    36    38   ar
     3    36    35    1
     4    32    35    1
     5    32    33    1
     6    32    31    1
     7    33    34    2
     8    31    26   am
     9    24    25    1
    10    26    25    1
    11    26    27    2
    12    16    15    2
    13    25    28    1
    14     4     3    2
    15    15    14    1
    16    47    46    1
    17    46    45    1
    18    39    40    1
    19    29    28    1
    20     1     2    1
    21    28    30    1
    22     3     2    1
    23     3    13   am
    24     5     2    1
    25     5     6    1
    26    45    44    1
    27     8     6   ar
    28     8    10   ar
    29    14    17    1
    30    14    13    1
    31    44    43    1
    32    17    18    1
    33    40    43    1
    34    40    41    1
    35     6     7   ar
    36    10    11   ar
    37    41    42    2
    38    18    19   ar
    39    18    20   ar
    40     7     9   ar
    41    11     9   ar
    42    11    12    1
    43    19    21   ar
    44    20    22   ar
    45    60    58    1
    46    21    23   ar
    47    22    23   ar
    48    58    59    1
    49    58    55    1
    50    53    52    1
    51    52    49    1
    52    48    49    1
    53    54    55    1
    54    54    50   am
    55    55    56    1
    56    98    97    1
    57    95    97   ar
    58    95    93   ar
    59    49    50    1
    60    50    51    2
    61    97    96   ar
    62    93    92   ar
    63    56    57    2
    64    81    80    2
    65    96    94   ar
    66    92    94   ar
    67    92    91    1
    68    88    87    1
    69    88    91    1
    70    88    89    1
    71    80    79    1
    72    65    62    1
    73    89    90    2
    74    82    79    1
    75    82    83    1
    76    85    84   ar
    77    79    78    1
    78    83    84    1
    79    61    62    1
    80    62    63    1
    81    84    86   ar
    82    77    76    1
    83    74    76   ar
    84    74    72   ar
    85    76    75   ar
    86    72    71   ar
    87    75    73   ar
    88    71    73   ar
    89    71    70    1
    90    63    64    2
    91    70    67    1
    92    69    68    2
    93    67    68    1
    94    67    66    1
