@<TRIPOS>MOLECULE
tmp/3rpmA00.pdb
 157 150 0 0 0
SMALL
GASTEIGER

@<TRIPOS>ATOM
      1  N         84.9400  -15.0950   -3.3370 N.3    16  ARG16      -0.1245
      2  CA        85.6880  -14.4070   -4.3830 C.3    16  ARG16       0.1563
      3  C         84.9500  -14.5200   -5.7180 C.2    16  ARG16       0.2260
      4  O         85.0250  -13.6130   -6.5600 O.2    16  ARG16      -0.2867
      5  CB        87.1030  -14.9930   -4.5330 C.3    16  ARG16       0.0307
      6  CG        88.0510  -14.8200   -3.3210 C.3    16  ARG16       0.0489
      7  CD        89.4710  -15.2180   -3.7240 C.3    16  ARG16       0.2205
      8  NE        90.4870  -14.9560   -2.7040 N.pl3  16  ARG16      -0.0865
      9  CZ        90.9010  -15.8320   -1.7820 C.cat  16  ARG16       0.5346
     10  NH1       90.3870  -17.0600   -1.7300 N.pl3  16  ARG16       0.1354
     11  NH2       91.8390  -15.4770   -0.9060 N.pl3  16  ARG16       0.1354
     12  N         84.3300  -13.6350    1.5490 N.3    45  ASN45      -0.1240
     13  CA        85.7570  -13.9120    1.3960 C.3    45  ASN45       0.1653
     14  C         86.2060  -13.0340    0.2490 C.2    45  ASN45       0.2266
     15  O         86.0860  -13.4240   -0.9030 O.2    45  ASN45      -0.2867
     16  CB        85.9910  -15.4060    1.0640 C.3    45  ASN45       0.1155
     17  CG        87.4660  -15.8030    1.1260 C.2    45  ASN45       0.2627
     18  OD1       88.1730  -15.4850    2.0840 O.2    45  ASN45      -0.2716
     19  ND2       87.9210  -16.5170    0.1140 N.am   45  ASN45      -0.0877
     20  N         90.2210  -10.4450    4.6300 N.3   114  HIS114     -0.1241
     21  CA        89.4580  -10.9280    3.4740 C.3   114  HIS114      0.1621
     22  C         88.0350  -10.3900    3.4360 C.2   114  HIS114      0.2264
     23  O         87.0800  -11.1280    3.1960 O.2   114  HIS114     -0.2867
     24  CB        89.4740  -12.4700    3.4020 C.3   114  HIS114      0.0745
     25  CG        90.8370  -13.0240    3.1390 C.ar  114  HIS114      0.0817
     26  ND1       91.5860  -13.6530    4.1130 N.ar  114  HIS114     -0.2268
     27  CD2       91.6070  -13.0020    2.0240 C.ar  114  HIS114      0.1154
     28  CE1       92.7530  -14.0090    3.6010 C.ar  114  HIS114      0.1986
     29  NE2       92.7940  -13.6210    2.3400 N.ar  114  HIS114     -0.2212
     30  N         91.3840  -15.1660    9.5440 N.3   175  ASP175     -0.1225
     31  CA        92.5310  -15.8050    8.9140 C.3   175  ASP175      0.1805
     32  C         93.6710  -14.8810    8.4850 C.2   175  ASP175      0.2597
     33  O         94.7130  -15.3610    8.0040 O.2   175  ASP175     -0.2718
     34  CB        92.0880  -16.6920    7.7400 C.3   175  ASP175      0.1424
     35  CG        91.4830  -15.9090    6.5820 C.2   175  ASP175      0.3668
     36  OD1       91.5390  -14.6510    6.5690 O.co2 175  ASP175     -0.2456
     37  OD2       90.9540  -16.5640    5.6550 O.co2 175  ASP175     -0.2456
     38  N         93.4860  -13.5720    8.6500 N.am  176  GLU176     -0.1979
     39  CA        94.5950  -12.6370    8.4440 C.3   176  GLU176      0.1602
     40  C         94.3730  -11.3220    9.1700 C.2   176  GLU176      0.2287
     41  O         93.2400  -10.9880    9.5520 O.2   176  GLU176     -0.2864
     42  CB        94.8190  -12.3600    6.9510 C.3   176  GLU176      0.0415
     43  CG        93.7240  -11.4740    6.3210 C.3   176  GLU176      0.1163
     44  CD        94.0980  -10.9110    4.9590 C.2   176  GLU176      0.3649
     45  OE1       95.3040  -10.8530    4.6320 O.co2 176  GLU176     -0.2457
     46  OE2       93.1850  -10.5120    4.2100 O.co2 176  GLU176     -0.2457
     47  N         97.7230   -8.5070    5.8580 N.3   179  ASN179     -0.1240
     48  CA        98.9270   -9.0510    5.2480 C.3   179  ASN179      0.1653
     49  C         99.3750   -8.2400    4.0350 C.2   179  ASN179      0.2266
     50  O        100.5620   -8.1100    3.7960 O.2   179  ASN179     -0.2867
     51  CB        98.7640  -10.5280    4.8900 C.3   179  ASN179      0.1155
     52  CG        98.8980  -11.4420    6.0960 C.2   179  ASN179      0.2627
     53  OD1       99.5300  -11.1010    7.1030 O.2   179  ASN179     -0.2716
     54  ND2       98.2840  -12.6160    6.0040 N.am  179  ASN179     -0.0877
     55  N         89.8270  -20.3250   10.9680 N.3   229  PHE229     -0.1241
     56  CA        91.1170  -20.8660   10.5030 C.3   229  PHE229      0.1605
     57  C         92.2060  -20.6800   11.5790 C.2   229  PHE229      0.2264
     58  O         92.0380  -19.8490   12.4780 O.2   229  PHE229     -0.2867
     59  CB        91.5160  -20.2540    9.1640 C.3   229  PHE229      0.0534
     60  CG        90.5500  -20.5610    8.0680 C.ar  229  PHE229     -0.0203
     61  CD1       90.4820  -21.8550    7.5190 C.ar  229  PHE229     -0.0042
     62  CD2       89.6800  -19.5800    7.5960 C.ar  229  PHE229     -0.0042
     63  CE1       89.5620  -22.1610    6.4940 C.ar  229  PHE229     -0.0003
     64  CE2       88.7640  -19.8640    6.5810 C.ar  229  PHE229     -0.0003
     65  CZ        88.7070  -21.1630    6.0140 C.ar  229  PHE229     -0.0000
     66  N         95.4920  -19.7240   11.6180 N.3   231  ASP231     -0.1239
     67  CA        96.5730  -18.7240   11.4680 C.3   231  ASP231      0.1674
     68  C         96.8730  -17.8750   12.6940 C.2   231  ASP231      0.2266
     69  O         98.0160  -17.8110   13.1540 O.2   231  ASP231     -0.2867
     70  CB        96.2540  -17.7450   10.3220 C.3   231  ASP231      0.1410
     71  CG        95.9220  -18.4440    9.0390 C.2   231  ASP231      0.3668
     72  OD1       94.8420  -19.0520    8.9700 O.co2 231  ASP231     -0.2456
     73  OD2       96.7250  -18.3610    8.0830 O.co2 231  ASP231     -0.2456
     74  N         94.5980  -25.5650    8.5590 N.3   252  TRP252     -0.1241
     75  CA        94.9160  -25.6410    7.1380 C.3   252  TRP252      0.1605
     76  C         96.4340  -25.5430    6.9080 C.2   252  TRP252      0.2264
     77  O         96.9690  -26.1180    5.9680 O.2   252  TRP252     -0.2867
     78  CB        94.1280  -24.5890    6.3100 C.3   252  TRP252      0.0550
     79  CG        94.6950  -23.1880    6.4100 C.ar  252  TRP252      0.0003
     80  CD1       94.4010  -22.2360    7.3780 C.ar  252  TRP252      0.0946
     81  CD2       95.6690  -22.5830    5.5410 C.ar  252  TRP252      0.0152
     82  NE1       95.1260  -21.0910    7.1470 N.ar  252  TRP252     -0.2442
     83  CE2       95.9140  -21.2710    6.0330 C.ar  252  TRP252      0.0810
     84  CE3       96.3730  -23.0240    4.4060 C.ar  252  TRP252      0.0012
     85  CZ2       96.8420  -20.4000    5.4290 C.ar  252  TRP252      0.0191
     86  CZ3       97.2920  -22.1520    3.7990 C.ar  252  TRP252      0.0001
     87  CH2       97.5130  -20.8480    4.3130 C.ar  252  TRP252      0.0015
     88  N        106.5230  -17.4020    9.1100 N.3   259  TYR259     -0.1241
     89  CA       105.0960  -17.4530    9.4250 C.3   259  TYR259      0.1605
     90  C        104.8770  -18.5440   10.4700 C.2   259  TYR259      0.2264
     91  O        104.6120  -19.7020   10.1350 O.2   259  TYR259     -0.2867
     92  CB       104.2820  -17.7040    8.1600 C.3   259  TYR259      0.0534
     93  CG       102.7870  -17.4460    8.2720 C.ar  259  TYR259     -0.0201
     94  CD1      102.2930  -16.1710    8.5460 C.ar  259  TYR259     -0.0009
     95  CD2      101.8720  -18.4670    8.0410 C.ar  259  TYR259     -0.0009
     96  CE1      100.9230  -15.9330    8.6190 C.ar  259  TYR259      0.0417
     97  CE2      100.5120  -18.2480    8.1130 C.ar  259  TYR259      0.0417
     98  CZ       100.0410  -16.9810    8.4020 C.ar  259  TYR259      0.1957
     99  OH        98.6920  -16.7640    8.4750 O.3   259  TYR259     -0.2866
    100  N         94.6770  -29.0670   -0.9840 N.3   282  CYS282     -0.1235
    101  CA        93.9800  -27.8960   -1.4400 C.3   282  CYS282      0.1677
    102  C         94.2030  -27.5900   -2.9440 C.2   282  CYS282      0.2270
    103  O         95.2030  -28.0020   -3.5530 O.2   282  CYS282     -0.2867
    104  CB        94.3000  -26.7530   -0.4700 C.3   282  CYS282      0.0956
    105  SG        94.9230  -25.3690   -1.1980 S.3   282  CYS282     -0.0801
    106  N         93.4070  -24.6440   -6.2140 N.3   284  VAL284     -0.1245
    107  CA        93.0010  -23.3200   -6.7300 C.3   284  VAL284      0.1561
    108  C         92.4660  -23.4580   -8.1560 C.2   284  VAL284      0.2260
    109  O         93.1760  -23.9290   -9.0630 O.2   284  VAL284     -0.2867
    110  CB        94.1520  -22.2780   -6.6780 C.3   284  VAL284      0.0252
    111  CG1       93.7300  -20.9400   -7.3610 C.3   284  VAL284      0.0019
    112  CG2       94.5800  -22.0260   -5.2300 C.3   284  VAL284      0.0019
    113  N         94.1570  -23.6480  -11.9190 N.3   287  ARG287     -0.1245
    114  CA        95.4890  -24.2640  -11.8570 C.3   287  ARG287      0.1563
    115  C         95.2520  -25.7670  -11.8930 C.2   287  ARG287      0.2260
    116  O         95.0740  -26.4150  -10.8530 O.2   287  ARG287     -0.2867
    117  CB        96.2250  -23.8290  -10.5910 C.3   287  ARG287      0.0307
    118  CG        96.2590  -22.3220  -10.4120 C.3   287  ARG287      0.0489
    119  CD        97.2350  -21.9320   -9.3420 C.3   287  ARG287      0.2205
    120  NE        97.0830  -20.5220   -9.0080 N.pl3 287  ARG287     -0.0865
    121  CZ        97.3770  -19.9840   -7.8310 C.cat 287  ARG287      0.5346
    122  NH1       97.8510  -20.7350   -6.8380 N.pl3 287  ARG287      0.1354
    123  NH2       97.1890  -18.6820   -7.6350 N.pl3 287  ARG287      0.1354
    124  N         99.2980  -25.2190   -5.5190 N.3   295  TYR295     -0.1241
    125  CA        97.9590  -25.7680   -5.3200 C.3   295  TYR295      0.1605
    126  C         97.2580  -26.1180   -6.6140 C.2   295  TYR295      0.2264
    127  O         96.0270  -26.0490   -6.7020 O.2   295  TYR295     -0.2867
    128  CB        97.0450  -24.8270   -4.5210 C.3   295  TYR295      0.0534
    129  CG        97.4860  -24.4570   -3.1260 C.ar  295  TYR295     -0.0201
    130  CD1       97.9780  -25.4240   -2.2340 C.ar  295  TYR295     -0.0009
    131  CD2       97.3540  -23.1320   -2.6750 C.ar  295  TYR295     -0.0009
    132  CE1       98.3570  -25.0710   -0.9370 C.ar  295  TYR295      0.0417
    133  CE2       97.7290  -22.7640   -1.3790 C.ar  295  TYR295      0.0417
    134  CZ        98.2170  -23.7390   -0.5170 C.ar  295  TYR295      0.1957
    135  OH        98.5710  -23.3770    0.7570 O.3   295  TYR295     -0.2866
    136  N         89.6220  -23.2340   -3.8620 N.3   329  TRP329     -0.1241
    137  CA        89.7130  -21.7930   -3.7200 C.3   329  TRP329      0.1605
    138  C         89.6590  -21.1010   -5.0730 C.2   329  TRP329      0.2264
    139  O         89.9600  -21.6990   -6.1080 O.2   329  TRP329     -0.2867
    140  CB        91.0070  -21.3950   -3.0150 C.3   329  TRP329      0.0550
    141  CG        91.1340  -21.9750   -1.6560 C.ar  329  TRP329      0.0003
    142  CD1       91.8300  -23.0990   -1.3070 C.ar  329  TRP329      0.0946
    143  CD2       90.5400  -21.4790   -0.4540 C.ar  329  TRP329      0.0152
    144  NE1       91.7160  -23.3250    0.0440 N.ar  329  TRP329     -0.2442
    145  CE2       90.9230  -22.3510    0.5900 C.ar  329  TRP329      0.0810
    146  CE3       89.7230  -20.3720   -0.1560 C.ar  329  TRP329      0.0012
    147  CZ2       90.5320  -22.1550    1.9170 C.ar  329  TRP329      0.0191
    148  CZ3       89.3270  -20.1730    1.1610 C.ar  329  TRP329      0.0001
    149  CH2       89.7390  -21.0680    2.1920 C.ar  329  TRP329      0.0015
    150  N         91.2630  -17.9500   -5.8820 N.3   331  ASP331     -0.1239
    151  CA        92.2190  -16.8360   -5.8060 C.3   331  ASP331      0.1674
    152  C         92.2070  -15.9260   -7.0360 C.2   331  ASP331      0.2266
    153  O         92.3570  -14.7040   -6.9080 O.2   331  ASP331     -0.2867
    154  CB        93.6330  -17.3670   -5.6100 C.3   331  ASP331      0.1410
    155  CG        93.8150  -18.0570   -4.2690 C.2   331  ASP331      0.3668
    156  OD1       92.9050  -18.7770   -3.8170 O.co2 331  ASP331     -0.2456
    157  OD2       94.8800  -17.8800   -3.6690 O.co2 331  ASP331     -0.2456
@<TRIPOS>BOND
     1   113   114    1
     2   115   114    1
     3   115   116    2
     4   114   117    1
     5   117   118    1
     6   118   119    1
     7   119   120    1
     8   109   108    2
     9   120   121    2
    10   108   107    1
    11   121   123    1
    12   121   122    1
    13   111   110    1
    14   152   153    2
    15   152   151    1
    16   107   110    1
    17   107   106    1
    18   127   126    2
    19   110   112    1
    20   126   125    1
    21     4     3    2
    22   139   138    2
    23   150   151    1
    24   151   154    1
    25     3     2    1
    26   154   155    1
    27   124   125    1
    28   125   128    1
    29   138   137    1
    30     5     2    1
    31     5     6    1
    32   128   129    1
    33     2     1    1
    34   155   156   ar
    35   155   157   ar
    36   136   137    1
    37     7     6    1
    38     7     8    1
    39   137   140    1
    40   103   102    2
    41   129   131   ar
    42   129   130   ar
    43   140   141    1
    44   102   101    1
    45     8     9    2
    46   131   133   ar
    47   130   132   ar
    48     9    10    1
    49     9    11    1
    50   141   142   ar
    51   141   143   ar
    52   101   100    1
    53   101   104    1
    54   133   134   ar
    55   142   144   ar
    56   105   104    1
    57   132   134   ar
    58    15    14    2
    59   134   135    1
    60   143   146   ar
    61   143   145   ar
    62   146   148   ar
    63   144   145   ar
    64    19    17   am
    65    14    13    1
    66   145   147   ar
    67    16    17    1
    68    16    13    1
    69    17    18    2
    70   148   149   ar
    71    13    12    1
    72   147   149   ar
    73    27    29   ar
    74    27    25   ar
    75    29    28   ar
    76    25    24    1
    77    25    26   ar
    78    23    22    2
    79    24    21    1
    80    22    21    1
    81    21    20    1
    82    28    26   ar
    83    50    49    2
    84    86    87   ar
    85    86    84   ar
    86    49    48    1
    87    46    44   ar
    88    87    85   ar
    89    84    81   ar
    90    45    44   ar
    91    51    48    1
    92    51    52    1
    93    44    43    1
    94    48    47    1
    95    85    83   ar
    96    81    83   ar
    97    81    79   ar
    98    37    35   ar
    99    77    76    2
   100    54    52   am
   101    65    63   ar
   102    65    64   ar
   103    83    82   ar
   104    52    53    2
   105    78    79    1
   106    78    75    1
   107    43    42    1
   108    79    80   ar
   109    63    61   ar
   110    36    35   ar
   111    64    62   ar
   112    35    34    1
   113    76    75    1
   114    42    39    1
   115    75    74    1
   116    82    80   ar
   117    61    60   ar
   118    62    60   ar
   119    34    31    1
   120    33    32    2
   121    95    97   ar
   122    95    93   ar
   123    60    59    1
   124    73    71   ar
   125    97    98   ar
   126    92    93    1
   127    92    89    1
   128    93    94   ar
   129    98    99    1
   130    98    96   ar
   131    39    38    1
   132    39    40    1
   133    32    38   am
   134    32    31    1
   135    94    96   ar
   136    31    30    1
   137    72    71   ar
   138    71    70    1
   139    88    89    1
   140    59    56    1
   141    40    41    2
   142    89    90    1
   143    91    90    2
   144    70    67    1
   145    56    55    1
   146    56    57    1
   147    67    66    1
   148    67    68    1
   149    57    58    2
   150    68    69    2
