@<TRIPOS>MOLECULE
tmp/3rpnB00.pdb
 207 202 0 0 0
SMALL
GASTEIGER

@<TRIPOS>ATOM
      1  N        -16.7760  -38.3090   29.4240 N.3    14  LEU14      -0.1231
      2  CA       -16.2160  -39.6260   29.1500 C.3    14  LEU14       0.1693
      3  C        -14.7190  -39.5380   28.8190 C.2    14  LEU14       0.2593
      4  O        -14.0030  -40.5300   28.9020 O.2    14  LEU14      -0.2718
      5  CB       -16.9530  -40.2910   27.9880 C.3    14  LEU14       0.0284
      6  CG       -16.8000  -41.8050   27.7940 C.3    14  LEU14       0.0019
      7  CD1      -17.5560  -42.5700   28.8740 C.3    14  LEU14       0.0001
      8  CD2      -17.2810  -42.2430   26.4070 C.3    14  LEU14       0.0001
      9  N        -14.2530  -38.3450   28.4540 N.am   15  SER15      -0.1939
     10  CA       -12.8780  -38.1540   27.9970 C.3    15  SER15       0.2040
     11  C        -11.9730  -37.7040   29.1400 C.2    15  SER15       0.2485
     12  O        -12.2280  -36.6670   29.7540 O.2    15  SER15      -0.2729
     13  CB       -12.8510  -37.1200   26.8620 C.3    15  SER15       0.2129
     14  OG       -11.5480  -36.5880   26.6680 O.3    15  SER15      -0.2179
     15  N        -10.9160  -38.4870   29.4430 N.am   16  PRO16      -0.2715
     16  CA       -10.0400  -38.0800   30.5480 C.3    16  PRO16       0.1536
     17  C         -9.2500  -36.8200   30.2230 C.2    16  PRO16       0.2598
     18  O         -9.0460  -35.9740   31.1160 O.2    16  PRO16      -0.2715
     19  CB        -9.0920  -39.2920   30.7270 C.3    16  PRO16       0.0310
     20  CG        -9.0800  -39.9770   29.4070 C.3    16  PRO16       0.0237
     21  CD       -10.4920  -39.7630   28.8340 C.3    16  PRO16       0.0939
     22  N         -8.7860  -36.6880   28.9790 N.am   17  TYR17      -0.1974
     23  CA        -8.0130  -35.5010   28.6060 C.3    17  TYR17       0.1639
     24  C         -8.8760  -34.2370   28.5910 C.2    17  TYR17       0.2290
     25  O         -8.3780  -33.1390   28.8210 O.2    17  TYR17      -0.2864
     26  CB        -7.3180  -35.6900   27.2570 C.3    17  TYR17       0.0560
     27  CG        -6.2080  -36.7120   27.2830 C.ar   17  TYR17      -0.0198
     28  CD1       -4.9870  -36.4170   27.8800 C.ar   17  TYR17      -0.0009
     29  CD2       -6.3750  -37.9740   26.7040 C.ar   17  TYR17      -0.0009
     30  CE1       -3.9530  -37.3610   27.9120 C.ar   17  TYR17       0.0417
     31  CE2       -5.3490  -38.9190   26.7230 C.ar   17  TYR17       0.0417
     32  CZ        -4.1380  -38.6010   27.3250 C.ar   17  TYR17       0.1957
     33  OH        -3.1110  -39.5200   27.3500 O.3    17  TYR17      -0.2866
     34  N        -18.7030  -37.0190   22.4220 N.3    43  ILE43      -0.1245
     35  CA       -17.5690  -37.5560   21.6790 C.3    43  ILE43       0.1561
     36  C        -18.0310  -38.5510   20.5860 C.2    43  ILE43       0.2260
     37  O        -17.4690  -38.5930   19.4880 O.2    43  ILE43      -0.2867
     38  CB       -16.5310  -38.1970   22.6450 C.3    43  ILE43       0.0252
     39  CG1      -15.1000  -37.8350   22.2360 C.3    43  ILE43       0.0019
     40  CG2      -16.7540  -39.6970   22.7880 C.3    43  ILE43       0.0019
     41  CD1      -14.7700  -38.1320   20.7990 C.3    43  ILE43       0.0001
     42  N        -16.8770  -38.4700   16.7010 N.3    47  MET47      -0.1245
     43  CA       -16.2800  -39.6340   16.0690 C.3    47  MET47       0.1570
     44  C        -17.0520  -40.0060   14.8070 C.2    47  MET47       0.2261
     45  O        -16.4690  -40.2000   13.7370 O.2    47  MET47      -0.2867
     46  CB       -16.2690  -40.8100   17.0420 C.3    47  MET47       0.0387
     47  CG       -15.2380  -40.6700   18.1530 C.3    47  MET47       0.0595
     48  SD       -13.5450  -40.9300   17.5690 S.3    47  MET47      -0.1393
     49  CE       -12.6200  -40.3020   18.9820 C.3    47  MET47       0.0692
     50  N        -13.5390  -40.7280   12.5690 N.3    52  ASN52      -0.1225
     51  CA       -12.4680  -41.1380   13.4720 C.3    52  ASN52       0.1785
     52  C        -12.9250  -42.2350   14.4340 C.2    52  ASN52       0.2597
     53  O        -14.1260  -42.4460   14.6130 O.2    52  ASN52      -0.2718
     54  CB       -11.9680  -39.9180   14.2600 C.3    52  ASN52       0.1169
     55  CG       -10.5830  -40.1170   14.8330 C.2    52  ASN52       0.2627
     56  OD1       -9.8630  -41.0380   14.4450 O.2    52  ASN52      -0.2716
     57  ND2      -10.1930  -39.2410   15.7510 N.am   52  ASN52      -0.0877
     58  N        -11.9610  -42.9290   15.0400 N.am   53  LYS53      -0.1966
     59  CA       -12.2240  -43.9350   16.0720 C.3    53  LYS53       0.1713
     60  C        -11.4360  -43.5870   17.3440 C.2    53  LYS53       0.2458
     61  O        -10.3850  -42.9480   17.2670 O.2    53  LYS53      -0.2730
     62  CB       -11.8150  -45.3280   15.5870 C.3    53  LYS53       0.0311
     63  CG       -12.5830  -45.8430   14.3770 C.3    53  LYS53       0.0038
     64  CD       -14.0060  -46.2220   14.7360 C.3    53  LYS53       0.0206
     65  CE       -14.7500  -46.7700   13.5210 C.3    53  LYS53       0.1093
     66  NZ       -16.2170  -46.9080   13.7620 N.3    53  LYS53      -0.1314
     67  N        -11.9390  -44.0110   18.5180 N.am   54  PRO54      -0.2716
     68  CA       -11.2790  -43.6900   19.7900 C.3    54  PRO54       0.1521
     69  C         -9.8590  -44.2430   19.8000 C.2    54  PRO54       0.2440
     70  O         -9.6670  -45.4010   19.4300 O.2    54  PRO54      -0.2731
     71  CB       -12.1280  -44.4270   20.8290 C.3    54  PRO54       0.0310
     72  CG       -13.4450  -44.6810   20.1610 C.3    54  PRO54       0.0237
     73  CD       -13.1320  -44.8540   18.7050 C.3    54  PRO54       0.0939
     74  N         -8.8800  -43.4280   20.2190 N.am   55  PRO55      -0.2716
     75  CA        -7.4630  -43.8130   20.1690 C.3    55  PRO55       0.1536
     76  C         -7.1720  -45.0650   20.9790 C.2    55  PRO55       0.2599
     77  O         -6.4320  -45.9320   20.5150 O.2    55  PRO55      -0.2715
     78  CB        -6.7450  -42.6100   20.7990 C.3    55  PRO55       0.0310
     79  CG        -7.8020  -41.9020   21.6040 C.3    55  PRO55       0.0237
     80  CD        -9.0750  -42.1040   20.8390 C.3    55  PRO55       0.0939
     81  N         -7.7510  -45.1480   22.1730 N.am   56  GLY56      -0.1955
     82  CA        -7.5020  -46.2490   23.0820 C.3    56  GLY56       0.1869
     83  C         -7.9980  -47.5830   22.5740 C.2    56  GLY56       0.2309
     84  O         -7.8930  -48.5910   23.2700 O.2    56  GLY56      -0.2863
     85  N         -1.7650  -47.5000   21.8930 N.3    61  LYS61      -0.1245
     86  CA        -2.2410  -46.2110   22.3920 C.3    61  LYS61       0.1561
     87  C         -2.9710  -46.3010   23.7360 C.2    61  LYS61       0.2260
     88  O         -2.8390  -45.4190   24.5860 O.2    61  LYS61      -0.2867
     89  CB        -3.1360  -45.5160   21.3560 C.3    61  LYS61       0.0271
     90  CG        -2.4240  -45.1660   20.0640 C.3    61  LYS61       0.0035
     91  CD        -3.3410  -44.3730   19.1310 C.3    61  LYS61       0.0206
     92  CE        -2.6310  -44.0520   17.8260 C.3    61  LYS61       0.1093
     93  NZ        -3.4510  -43.1980   16.9220 N.3    61  LYS61      -0.1314
     94  N         -1.8050  -44.3850   26.9840 N.3    65  MET65      -0.1245
     95  CA        -2.7130  -43.4480   27.6280 C.3    65  MET65       0.1570
     96  C         -2.7110  -43.6590   29.1260 C.2    65  MET65       0.2261
     97  O         -2.7350  -42.7040   29.9060 O.2    65  MET65      -0.2867
     98  CB        -4.1410  -43.6320   27.1030 C.3    65  MET65       0.0387
     99  CG        -5.1100  -42.5560   27.5310 C.3    65  MET65       0.0595
    100  SD        -6.8260  -42.9340   27.0630 S.3    65  MET65      -0.1393
    101  CE        -7.4770  -43.5840   28.5880 C.3    65  MET65       0.0692
    102  N          0.4370  -42.2000   30.5430 N.3    68  ASP68      -0.1239
    103  CA         0.4410  -40.7540   30.3610 C.3    68  ASP68       0.1674
    104  C         -0.4120  -40.0970   31.4430 C.2    68  ASP68       0.2266
    105  O          0.0360  -39.1870   32.1350 O.2    68  ASP68      -0.2867
    106  CB        -0.0500  -40.4320   28.9360 C.3    68  ASP68       0.1410
    107  CG         0.0730  -38.9530   28.5690 C.2    68  ASP68       0.3668
    108  OD1        1.1000  -38.3190   28.8950 O.co2  68  ASP68      -0.2456
    109  OD2       -0.8690  -38.4280   27.9230 O.co2  68  ASP68      -0.2456
    110  N          0.3790  -37.3810   34.3230 N.3    72  LEU72      -0.1245
    111  CA        -0.3010  -36.0840   34.2900 C.3    72  LEU72       0.1561
    112  C         -1.0730  -35.7900   35.5720 C.2    72  LEU72       0.2260
    113  O         -1.1950  -34.6360   35.9820 O.2    72  LEU72      -0.2867
    114  CB        -1.2330  -36.0160   33.0980 C.3    72  LEU72       0.0270
    115  CG        -0.4960  -35.9140   31.7600 C.3    72  LEU72       0.0019
    116  CD1       -1.4180  -36.3270   30.6100 C.3    72  LEU72       0.0001
    117  CD2        0.0670  -34.5070   31.5440 C.3    72  LEU72       0.0001
    118  N        -10.8190  -50.2150   29.5910 N.3    87  LEU87      -0.1245
    119  CA       -11.3710  -48.9890   29.0150 C.3    87  LEU87       0.1561
    120  C        -12.6260  -49.2720   28.2010 C.2    87  LEU87       0.2260
    121  O        -13.5750  -48.4950   28.2220 O.2    87  LEU87      -0.2867
    122  CB       -10.3400  -48.3300   28.0970 C.3    87  LEU87       0.0270
    123  CG        -9.6950  -47.0070   28.5010 C.3    87  LEU87       0.0019
    124  CD1       -9.2490  -46.2640   27.2460 C.3    87  LEU87       0.0001
    125  CD2      -10.6590  -46.1590   29.3120 C.3    87  LEU87       0.0001
    126  N        -16.0420  -49.0320   30.0630 N.3    90  MET90      -0.1230
    127  CA       -16.4590  -47.6550   30.3170 C.3    90  MET90       0.1702
    128  C        -16.9710  -47.0270   29.0300 C.2    90  MET90       0.2592
    129  O        -18.0130  -46.3720   29.0080 O.2    90  MET90      -0.2718
    130  CB       -15.2720  -46.8300   30.8440 C.3    90  MET90       0.0401
    131  CG       -15.5090  -45.3140   30.8590 C.3    90  MET90       0.0596
    132  SD       -14.0040  -44.3420   31.1610 S.3    90  MET90      -0.1393
    133  CE       -13.4430  -45.0750   32.7000 C.3    90  MET90       0.0692
    134  N        -16.2170  -47.2250   27.9580 N.am   91  LEU91      -0.1980
    135  CA       -16.5330  -46.6210   26.6740 C.3    91  LEU91       0.1596
    136  C        -17.8610  -47.1350   26.1280 C.2    91  LEU91       0.2287
    137  O        -18.6420  -46.3790   25.5370 O.2    91  LEU91      -0.2864
    138  CB       -15.4090  -46.9070   25.6850 C.3    91  LEU91       0.0297
    139  CG       -14.9440  -45.7500   24.8010 C.3    91  LEU91       0.0022
    140  CD1      -13.4370  -45.8270   24.5550 C.3    91  LEU91       0.0001
    141  CD2      -15.7280  -45.7220   23.4890 C.3    91  LEU91       0.0001
    142  N        -13.9010  -40.9370   36.2840 N.3   125  TRP125     -0.1241
    143  CA       -12.4540  -40.9040   36.0830 C.3   125  TRP125      0.1605
    144  C        -11.5930  -40.7180   37.3270 C.2   125  TRP125      0.2264
    145  O        -10.3700  -40.6550   37.2230 O.2   125  TRP125     -0.2867
    146  CB       -12.0870  -39.8570   35.0320 C.3   125  TRP125      0.0550
    147  CG       -12.1230  -40.4380   33.6700 C.ar  125  TRP125      0.0003
    148  CD1      -13.0830  -40.2500   32.7220 C.ar  125  TRP125      0.0946
    149  CD2      -11.1700  -41.3390   33.1090 C.ar  125  TRP125      0.0152
    150  NE1      -12.7740  -40.9630   31.5900 N.ar  125  TRP125     -0.2442
    151  CE2      -11.6020  -41.6420   31.8030 C.ar  125  TRP125      0.0810
    152  CE3       -9.9740  -41.9020   33.5770 C.ar  125  TRP125      0.0012
    153  CZ2      -10.8910  -42.4920   30.9620 C.ar  125  TRP125      0.0191
    154  CZ3       -9.2670  -42.7430   32.7410 C.ar  125  TRP125      0.0001
    155  CH2       -9.7280  -43.0330   31.4470 C.ar  125  TRP125      0.0015
    156  N        -12.1880  -33.7910   15.4550 N.3   180  PHE180     -0.1227
    157  CA       -12.1380  -35.2220   15.1680 C.3   180  PHE180      0.1736
    158  C        -12.0890  -35.9920   16.4870 C.2   180  PHE180      0.2596
    159  O        -12.0410  -37.2210   16.5120 O.2   180  PHE180     -0.2718
    160  CB       -10.9170  -35.5590   14.3050 C.3   180  PHE180      0.0547
    161  CG        -9.6220  -35.0130   14.8490 C.ar  180  PHE180     -0.0202
    162  CD1       -9.1280  -33.7960   14.4050 C.ar  180  PHE180     -0.0042
    163  CD2       -8.9070  -35.7150   15.8060 C.ar  180  PHE180     -0.0042
    164  CE1       -7.9370  -33.2890   14.9040 C.ar  180  PHE180     -0.0003
    165  CE2       -7.7220  -35.2080   16.3120 C.ar  180  PHE180     -0.0003
    166  CZ        -7.2380  -33.9910   15.8540 C.ar  180  PHE180     -0.0000
    167  N        -12.1220  -35.2490   17.5870 N.am  181  GLY181     -0.1942
    168  CA       -12.0360  -35.8170   18.9230 C.3   181  GLY181      0.2014
    169  C        -12.1350  -34.6860   19.9450 C.2   181  GLY181      0.2638
    170  O        -12.2950  -33.5240   19.5610 O.2   181  GLY181     -0.2714
    171  N        -12.0610  -35.0130   21.2340 N.am  182  LEU182     -0.1977
    172  CA       -12.1370  -33.9970   22.2920 C.3   182  LEU182      0.1596
    173  C        -10.9660  -34.1580   23.2580 C.2   182  LEU182      0.2287
    174  O        -10.3900  -35.2320   23.3510 O.2   182  LEU182     -0.2864
    175  CB       -13.4610  -34.1030   23.0600 C.3   182  LEU182      0.0297
    176  CG       -14.7490  -33.8070   22.2790 C.3   182  LEU182      0.0022
    177  CD1      -16.0040  -33.9890   23.1450 C.3   182  LEU182      0.0001
    178  CD2      -14.7190  -32.4170   21.6860 C.3   182  LEU182      0.0001
    179  N         -6.6250  -28.7760   19.6040 N.3   197  PHE197     -0.1227
    180  CA        -7.0730  -30.0850   20.0730 C.3   197  PHE197      0.1736
    181  C         -6.2130  -30.5530   21.2290 C.2   197  PHE197      0.2596
    182  O         -4.9890  -30.4190   21.1900 O.2   197  PHE197     -0.2718
    183  CB        -7.0070  -31.1080   18.9240 C.3   197  PHE197      0.0547
    184  CG        -7.1110  -32.5400   19.3680 C.ar  197  PHE197     -0.0202
    185  CD1       -5.9910  -33.3650   19.3610 C.ar  197  PHE197     -0.0042
    186  CD2       -8.3240  -33.0660   19.7890 C.ar  197  PHE197     -0.0042
    187  CE1       -6.0860  -34.6910   19.7620 C.ar  197  PHE197     -0.0003
    188  CE2       -8.4230  -34.3840   20.1990 C.ar  197  PHE197     -0.0003
    189  CZ        -7.2990  -35.2010   20.1820 C.ar  197  PHE197     -0.0000
    190  N         -6.8460  -31.1060   22.2550 N.am  198  GLY198     -0.1942
    191  CA        -6.0930  -31.7230   23.3350 C.3   198  GLY198      0.2014
    192  C         -5.8890  -30.7900   24.5180 C.2   198  GLY198      0.2640
    193  O         -6.2180  -29.6110   24.4640 O.2   198  GLY198     -0.2714
    194  N         -5.3510  -31.3460   25.5980 N.am  199  SER199     -0.1935
    195  CA        -5.1360  -30.6250   26.8440 C.3   199  SER199      0.2055
    196  C         -3.7060  -30.0990   26.8780 C.2   199  SER199      0.2643
    197  O         -3.2940  -29.4200   27.8230 O.2   199  SER199     -0.2714
    198  CB        -5.3280  -31.5970   28.0150 C.3   199  SER199      0.2130
    199  OG        -4.3760  -32.6440   27.9230 O.3   199  SER199     -0.2179
    200  N         -2.9500  -30.4240   25.8410 N.am  200  ASP200     -0.1971
    201  CA        -1.5450  -30.0390   25.7530 C.3   200  ASP200      0.1709
    202  C         -1.2920  -28.8830   24.7630 C.2   200  ASP200      0.2293
    203  O         -0.1970  -28.7380   24.2230 O.2   200  ASP200     -0.2864
    204  CB        -0.7020  -31.2680   25.3660 C.3   200  ASP200      0.1436
    205  CG        -1.3970  -32.1380   24.3150 C.2   200  ASP200      0.3671
    206  OD1       -2.4180  -31.6740   23.7320 O.co2 200  ASP200     -0.2456
    207  OD2       -0.9250  -33.2720   24.0710 O.co2 200  ASP200     -0.2456
@<TRIPOS>BOND
     1    50    51    1
     2    51    54    1
     3    51    52    1
     4    65    66    1
     5    65    64    1
     6    45    44    2
     7    54    55    1
     8   160   161    1
     9   160   157    1
    10    63    64    1
    11    63    62    1
    12   162   161   ar
    13   162   164   ar
    14    52    53    2
    15    52    58   am
    16    56    55    2
    17    44    43    1
    18    55    57   am
    19   161   163   ar
    20   164   166   ar
    21    58    59    1
    22   157   156    1
    23   157   158    1
    24    62    59    1
    25   163   165   ar
    26   166   165   ar
    27    43    42    1
    28    43    46    1
    29    59    60    1
    30   158   159    2
    31   158   167   am
    32    93    92    1
    33    46    47    1
    34    61    60    2
    35    60    67   am
    36    48    47    1
    37    48    49    1
    38   167   168    1
    39    92    91    1
    40    67    73    1
    41    67    68    1
    42    73    72    1
    43   168   169    1
    44   183   184    1
    45   183   180    1
    46    91    90    1
    47   185   184   ar
    48   185   187   ar
    49   184   186   ar
    50    70    69    2
    51    37    36    2
    52   170   169    2
    53   179   180    1
    54   187   189   ar
    55   186   188   ar
    56    68    69    1
    57    68    71    1
    58    69    74   am
    59   169   171   am
    60    90    89    1
    61   180   181    1
    62    72    71    1
    63    75    74    1
    64    75    78    1
    65    75    76    1
    66   189   188   ar
    67    74    80    1
    68    77    76    2
    69    36    35    1
    70    78    79    1
    71    41    39    1
    72    80    79    1
    73    76    81   am
    74   182   181    2
    75   181   190   am
    76   171   172    1
    77    89    86    1
    78    35    34    1
    79    35    38    1
    80   178   176    1
    81    85    86    1
    82    81    82    1
    83    39    38    1
    84   190   191    1
    85   176   175    1
    86   176   177    1
    87   172   175    1
    88   172   173    1
    89    86    87    1
    90    83    82    1
    91    83    84    2
    92    38    40    1
    93   173   174    2
    94   191   192    1
    95   141   139    1
    96   206   205   ar
    97    87    88    2
    98   207   205   ar
    99   203   202    2
   100   205   204    1
   101   193   192    2
   102   192   194   am
   103   140   139    1
   104   202   201    1
   105   139   138    1
   106   204   201    1
   107   137   136    2
   108   194   195    1
   109   138   135    1
   110   201   200    1
   111   200   196   am
   112   136   135    1
   113     8     6    1
   114    14    13    1
   115   135   134    1
   116    29    31   ar
   117    29    27   ar
   118    31    32   ar
   119   195   196    1
   120   195   198    1
   121    13    10    1
   122   196   197    2
   123    94    95    1
   124   100    99    1
   125   100   101    1
   126    98    99    1
   127    98    95    1
   128   124   123    1
   129    26    27    1
   130    26    23    1
   131    27    28   ar
   132    32    33    1
   133    32    30   ar
   134    95    96    1
   135     6     5    1
   136     6     7    1
   137    28    30   ar
   138   109   107   ar
   139   199   198    1
   140   134   128   am
   141     5     2    1
   142    10     9    1
   143    10    11    1
   144   122   123    1
   145   122   119    1
   146   120   121    2
   147   120   119    1
   148     9     3   am
   149   123   125    1
   150   107   108   ar
   151   107   106    1
   152    24    23    1
   153    24    25    2
   154    23    22    1
   155     3     4    2
   156     3     2    1
   157    21    20    1
   158    21    15    1
   159   106   103    1
   160    22    17   am
   161   129   128    2
   162   119   118    1
   163   128   127    1
   164    96    97    2
   165    11    15   am
   166    11    12    2
   167     2     1    1
   168    20    19    1
   169    15    16    1
   170   126   127    1
   171    17    16    1
   172    17    18    2
   173   127   130    1
   174   103   102    1
   175   103   104    1
   176    16    19    1
   177   116   115    1
   178   130   131    1
   179   131   132    1
   180   153   155   ar
   181   153   151   ar
   182   132   133    1
   183   104   105    2
   184   155   154   ar
   185   117   115    1
   186   150   151   ar
   187   150   148   ar
   188   115   114    1
   189   151   149   ar
   190   148   147   ar
   191   154   152   ar
   192   114   111    1
   193   149   152   ar
   194   149   147   ar
   195   147   146    1
   196   111   110    1
   197   111   112    1
   198   146   143    1
   199   112   113    2
   200   143   142    1
   201   143   144    1
   202   145   144    2
