@<TRIPOS>MOLECULE
tmp/3rpoA00.pdb
 184 176 0 0 0
SMALL
GASTEIGER

@<TRIPOS>ATOM
      1  N         67.4970   86.3040   30.1430 N.3    10  ILE10      -0.1231
      2  CA        66.5560   85.2540   29.7840 C.3    10  ILE10       0.1692
      3  C         66.6650   84.0880   30.7550 C.2    10  ILE10       0.2593
      4  O         65.6820   83.3930   31.0270 O.2    10  ILE10      -0.2718
      5  CB        66.8250   84.7220   28.3610 C.3    10  ILE10       0.0266
      6  CG1       66.5470   85.8130   27.3270 C.3    10  ILE10       0.0019
      7  CG2       65.9580   83.5130   28.0940 C.3    10  ILE10       0.0020
      8  CD1       66.7640   85.3680   25.8900 C.3    10  ILE10       0.0001
      9  N         67.8710   83.8640   31.2590 N.am   11  GLY11      -0.1942
     10  CA        68.0810   82.7800   32.1930 C.3    11  GLY11       0.2014
     11  C         69.5320   82.3840   32.3310 C.2    11  GLY11       0.2639
     12  O         70.4340   83.0390   31.8080 O.2    11  GLY11      -0.2714
     13  N         69.7530   81.2980   33.0560 N.am   12  GLU12      -0.1963
     14  CA        71.0900   80.7900   33.2790 C.3    12  GLU12       0.1733
     15  C         71.1490   79.4330   32.6010 C.2    12  GLU12       0.2616
     16  O         70.6880   78.4290   33.1470 O.2    12  GLU12      -0.2715
     17  CB        71.3520   80.6840   34.7820 C.3    12  GLU12       0.0429
     18  CG        71.0890   82.0020   35.5070 C.3    12  GLU12       0.1163
     19  CD        71.4560   81.9740   36.9810 C.2    12  GLU12       0.3649
     20  OE1       70.9160   81.1260   37.7280 O.co2  12  GLU12      -0.2457
     21  OE2       72.2860   82.8140   37.3930 O.co2  12  GLU12      -0.2457
     22  N         71.7050   79.4260   31.3920 N.am   13  GLY13      -0.1955
     23  CA        71.8060   78.2090   30.6070 C.3    13  GLY13       0.1869
     24  C         72.7110   77.1470   31.1900 C.2    13  GLY13       0.2309
     25  O         73.1940   77.2680   32.3160 O.2    13  GLY13      -0.2863
     26  N         72.2640   83.8000   29.5460 N.3    18  VAL18      -0.1245
     27  CA        71.6750   84.1130   28.2540 C.3    18  VAL18       0.1561
     28  C         70.8890   85.3970   28.3840 C.2    18  VAL18       0.2260
     29  O         70.0710   85.5340   29.2840 O.2    18  VAL18      -0.2867
     30  CB        70.7040   83.0270   27.7930 C.3    18  VAL18       0.0252
     31  CG1       70.2620   83.3250   26.3530 C.3    18  VAL18       0.0019
     32  CG2       71.3560   81.6570   27.9030 C.3    18  VAL18       0.0019
     33  N         68.5770   88.5700   26.3390 N.3    20  LYS20      -0.1245
     34  CA        67.8120   88.9790   25.1680 C.3    20  LYS20       0.1561
     35  C         68.5720   90.2710   24.9000 C.2    20  LYS20       0.2260
     36  O         68.8250   91.0410   25.8380 O.2    20  LYS20      -0.2867
     37  CB        66.3660   89.3140   25.5410 C.3    20  LYS20       0.0271
     38  CG        65.5350   89.8280   24.3630 C.3    20  LYS20       0.0035
     39  CD        64.1470   90.1680   24.8120 C.3    20  LYS20       0.0206
     40  CE        63.2670   90.6360   23.6540 C.3    20  LYS20       0.1093
     41  NZ        61.9030   90.9210   24.1540 N.3    20  LYS20      -0.1314
     42  N         69.1330   86.4150   20.9250 N.3    31  ALA31      -0.1245
     43  CA        69.4240   85.7970   22.2140 C.3    31  ALA31       0.1562
     44  C         70.9490   85.6930   22.1880 C.2    31  ALA31       0.2260
     45  O         71.5420   85.1420   21.2560 O.2    31  ALA31      -0.2867
     46  CB        68.7980   84.4150   22.3110 C.3    31  ALA31       0.0290
     47  N         74.2700   84.3290   24.1160 N.3    33  LYS33      -0.1245
     48  CA        74.7670   83.4240   25.1480 C.3    33  LYS33       0.1561
     49  C         76.2650   83.5460   25.3950 C.2    33  LYS33       0.2260
     50  O         77.0690   83.4020   24.4730 O.2    33  LYS33      -0.2867
     51  CB        74.4310   81.9790   24.7830 C.3    33  LYS33       0.0271
     52  CG        72.9500   81.7320   24.7380 C.3    33  LYS33       0.0035
     53  CD        72.6250   80.2970   25.1210 C.3    33  LYS33       0.0206
     54  CE        73.1280   79.3150   24.0840 C.3    33  LYS33       0.1093
     55  NZ        72.6260   77.9350   24.3890 N.3    33  LYS33      -0.1314
     56  N         66.4580   76.6430   15.7340 N.3    60  VAL60      -0.1245
     57  CA        66.7730   78.0120   16.1280 C.3    60  VAL60       0.1561
     58  C         68.0500   78.4000   15.3880 C.2    60  VAL60       0.2260
     59  O         69.0890   77.7660   15.5460 O.2    60  VAL60      -0.2867
     60  CB        66.9770   78.1120   17.6470 C.3    60  VAL60       0.0252
     61  CG1       67.3810   79.5410   18.0320 C.3    60  VAL60       0.0019
     62  CG2       65.6530   77.7300   18.3610 C.3    60  VAL60       0.0019
     63  N         71.8820   83.8550   18.6710 N.3    76  PHE76      -0.1227
     64  CA        70.7790   83.0620   18.1250 C.3    76  PHE76       0.1736
     65  C         69.5470   83.8900   17.8040 C.2    76  PHE76       0.2595
     66  O         69.3130   84.9440   18.3880 O.2    76  PHE76      -0.2718
     67  CB        70.3350   82.0010   19.1470 C.3    76  PHE76       0.0547
     68  CG        71.3310   80.9140   19.3910 C.ar   76  PHE76      -0.0202
     69  CD1       71.4380   79.8370   18.5180 C.ar   76  PHE76      -0.0042
     70  CD2       72.1510   80.9520   20.5210 C.ar   76  PHE76      -0.0042
     71  CE1       72.3470   78.8100   18.7600 C.ar   76  PHE76      -0.0003
     72  CE2       73.0530   79.9370   20.7650 C.ar   76  PHE76      -0.0003
     73  CZ        73.1550   78.8670   19.8890 C.ar   76  PHE76      -0.0000
     74  N         68.7190   83.3850   16.8940 N.am   77  GLU77      -0.1965
     75  CA        67.4810   84.0840   16.6080 C.3    77  GLU77       0.1733
     76  C         66.7140   84.0130   17.9400 C.2    77  GLU77       0.2616
     77  O         66.9140   83.0900   18.7370 O.2    77  GLU77      -0.2715
     78  CB        66.6940   83.3780   15.4850 C.3    77  GLU77       0.0429
     79  CG        65.8330   82.2310   15.9280 C.3    77  GLU77       0.1163
     80  CD        65.0100   81.6200   14.7930 C.2    77  GLU77       0.3649
     81  OE1       63.8540   82.0430   14.5620 O.co2  77  GLU77      -0.2457
     82  OE2       65.5230   80.7130   14.1280 O.co2  77  GLU77      -0.2457
     83  N         65.8730   85.0040   18.1950 N.am   78  PHE78      -0.1960
     84  CA        65.0930   85.0690   19.4330 C.3    78  PHE78       0.1771
     85  C         63.6480   84.5990   19.2610 C.2    78  PHE78       0.2619
     86  O         62.9960   84.9160   18.2610 O.2    78  PHE78      -0.2715
     87  CB        65.0870   86.5220   19.9550 C.3    78  PHE78       0.0574
     88  CG        64.2340   86.7430   21.1890 C.ar   78  PHE78      -0.0200
     89  CD1       62.9300   87.2350   21.0740 C.ar   78  PHE78      -0.0042
     90  CD2       64.7340   86.4630   22.4590 C.ar   78  PHE78      -0.0042
     91  CE1       62.1370   87.4450   22.1900 C.ar   78  PHE78      -0.0003
     92  CE2       63.9530   86.6670   23.5950 C.ar   78  PHE78      -0.0003
     93  CZ        62.6400   87.1640   23.4620 C.ar   78  PHE78      -0.0000
     94  N         63.1640   83.8240   20.2320 N.am   79  LEU79      -0.1963
     95  CA        61.7720   83.3910   20.2710 C.3    79  LEU79       0.1728
     96  C         61.2940   83.7890   21.6600 C.2    79  LEU79       0.2616
     97  O         62.0630   83.7350   22.6250 O.2    79  LEU79      -0.2715
     98  CB        61.6150   81.8850   20.0550 C.3    79  LEU79       0.0311
     99  CG        61.7140   81.5080   18.5800 C.3    79  LEU79       0.0022
    100  CD1       63.1640   81.1110   18.2960 C.3    79  LEU79       0.0001
    101  CD2       60.7610   80.3760   18.2300 C.3    79  LEU79       0.0001
    102  N         60.0270   84.1670   21.7740 N.am   80  HIS80      -0.1959
    103  CA        59.4950   84.6660   23.0380 C.3    80  HIS80       0.1787
    104  C         59.2340   83.7330   24.2120 C.2    80  HIS80       0.2620
    105  O         59.1190   84.1920   25.3530 O.2    80  HIS80      -0.2715
    106  CB        58.2310   85.4830   22.7530 C.3    80  HIS80       0.0785
    107  CG        58.5100   86.7890   22.0840 C.ar   80  HIS80       0.0821
    108  ND1       58.7550   86.8980   20.7300 N.ar   80  HIS80      -0.2267
    109  CD2       58.6270   88.0410   22.5910 C.ar   80  HIS80       0.1154
    110  CE1       59.0050   88.1600   20.4310 C.ar   80  HIS80       0.1986
    111  NE2       58.9340   88.8740   21.5410 N.ar   80  HIS80      -0.2212
    112  N         59.1230   82.4330   23.9600 N.am   81  GLN81      -0.1963
    113  CA        58.8580   81.5420   25.0800 C.3    81  GLN81       0.1733
    114  C         59.3740   80.1410   24.8270 C.2    81  GLN81       0.2616
    115  O         59.5780   79.7530   23.6850 O.2    81  GLN81      -0.2715
    116  CB        57.3530   81.4850   25.3830 C.3    81  GLN81       0.0408
    117  CG        57.0560   80.6050   26.6280 C.3    81  GLN81       0.0908
    118  CD        55.6850   80.7960   27.2320 C.2    81  GLN81       0.2608
    119  OE1       54.6610   80.4650   26.6280 O.2    81  GLN81      -0.2717
    120  NE2       55.6600   81.3240   28.4440 N.am   81  GLN81      -0.0878
    121  N         59.5960   79.3950   25.9050 N.am   82  ASP82      -0.1971
    122  CA        60.0470   78.0110   25.7770 C.3    82  ASP82       0.1709
    123  C         58.8860   77.0830   26.1670 C.2    82  ASP82       0.2293
    124  O         57.9390   77.5040   26.8270 O.2    82  ASP82      -0.2864
    125  CB        61.2850   77.7400   26.6420 C.3    82  ASP82       0.1436
    126  CG        61.0610   78.0300   28.1180 C.2    82  ASP82       0.3671
    127  OD1       60.5810   77.1410   28.8410 O.co2  82  ASP82      -0.2456
    128  OD2       61.3640   79.1570   28.5540 O.co2  82  ASP82      -0.2456
    129  N         58.7500   74.6320   28.2980 N.3    84  LYS84      -0.1231
    130  CA        58.5850   74.3420   29.7210 C.3    84  LYS84       0.1693
    131  C         57.6180   75.3580   30.3150 C.2    84  LYS84       0.2591
    132  O         56.6430   75.0060   30.9770 O.2    84  LYS84      -0.2718
    133  CB        59.9310   74.4180   30.4440 C.3    84  LYS84       0.0285
    134  CG        59.8460   73.9440   31.8900 C.3    84  LYS84       0.0035
    135  CD        61.2010   73.9620   32.5590 C.3    84  LYS84       0.0206
    136  CE        61.1290   73.3890   33.9770 C.3    84  LYS84       0.1093
    137  NZ        60.1200   74.0920   34.8250 N.3    84  LYS84      -0.1314
    138  N         57.8880   76.6360   30.0730 N.am   85  LYS85      -0.1980
    139  CA        57.0090   77.6750   30.5890 C.3    85  LYS85       0.1596
    140  C         55.5980   77.5200   30.0410 C.2    85  LYS85       0.2287
    141  O         54.6120   77.6960   30.7790 O.2    85  LYS85      -0.2864
    142  CB        57.5590   79.0660   30.2400 C.3    85  LYS85       0.0298
    143  CG        58.8560   79.4150   30.9490 C.3    85  LYS85       0.0038
    144  CD        59.2500   80.8740   30.6660 C.3    85  LYS85       0.0206
    145  CE        60.5900   81.2460   31.2830 C.3    85  LYS85       0.1093
    146  NZ        61.7280   80.5090   30.6810 N.3    85  LYS85      -0.1314
    147  N         62.8350   73.0150   27.9940 N.3   127  GLN127     -0.1231
    148  CA        63.4430   74.3430   28.0350 C.3   127  GLN127      0.1698
    149  C         64.1860   74.7200   26.7580 C.2   127  GLN127      0.2592
    150  O         64.3810   75.9050   26.5060 O.2   127  GLN127     -0.2718
    151  CB        64.4080   74.4680   29.2210 C.3   127  GLN127      0.0381
    152  CG        63.8000   74.1480   30.5860 C.3   127  GLN127      0.0905
    153  CD        64.0740   72.7080   31.0040 C.2   127  GLN127      0.2608
    154  OE1       63.4870   71.7560   30.4670 O.2   127  GLN127     -0.2717
    155  NE2       64.9940   72.5410   31.9570 N.am  127  GLN127     -0.0878
    156  N         64.5930   73.7160   25.9750 N.am  128  ASN128     -0.1974
    157  CA        65.3310   73.8500   24.7030 C.3   128  ASN128      0.1688
    158  C         64.4130   73.9280   23.5000 C.2   128  ASN128      0.2292
    159  O         64.8960   73.9730   22.3690 O.2   128  ASN128     -0.2864
    160  CB        66.1930   72.5970   24.4540 C.3   128  ASN128      0.1181
    161  CG        67.4480   72.6060   25.2200 C.2   128  ASN128      0.2629
    162  OD1       68.0540   71.5650   25.4340 O.2   128  ASN128     -0.2716
    163  ND2       67.8680   73.7930   25.6490 N.am  128  ASN128     -0.0877
    164  N         61.6780   76.1010   21.6530 N.3   130  LEU130     -0.1245
    165  CA        61.1460   77.4620   21.6420 C.3   130  LEU130      0.1561
    166  C         59.9640   77.6580   20.7190 C.2   130  LEU130      0.2260
    167  O         59.9100   77.0980   19.6230 O.2   130  LEU130     -0.2867
    168  CB        62.2780   78.4290   21.2950 C.3   130  LEU130      0.0270
    169  CG        63.5600   78.1800   22.1210 C.3   130  LEU130      0.0019
    170  CD1       64.6210   79.1890   21.7510 C.3   130  LEU130      0.0001
    171  CD2       63.2320   78.2690   23.6270 C.3   130  LEU130      0.0001
    172  N         66.4330   74.3190   20.0220 N.3   140  ALA140     -0.1231
    173  CA        67.5730   75.1700   20.3440 C.3   140  ALA140      0.1694
    174  C         68.7420   74.3330   20.8340 C.2   140  ALA140      0.2592
    175  O         68.5420   73.2670   21.4180 O.2   140  ALA140     -0.2718
    176  CB        67.1940   76.1800   21.4310 C.3   140  ALA140      0.0304
    177  N         69.9530   74.8160   20.5660 N.am  141  ASP141     -0.1974
    178  CA        71.1930   74.1740   21.0110 C.3   141  ASP141      0.1709
    179  C         71.6100   72.8680   20.3450 C.2   141  ASP141      0.2293
    180  O         72.3890   72.1030   20.9190 O.2   141  ASP141     -0.2864
    181  CB        71.1460   73.9990   22.5320 C.3   141  ASP141      0.1436
    182  CG        70.9850   75.3170   23.2550 C.2   141  ASP141      0.3671
    183  OD1       70.6550   75.3120   24.4550 O.co2 141  ASP141     -0.2456
    184  OD2       71.1890   76.3710   22.6140 O.co2 141  ASP141     -0.2456
@<TRIPOS>BOND
     1    82    80   ar
     2    81    80   ar
     3    80    79    1
     4    58    59    2
     5    58    57    1
     6    78    79    1
     7    78    75    1
     8    56    57    1
     9    57    60    1
    10    75    74    1
    11    75    76    1
    12    74    65   am
    13    60    61    1
    14    60    62    1
    15    65    64    1
    16    65    66    2
    17    76    83   am
    18    76    77    2
    19    64    63    1
    20    64    67    1
    21    83    84    1
    22   101    99    1
    23    86    85    2
    24   100    99    1
    25    69    71   ar
    26    69    68   ar
    27    99    98    1
    28    71    73   ar
    29    67    68    1
    30    85    84    1
    31    85    94   am
    32    68    70   ar
    33    84    87    1
    34   167   166    2
    35    73    72   ar
    36    87    88    1
    37   172   173    1
    38    98    95    1
    39    94    95    1
    40    95    96    1
    41   173   174    1
    42   173   176    1
    43   179   180    2
    44   179   178    1
    45   110   108   ar
    46   110   111   ar
    47    70    72   ar
    48   177   174   am
    49   177   178    1
    50   166   165    1
    51   108   107   ar
    52   174   175    2
    53    42    43    1
    54   178   181    1
    55    89    88   ar
    56    89    91   ar
    57    88    90   ar
    58    45    44    2
    59   168   165    1
    60   168   169    1
    61   111   109   ar
    62   165   164    1
    63    96   102   am
    64    96    97    2
    65   170   169    1
    66   102   103    1
    67   107   109   ar
    68   107   106    1
    69   169   171    1
    70    44    43    1
    71    91    93   ar
    72    43    46    1
    73   159   158    2
    74    90    92   ar
    75   181   182    1
    76   184   182   ar
    77   106   103    1
    78   103   104    1
    79   182   183   ar
    80    93    92   ar
    81   158   157    1
    82    40    41    1
    83    40    39    1
    84   115   114    2
    85   112   104   am
    86   112   113    1
    87    54    55    1
    88    54    53    1
    89    47    48    1
    90   104   105    2
    91    38    39    1
    92    38    37    1
    93   160   157    1
    94   160   161    1
    95    50    49    2
    96   157   156    1
    97    52    51    1
    98    52    53    1
    99    51    48    1
   100   114   113    1
   101   114   121   am
   102    35    34    1
   103    35    36    2
   104   113   116    1
   105    48    49    1
   106    34    37    1
   107    34    33    1
   108   161   162    2
   109   161   163   am
   110   116   117    1
   111   122   121    1
   112   122   123    1
   113   122   125    1
   114     8     6    1
   115   156   149   am
   116   123   124    2
   117    31    30    1
   118   150   149    2
   119   117   118    1
   120   119   118    2
   121   125   126    1
   122   149   148    1
   123   118   120   am
   124     6     5    1
   125    30    32    1
   126    30    27    1
   127   147   148    1
   128   148   151    1
   129     7     5    1
   130   126   128   ar
   131   126   127   ar
   132    27    28    1
   133    27    26    1
   134   129   130    1
   135     5     2    1
   136    28    29    2
   137   151   152    1
   138   130   131    1
   139   130   133    1
   140     2     1    1
   141     2     3    1
   142   140   139    1
   143   140   141    2
   144   138   131   am
   145   138   139    1
   146   142   139    1
   147   142   143    1
   148   131   132    2
   149   133   134    1
   150   154   153    2
   151   152   153    1
   152    23    24    1
   153    23    22    1
   154   144   143    1
   155   144   145    1
   156   146   145    1
   157     3     4    2
   158     3     9   am
   159   153   155   am
   160    24    25    2
   161     9    10    1
   162    22    15   am
   163    12    11    2
   164   134   135    1
   165    10    11    1
   166    11    13   am
   167   135   136    1
   168    15    16    2
   169    15    14    1
   170    13    14    1
   171    14    17    1
   172   136   137    1
   173    17    18    1
   174    18    19    1
   175    19    21   ar
   176    19    20   ar
