@<TRIPOS>MOLECULE
tmp/3rprA00.pdb
 182 174 0 0 0
SMALL
GASTEIGER

@<TRIPOS>ATOM
      1  N         94.9310   91.2540  -44.8030 N.3     8  GLU8       -0.1245
      2  CA        94.7100   90.5790  -43.5280 C.3     8  GLU8        0.1567
      3  C         95.1990   89.1370  -43.5730 C.2     8  GLU8        0.2260
      4  O         95.5280   88.6070  -44.6380 O.2     8  GLU8       -0.2867
      5  CB        93.2190   90.5900  -43.1660 C.3     8  GLU8        0.0388
      6  CG        92.3280   89.8190  -44.1330 C.3     8  GLU8        0.1160
      7  CD        90.8600   89.8720  -43.7440 C.2     8  GLU8        0.3649
      8  OE1       90.0330   89.2330  -44.4330 O.co2   8  GLU8       -0.2457
      9  OE2       90.5330   90.5560  -42.7490 O.co2   8  GLU8       -0.2457
     10  N         94.5660   85.2700  -43.4430 N.3    10  ILE10      -0.1231
     11  CA        93.4360   84.4080  -43.7450 C.3    10  ILE10       0.1692
     12  C         93.4890   83.2440  -42.7720 C.2    10  ILE10       0.2593
     13  O         92.4590   82.7790  -42.2870 O.2    10  ILE10      -0.2718
     14  CB        93.4860   83.8560  -45.1990 C.3    10  ILE10       0.0266
     15  CG1       93.3690   85.0010  -46.2100 C.3    10  ILE10       0.0019
     16  CG2       92.3430   82.8720  -45.4160 C.3    10  ILE10       0.0020
     17  CD1       93.4260   84.5460  -47.6640 C.3    10  ILE10       0.0001
     18  N         94.6980   82.7750  -42.4890 N.am   11  GLY11      -0.1942
     19  CA        94.8520   81.6660  -41.5690 C.3    11  GLY11       0.2014
     20  C         96.2290   81.0420  -41.6150 C.2    11  GLY11       0.2639
     21  O         97.1440   81.5610  -42.2620 O.2    11  GLY11      -0.2714
     22  N         96.3760   79.9240  -40.9100 N.am   12  GLU12      -0.1963
     23  CA        97.6380   79.2010  -40.8570 C.3    12  GLU12       0.1733
     24  C         97.5940   78.0490  -41.8380 C.2    12  GLU12       0.2617
     25  O         96.7570   77.1520  -41.7190 O.2    12  GLU12      -0.2715
     26  CB        97.8890   78.6370  -39.4550 C.3    12  GLU12       0.0429
     27  CG        98.2510   79.6530  -38.3930 C.3    12  GLU12       0.1163
     28  CD        98.6430   78.9800  -37.0860 C.2    12  GLU12       0.3649
     29  OE1       97.7940   78.2670  -36.5050 O.co2  12  GLU12      -0.2457
     30  OE2       99.8020   79.1520  -36.6440 O.co2  12  GLU12      -0.2457
     31  N         98.4970   78.0690  -42.8100 N.am   13  GLY13      -0.1940
     32  CA        98.5290   76.9990  -43.7830 C.3    13  GLY13       0.2014
     33  C         99.5220   75.9350  -43.3680 C.2    13  GLY13       0.2639
     34  O        100.2600   76.1070  -42.3970 O.2    13  GLY13      -0.2714
     35  N         99.5420   74.8310  -44.1030 N.am   14  THR14      -0.1950
     36  CA       100.4640   73.7390  -43.8140 C.3    14  THR14       0.1897
     37  C        101.9240   74.1930  -43.7830 C.2    14  THR14       0.2313
     38  O        102.7120   73.7060  -42.9630 O.2    14  THR14      -0.2863
     39  CB       100.3450   72.6240  -44.8690 C.3    14  THR14       0.1794
     40  OG1       99.0030   72.1250  -44.8890 O.3    14  THR14      -0.2208
     41  CG2      101.3140   71.4810  -44.5580 C.3    14  THR14       0.0378
     42  N         99.0700   82.3710  -44.3790 N.3    18  VAL18      -0.1245
     43  CA        98.4540   82.7160  -45.6640 C.3    18  VAL18       0.1561
     44  C         97.7640   84.0630  -45.4880 C.2    18  VAL18       0.2260
     45  O         96.9360   84.2330  -44.5910 O.2    18  VAL18      -0.2867
     46  CB        97.3980   81.6790  -46.1130 C.3    18  VAL18       0.0252
     47  CG1       96.7580   82.1340  -47.4240 C.3    18  VAL18       0.0019
     48  CG2       98.0510   80.3190  -46.3150 C.3    18  VAL18       0.0019
     49  N         95.8760   85.3410  -52.6750 N.3    31  ALA31      -0.1245
     50  CA        96.1690   84.6190  -51.4430 C.3    31  ALA31       0.1562
     51  C         97.6840   84.4380  -51.4960 C.2    31  ALA31       0.2260
     52  O         98.2030   83.7210  -52.3530 O.2    31  ALA31      -0.2867
     53  CB        95.4830   83.2590  -51.4220 C.3    31  ALA31       0.0290
     54  N        101.0090   83.0560  -49.7760 N.3    33  LYS33      -0.1245
     55  CA       101.4310   82.0670  -48.7900 C.3    33  LYS33       0.1561
     56  C        102.9270   82.1120  -48.5500 C.2    33  LYS33       0.2260
     57  O        103.7040   81.9250  -49.4790 O.2    33  LYS33      -0.2867
     58  CB       101.0470   80.6630  -49.2700 C.3    33  LYS33       0.0271
     59  CG        99.6190   80.6000  -49.7800 C.3    33  LYS33       0.0035
     60  CD        99.1230   79.1610  -49.8840 C.3    33  LYS33       0.0206
     61  CE        97.6750   79.1200  -50.3750 C.3    33  LYS33       0.1093
     62  NZ        97.1000   77.7480  -50.2420 N.3    33  LYS33      -0.1314
     63  N         92.6980   75.7760  -57.9610 N.3    56  VAL56      -0.1245
     64  CA        93.0370   77.1670  -57.6130 C.3    56  VAL56       0.1561
     65  C         94.3520   77.4810  -58.3300 C.2    56  VAL56       0.2260
     66  O         95.3590   76.8010  -58.1440 O.2    56  VAL56      -0.2867
     67  CB        93.2050   77.3310  -56.0710 C.3    56  VAL56       0.0252
     68  CG1       93.6310   78.7580  -55.7180 C.3    56  VAL56       0.0019
     69  CG2       91.8810   77.0230  -55.3840 C.3    56  VAL56       0.0019
     70  N         98.5570   82.7040  -55.0240 N.3    72  PHE72      -0.1227
     71  CA        97.4280   81.9330  -55.5240 C.3    72  PHE72       0.1736
     72  C         96.2370   82.8320  -55.8090 C.2    72  PHE72       0.2595
     73  O         96.0800   83.8810  -55.1860 O.2    72  PHE72      -0.2718
     74  CB        96.9780   80.9240  -54.4630 C.3    72  PHE72       0.0547
     75  CG        97.8040   79.6720  -54.4050 C.ar   72  PHE72      -0.0202
     76  CD1       97.4690   78.5650  -55.1860 C.ar   72  PHE72      -0.0042
     77  CD2       98.8920   79.5800  -53.5410 C.ar   72  PHE72      -0.0042
     78  CE1       98.2020   77.3830  -55.1020 C.ar   72  PHE72      -0.0003
     79  CE2       99.6340   78.3980  -53.4550 C.ar   72  PHE72      -0.0003
     80  CZ        99.2910   77.3020  -54.2300 C.ar   72  PHE72      -0.0000
     81  N         95.3890   82.4080  -56.7400 N.am   73  GLU73      -0.1965
     82  CA        94.1700   83.1660  -57.0160 C.3    73  GLU73       0.1733
     83  C         93.3550   83.1330  -55.7170 C.2    73  GLU73       0.2616
     84  O         93.3630   82.1410  -54.9760 O.2    73  GLU73      -0.2715
     85  CB        93.3710   82.5430  -58.1720 C.3    73  GLU73       0.0429
     86  CG        92.5740   81.3260  -57.8220 C.3    73  GLU73       0.1163
     87  CD        91.6640   80.8560  -58.9570 C.2    73  GLU73       0.3649
     88  OE1       90.5970   81.4700  -59.1870 O.co2  73  GLU73      -0.2457
     89  OE2       92.0150   79.8710  -59.6170 O.co2  73  GLU73      -0.2457
     90  N         92.6640   84.2290  -55.4350 N.am   74  PHE74      -0.1960
     91  CA        91.8970   84.3440  -54.2050 C.3    74  PHE74       0.1771
     92  C         90.4620   83.9060  -54.3990 C.2    74  PHE74       0.2619
     93  O         89.7940   84.3500  -55.3370 O.2    74  PHE74      -0.2715
     94  CB        91.9280   85.8090  -53.7130 C.3    74  PHE74       0.0574
     95  CG        91.1370   86.0620  -52.4520 C.ar   74  PHE74      -0.0200
     96  CD1       89.8600   86.6210  -52.5130 C.ar   74  PHE74      -0.0042
     97  CD2       91.6700   85.7500  -51.2050 C.ar   74  PHE74      -0.0042
     98  CE1       89.1240   86.8670  -51.3450 C.ar   74  PHE74      -0.0003
     99  CE2       90.9480   85.9890  -50.0360 C.ar   74  PHE74      -0.0003
    100  CZ        89.6650   86.5520  -50.1120 C.ar   74  PHE74      -0.0000
    101  N         89.9990   83.0160  -53.5290 N.am   75  LEU75      -0.1963
    102  CA        88.6180   82.5970  -53.6050 C.3    75  LEU75       0.1728
    103  C         87.8480   83.1480  -52.4290 C.2    75  LEU75       0.2616
    104  O         88.4210   83.5620  -51.4260 O.2    75  LEU75      -0.2715
    105  CB        88.4870   81.0760  -53.7150 C.3    75  LEU75       0.0311
    106  CG        88.4720   80.7770  -55.2190 C.3    75  LEU75       0.0022
    107  CD1       89.8440   80.3410  -55.6680 C.3    75  LEU75       0.0001
    108  CD2       87.4200   79.7500  -55.5470 C.3    75  LEU75       0.0001
    109  N         86.5300   83.1210  -52.5740 N.am   76  HIS76      -0.1959
    110  CA        85.5900   83.6840  -51.6250 C.3    76  HIS76       0.1787
    111  C         85.4570   83.0790  -50.2170 C.2    76  HIS76       0.2620
    112  O         85.3440   83.8100  -49.2290 O.2    76  HIS76      -0.2715
    113  CB        84.2140   83.7350  -52.3220 C.3    76  HIS76       0.0785
    114  CG        84.2610   84.2880  -53.7240 C.ar   76  HIS76       0.0821
    115  ND1       83.1430   84.3800  -54.5310 N.ar   76  HIS76      -0.2267
    116  CD2       85.2880   84.7870  -54.4550 C.ar   76  HIS76       0.1154
    117  CE1       83.4780   84.9100  -55.6930 C.ar   76  HIS76       0.1986
    118  NE2       84.7740   85.1700  -55.6730 N.ar   76  HIS76      -0.2212
    119  N         85.5000   81.7550  -50.1150 N.am   77  GLN77      -0.1963
    120  CA        85.3290   81.0880  -48.8240 C.3    77  GLN77       0.1733
    121  C         85.8350   79.6560  -48.9680 C.2    77  GLN77       0.2616
    122  O         85.9960   79.1800  -50.0920 O.2    77  GLN77      -0.2715
    123  CB        83.8310   81.0820  -48.4870 C.3    77  GLN77       0.0408
    124  CG        83.4270   80.5430  -47.1160 C.3    77  GLN77       0.0908
    125  CD        82.0130   80.9700  -46.7490 C.2    77  GLN77       0.2608
    126  OE1       81.7620   82.1460  -46.4600 O.2    77  GLN77      -0.2717
    127  NE2       81.0840   80.0310  -46.7800 N.am   77  GLN77      -0.0878
    128  N         86.1220   78.9880  -47.8490 N.am   78  ASP78      -0.1971
    129  CA        86.5710   77.5920  -47.9030 C.3    78  ASP78       0.1709
    130  C         85.3960   76.6900  -47.5280 C.2    78  ASP78       0.2293
    131  O         84.4050   77.1470  -46.9560 O.2    78  ASP78      -0.2864
    132  CB        87.7620   77.3460  -46.9640 C.3    78  ASP78       0.1436
    133  CG        87.4630   77.7320  -45.5230 C.2    78  ASP78       0.3671
    134  OD1       86.8410   76.9440  -44.7980 O.co2  78  ASP78      -0.2456
    135  OD2       87.8370   78.8520  -45.1190 O.co2  78  ASP78      -0.2456
    136  N         84.3490   76.4590  -43.6490 N.3    81  LYS81      -0.1245
    137  CA        83.4690   77.5280  -43.1850 C.3    81  LYS81       0.1561
    138  C         82.0580   77.3730  -43.7430 C.2    81  LYS81       0.2260
    139  O         81.0820   77.5800  -43.0180 O.2    81  LYS81      -0.2867
    140  CB        84.0340   78.8970  -43.5780 C.3    81  LYS81       0.0271
    141  CG        85.3790   79.1980  -42.9550 C.3    81  LYS81       0.0035
    142  CD        85.9200   80.5390  -43.4290 C.3    81  LYS81       0.0206
    143  CE        87.3190   80.7990  -42.8950 C.3    81  LYS81       0.1093
    144  NZ        87.3400   80.8730  -41.4030 N.3    81  LYS81      -0.1314
    145  N         89.5090   72.6950  -45.5050 N.3   123  GLN123     -0.1231
    146  CA        90.2350   73.9630  -45.4710 C.3   123  GLN123      0.1698
    147  C         90.8840   74.3530  -46.8070 C.2   123  GLN123      0.2592
    148  O         91.0580   75.5540  -47.0850 O.2   123  GLN123     -0.2718
    149  CB        91.2970   73.9160  -44.3620 C.3   123  GLN123      0.0381
    150  CG        92.3030   75.0580  -44.3700 C.3   123  GLN123      0.0905
    151  CD        93.4500   74.8300  -43.3810 C.2   123  GLN123      0.2608
    152  OE1       93.2550   74.8780  -42.1690 O.2   123  GLN123     -0.2717
    153  NE2       94.6470   74.5710  -43.9030 N.am  123  GLN123     -0.0878
    154  N         91.2570   73.3780  -47.6370 N.am  124  ASN124     -0.1974
    155  CA        91.8530   73.7460  -48.9160 C.3   124  ASN124      0.1688
    156  C         90.9590   73.5100  -50.1310 C.2   124  ASN124      0.2292
    157  O         91.4370   73.4150  -51.2640 O.2   124  ASN124     -0.2864
    158  CB        93.2570   73.1330  -49.1190 C.3   124  ASN124      0.1181
    159  CG        93.3050   71.6370  -48.9060 C.2   124  ASN124      0.2629
    160  OD1       92.3960   70.9060  -49.2980 O.2   124  ASN124     -0.2716
    161  ND2       94.4040   71.1690  -48.3140 N.am  124  ASN124     -0.0877
    162  N         88.0650   75.4210  -51.9570 N.3   126  LEU126     -0.1245
    163  CA        87.5670   76.7980  -51.9620 C.3   126  LEU126      0.1561
    164  C         86.3990   76.9850  -52.9140 C.2   126  LEU126      0.2260
    165  O         86.3900   76.4290  -53.9990 O.2   126  LEU126     -0.2867
    166  CB        88.6840   77.7690  -52.3720 C.3   126  LEU126      0.0270
    167  CG        89.8590   78.0810  -51.4360 C.3   126  LEU126      0.0019
    168  CD1       89.3180   78.5660  -50.0990 C.3   126  LEU126      0.0001
    169  CD2       90.7380   76.8620  -51.2560 C.3   126  LEU126      0.0001
    170  N         93.0330   73.6750  -53.7600 N.3   136  ALA136     -0.1231
    171  CA        94.2840   74.4260  -53.6770 C.3   136  ALA136      0.1694
    172  C         95.3640   73.5430  -53.0870 C.2   136  ALA136      0.2592
    173  O         95.0580   72.5950  -52.3630 O.2   136  ALA136     -0.2718
    174  CB        94.1050   75.6540  -52.8000 C.3   136  ALA136      0.0304
    175  N         96.6150   73.8610  -53.4150 N.am  137  ASP137     -0.1974
    176  CA        97.8070   73.1750  -52.8990 C.3   137  ASP137      0.1709
    177  C         98.1930   71.8080  -53.4870 C.2   137  ASP137      0.2293
    178  O         98.9890   71.0670  -52.8980 O.2   137  ASP137     -0.2864
    179  CB        97.7340   73.1250  -51.3630 C.3   137  ASP137      0.1436
    180  CG        97.7820   74.5160  -50.7280 C.2   137  ASP137      0.3671
    181  OD1       98.0110   75.5090  -51.4650 O.co2 137  ASP137     -0.2456
    182  OD2       97.5980   74.6340  -49.4910 O.co2 137  ASP137     -0.2456
@<TRIPOS>BOND
     1    89    87   ar
     2    88    87   ar
     3    87    86    1
     4    65    66    2
     5    65    64    1
     6    85    86    1
     7    85    82    1
     8    63    64    1
     9    64    67    1
    10    82    81    1
    11    82    83    1
    12    81    72   am
    13    67    68    1
    14    67    69    1
    15    72    71    1
    16    72    73    2
    17    83    90   am
    18    83    84    2
    19   117   118   ar
    20   117   115   ar
    21   118   116   ar
    22   107   106    1
    23   108   106    1
    24    71    70    1
    25    71    74    1
    26    90    91    1
    27    93    92    2
    28   106   105    1
    29    76    78   ar
    30    76    75   ar
    31    78    80   ar
    32   115   114   ar
    33    74    75    1
    34   116   114   ar
    35    75    77   ar
    36    92    91    1
    37    92   101   am
    38    80    79   ar
    39    91    94    1
    40   165   164    2
    41   170   171    1
    42   114   113    1
    43   105   102    1
    44    94    95    1
    45   171   172    1
    46   171   174    1
    47   102   101    1
    48   102   103    1
    49    77    79   ar
    50   177   176    1
    51   177   178    2
    52   175   172   am
    53   175   176    1
    54   172   173    2
    55   164   163    1
    56   176   179    1
    57    49    50    1
    58   109   103   am
    59   109   110    1
    60    96    95   ar
    61    96    98   ar
    62    95    97   ar
    63   103   104    2
    64   166   163    1
    65   166   167    1
    66    52    51    2
    67   113   110    1
    68   163   162    1
    69   110   111    1
    70    51    50    1
    71   181   180   ar
    72    50    53    1
    73   167   169    1
    74   167   168    1
    75   179   180    1
    76    98   100   ar
    77   157   156    2
    78    97    99   ar
    79   180   182   ar
    80    61    62    1
    81    61    60    1
    82   111   119   am
    83   111   112    2
    84   156   155    1
    85   119   120    1
    86   100    99   ar
    87   122   121    2
    88    60    59    1
    89    59    58    1
    90    54    55    1
    91    57    56    2
    92   160   159    2
    93    58    55    1
    94   158   155    1
    95   158   159    1
    96   121   120    1
    97   121   128   am
    98   155   154    1
    99   159   161   am
   100   120   123    1
   101    55    56    1
   102   123   124    1
   103   129   128    1
   104   129   130    1
   105   129   132    1
   106    17    15    1
   107   154   147   am
   108   130   131    2
   109    47    46    1
   110   124   125    1
   111   148   147    2
   112   132   133    1
   113   147   146    1
   114   127   125   am
   115   125   126    2
   116    48    46    1
   117    15    14    1
   118    46    43    1
   119    43    44    1
   120    43    42    1
   121   133   135   ar
   122   133   134   ar
   123   145   146    1
   124    44    45    2
   125   146   149    1
   126    16    14    1
   127    14    11    1
   128    40    39    1
   129    39    41    1
   130    39    36    1
   131     1     2    1
   132     4     3    2
   133     8     7   ar
   134   150   149    1
   135   150   151    1
   136     6     7    1
   137     6     5    1
   138    35    36    1
   139    35    33   am
   140   153   151   am
   141    36    37    1
   142    32    33    1
   143    32    31    1
   144    37    38    2
   145    11    10    1
   146    11    12    1
   147     7     9   ar
   148   138   137    1
   149   138   139    2
   150   136   137    1
   151   140   137    1
   152   140   141    1
   153     3     2    1
   154     2     5    1
   155   142   141    1
   156   142   143    1
   157   151   152    2
   158    33    34    2
   159   143   144    1
   160    31    24   am
   161    12    18   am
   162    12    13    2
   163    18    19    1
   164    21    20    2
   165    24    25    2
   166    24    23    1
   167    20    19    1
   168    20    22   am
   169    22    23    1
   170    23    26    1
   171    26    27    1
   172    27    28    1
   173    28    30   ar
   174    28    29   ar
