@<TRIPOS>MOLECULE
tmp/3rpsA00.pdb
 123 114 0 0 0
SMALL
GASTEIGER

@<TRIPOS>ATOM
      1  N         22.1860  -43.9670  -11.7270 N.3    44  LEU44      -0.1231
      2  CA        20.9590  -43.1700  -11.8630 C.3    44  LEU44       0.1693
      3  C         21.2870  -41.7100  -12.1760 C.2    44  LEU44       0.2593
      4  O         20.4260  -40.9570  -12.6390 O.2    44  LEU44      -0.2718
      5  CB        20.1090  -43.2470  -10.5910 C.3    44  LEU44       0.0284
      6  CG        19.5350  -44.6230  -10.2320 C.3    44  LEU44       0.0019
      7  CD1       18.7580  -44.5490   -8.9250 C.3    44  LEU44       0.0001
      8  CD2       18.6490  -45.1620  -11.3410 C.3    44  LEU44       0.0001
      9  N         22.5310  -41.3190  -11.9060 N.am   45  GLY45      -0.1942
     10  CA        23.0430  -40.0120  -12.2960 C.3    45  GLY45       0.2014
     11  C         24.0950  -39.4820  -11.3410 C.2    45  GLY45       0.2639
     12  O         24.7450  -40.2420  -10.6240 O.2    45  GLY45      -0.2714
     13  N         24.2700  -38.1650  -11.3610 N.am   46  ARG46      -0.1963
     14  CA        25.1850  -37.4800  -10.4540 C.3    46  ARG46       0.1729
     15  C         24.6810  -36.0660  -10.1890 C.2    46  ARG46       0.2617
     16  O         24.6610  -35.2160  -11.0890 O.2    46  ARG46      -0.2715
     17  CB        26.6190  -37.4720  -11.0020 C.3    46  ARG46       0.0348
     18  CG        26.7490  -37.2540  -12.5110 C.3    46  ARG46       0.0492
     19  CD        28.1230  -37.6910  -13.0060 C.3    46  ARG46       0.2205
     20  NE        28.1840  -37.7840  -14.4640 N.pl3  46  ARG46      -0.0865
     21  CZ        29.2140  -38.2720  -15.1550 C.cat  46  ARG46       0.5346
     22  NH1       30.3010  -38.7270  -14.5350 N.pl3  46  ARG46       0.1354
     23  NH2       29.1590  -38.3050  -16.4820 N.pl3  46  ARG46       0.1354
     24  N         24.2570  -35.8380   -8.9490 N.am   47  GLY47      -0.1940
     25  CA        23.6470  -34.5780   -8.5570 C.3    47  GLY47       0.2014
     26  C         24.6500  -33.4570   -8.3820 C.2    47  GLY47       0.2638
     27  O         25.8530  -33.6950   -8.2530 O.2    47  GLY47      -0.2714
     28  N         24.1270  -32.2320   -8.3780 N.am   48  LYS48      -0.1977
     29  CA        24.8950  -31.0030   -8.1370 C.3    48  LYS48       0.1596
     30  C         26.0310  -31.1180   -7.1040 C.2    48  LYS48       0.2287
     31  O         26.9980  -30.3540   -7.1810 O.2    48  LYS48      -0.2864
     32  CB        23.9370  -29.8750   -7.7370 C.3    48  LYS48       0.0298
     33  CG        23.1000  -30.2020   -6.5090 C.3    48  LYS48       0.0038
     34  CD        21.6870  -29.6640   -6.6020 C.3    48  LYS48       0.0206
     35  CE        20.7950  -30.3270   -5.5690 C.3    48  LYS48       0.1093
     36  NZ        20.6400  -31.7870   -5.8240 N.3    48  LYS48      -0.1314
     37  N         26.8870  -34.8070   -5.6810 N.3    50  SER50      -0.1217
     38  CA        27.1530  -36.2270   -5.3830 C.3    50  SER50       0.1889
     39  C         27.0710  -37.1020   -6.6350 C.2    50  SER50       0.2288
     40  O         26.7730  -36.6040   -7.7250 O.2    50  SER50      -0.2866
     41  CB        26.1450  -36.7280   -4.3520 C.3    50  SER50       0.2089
     42  OG        24.8340  -36.5930   -4.8630 O.3    50  SER50      -0.2183
     43  N         25.1800  -40.8670   -7.7800 N.3    52  VAL52      -0.1245
     44  CA        24.0930  -41.7000   -7.2600 C.3    52  VAL52       0.1561
     45  C         23.8120  -42.9320   -8.1100 C.2    52  VAL52       0.2260
     46  O         23.8430  -42.8830   -9.3370 O.2    52  VAL52      -0.2867
     47  CB        22.7910  -40.8930   -7.0810 C.3    52  VAL52       0.0252
     48  CG1       23.0060  -39.7570   -6.0860 C.3    52  VAL52       0.0019
     49  CG2       22.3050  -40.3560   -8.4030 C.3    52  VAL52       0.0019
     50  N         18.9690  -47.0110   -2.9970 N.3    65  VAL65      -0.1245
     51  CA        19.6570  -45.9960   -3.7760 C.3    65  VAL65       0.1561
     52  C         20.8560  -45.5160   -2.9800 C.2    65  VAL65       0.2260
     53  O         20.7060  -45.0380   -1.8460 O.2    65  VAL65      -0.2867
     54  CB        18.7510  -44.7980   -4.0790 C.3    65  VAL65       0.0252
     55  CG1       19.5160  -43.7460   -4.8600 C.3    65  VAL65       0.0019
     56  CG2       17.5210  -45.2470   -4.8480 C.3    65  VAL65       0.0019
     57  N         24.2300  -43.1030   -2.5120 N.3    67  LYS67      -0.1245
     58  CA        24.7540  -41.7840   -2.8320 C.3    67  LYS67       0.1561
     59  C         26.1540  -41.6520   -2.2450 C.2    67  LYS67       0.2260
     60  O         26.3110  -41.4130   -1.0490 O.2    67  LYS67      -0.2867
     61  CB        23.8300  -40.7120   -2.2540 C.3    67  LYS67       0.0271
     62  CG        24.1740  -39.2760   -2.6250 C.3    67  LYS67       0.0035
     63  CD        23.1570  -38.3210   -1.9930 C.3    67  LYS67       0.0206
     64  CE        22.8990  -37.0870   -2.8390 C.3    67  LYS67       0.1093
     65  NZ        21.6830  -36.3530   -2.3830 N.3    67  LYS67      -0.1314
     66  N         12.7620  -38.6510    2.2580 N.3    94  ILE94      -0.1245
     67  CA        13.5120  -39.8610    1.9340 C.3    94  ILE94       0.1561
     68  C         14.0800  -40.4060    3.2440 C.2    94  ILE94       0.2260
     69  O         14.4580  -39.6310    4.1280 O.2    94  ILE94      -0.2867
     70  CB        14.6410  -39.5920    0.8940 C.3    94  ILE94       0.0252
     71  CG1       15.1120  -40.9010    0.2540 C.3    94  ILE94       0.0019
     72  CG2       15.8120  -38.8420    1.5260 C.3    94  ILE94       0.0019
     73  CD1       14.1340  -41.4790   -0.7590 C.3    94  ILE94       0.0001
     74  N         19.7270  -45.2130    0.7310 N.3   112  PHE112     -0.1241
     75  CA        18.3500  -44.7540    0.8920 C.3   112  PHE112      0.1605
     76  C         17.3560  -45.8040    0.4280 C.2   112  PHE112      0.2264
     77  O         17.7290  -46.7860   -0.2070 O.2   112  PHE112     -0.2867
     78  CB        18.1180  -43.4950    0.0600 C.3   112  PHE112      0.0534
     79  CG        18.9180  -42.3130    0.5070 C.ar  112  PHE112     -0.0203
     80  CD1       18.5740  -41.6300    1.6640 C.ar  112  PHE112     -0.0042
     81  CD2       19.9990  -41.8640   -0.2400 C.ar  112  PHE112     -0.0042
     82  CE1       19.3000  -40.5320    2.0780 C.ar  112  PHE112     -0.0003
     83  CE2       20.7320  -40.7640    0.1680 C.ar  112  PHE112     -0.0003
     84  CZ        20.3850  -40.0970    1.3310 C.ar  112  PHE112     -0.0000
     85  N         13.0630  -44.9870   -4.6980 N.3   115  VAL115     -0.1231
     86  CA        11.8620  -44.2400   -5.0660 C.3   115  VAL115      0.1692
     87  C         11.6720  -44.2700   -6.5890 C.2   115  VAL115      0.2592
     88  O         10.9760  -45.1460   -7.1030 O.2   115  VAL115     -0.2718
     89  CB        11.8990  -42.7910   -4.5120 C.3   115  VAL115      0.0266
     90  CG1       10.6310  -42.0340   -4.8990 C.3   115  VAL115      0.0020
     91  CG2       12.0680  -42.8130   -2.9990 C.3   115  VAL115      0.0020
     92  N         12.3030  -43.3370   -7.3000 N.am  116  ASN116     -0.1960
     93  CA        12.1580  -43.2190   -8.7540 C.3   116  ASN116      0.1819
     94  C         13.2010  -42.2770   -9.3470 C.2   116  ASN116      0.2621
     95  O         13.6970  -41.3810   -8.6640 O.2   116  ASN116     -0.2715
     96  CB        10.7560  -42.7070   -9.1180 C.3   116  ASN116      0.1195
     97  CG         9.7490  -43.8280   -9.3030 C.2   116  ASN116      0.2630
     98  OD1        9.7380  -44.5090  -10.3300 O.2   116  ASN116     -0.2716
     99  ND2        8.8930  -44.0220   -8.3060 N.am  116  ASN116     -0.0877
    100  N         13.5210  -42.4930  -10.6210 N.am  117  ASN117     -0.1972
    101  CA        14.3930  -41.5930  -11.3850 C.3   117  ASN117      0.1688
    102  C         13.8030  -40.1910  -11.5390 C.2   117  ASN117      0.2292
    103  O         14.5360  -39.2030  -11.5660 O.2   117  ASN117     -0.2864
    104  CB        14.6650  -42.1610  -12.7940 C.3   117  ASN117      0.1181
    105  CG        15.9500  -42.9710  -12.8750 C.2   117  ASN117      0.2629
    106  OD1       16.9690  -42.6100  -12.2850 O.2   117  ASN117     -0.2716
    107  ND2       15.9140  -44.0590  -13.6390 N.am  117  ASN117     -0.0877
    108  N         11.6350  -35.6420   -5.7610 N.3   162  MET162     -0.1245
    109  CA        11.4160  -36.8410   -6.5660 C.3   162  MET162      0.1570
    110  C          9.9300  -37.1560   -6.5440 C.2   162  MET162      0.2261
    111  O          9.3040  -37.1090   -5.4780 O.2   162  MET162     -0.2867
    112  CB        12.1800  -38.0380   -5.9930 C.3   162  MET162      0.0387
    113  CG        13.6980  -37.9150   -5.9980 C.3   162  MET162      0.0595
    114  SD        14.4270  -38.0540   -7.6450 S.3   162  MET162     -0.1393
    115  CE        14.9470  -36.3630   -7.9040 C.3   162  MET162      0.0692
    116  N         14.4790  -34.7860   -1.3910 N.3   173  ILE173     -0.1245
    117  CA        15.8160  -35.3660   -1.2880 C.3   173  ILE173      0.1561
    118  C         16.8950  -34.3080   -1.0270 C.2   173  ILE173      0.2260
    119  O         16.6090  -33.1070   -0.9480 O.2   173  ILE173     -0.2867
    120  CB        16.1810  -36.1730   -2.5740 C.3   173  ILE173      0.0252
    121  CG1       16.4840  -35.2420   -3.7560 C.3   173  ILE173      0.0019
    122  CG2       15.0550  -37.1360   -2.9330 C.3   173  ILE173      0.0019
    123  CD1       16.8900  -35.9600   -5.0300 C.3   173  ILE173      0.0001
@<TRIPOS>BOND
     1    23    21    1
     2    21    22    1
     3    21    20    2
     4    20    19    1
     5   107   105   am
     6    19    18    1
     7   105   104    1
     8   105   106    2
     9   104   101    1
    10     4     3    2
    11    18    17    1
    12    10     9    1
    13    10    11    1
    14     3     9   am
    15     3     2    1
    16     2     1    1
    17     2     5    1
    18   103   102    2
    19   102   101    1
    20   101   100    1
    21    13    11   am
    22    13    14    1
    23     8     6    1
    24    11    12    2
    25    16    15    2
    26    17    14    1
    27   100    94   am
    28     5     6    1
    29    14    15    1
    30    98    97    2
    31     6     7    1
    32    15    24   am
    33    94    93    1
    34    94    95    2
    35    46    45    2
    36    97    96    1
    37    97    99   am
    38    96    93    1
    39    24    25    1
    40    93    92    1
    41    25    26    1
    42    49    47    1
    43    26    28   am
    44    26    27    2
    45    28    29    1
    46    29    32    1
    47    29    30    1
    48    45    44    1
    49   115   114    1
    50    43    44    1
    51    32    33    1
    52    40    39    2
    53   114   113    1
    54    92    87   am
    55    44    47    1
    56    31    30    2
    57    88    87    2
    58    47    48    1
    59    39    38    1
    60    34    33    1
    61    34    35    1
    62    87    86    1
    63   109   110    1
    64   109   112    1
    65   109   108    1
    66   110   111    2
    67   113   112    1
    68    36    35    1
    69    37    38    1
    70    38    41    1
    71    86    85    1
    72    86    89    1
    73   123   121    1
    74    90    89    1
    75    42    41    1
    76    55    54    1
    77    56    54    1
    78    89    91    1
    79    54    51    1
    80    51    50    1
    81    51    52    1
    82   121   120    1
    83    52    53    2
    84   122   120    1
    85    64    65    1
    86    64    63    1
    87    58    57    1
    88    58    61    1
    89    58    59    1
    90    62    61    1
    91    62    63    1
    92   120   117    1
    93    59    60    2
    94   116   117    1
    95   117   118    1
    96   118   119    2
    97    73    71    1
    98    81    83   ar
    99    81    79   ar
   100    77    76    2
   101    78    79    1
   102    78    75    1
   103    83    84   ar
   104    71    70    1
   105    76    75    1
   106    79    80   ar
   107    74    75    1
   108    70    72    1
   109    70    67    1
   110    84    82   ar
   111    80    82   ar
   112    67    66    1
   113    67    68    1
   114    68    69    2
