@<TRIPOS>MOLECULE
tmp/3rpyA00.pdb
 149 142 0 0 0
SMALL
GASTEIGER

@<TRIPOS>ATOM
      1  N         94.3050   84.6640  -43.1920 N.3    10  ILE10      -0.1245
      2  CA        93.1120   83.8600  -43.4270 C.3    10  ILE10       0.1561
      3  C         93.2900   82.3770  -43.1560 C.2    10  ILE10       0.2260
      4  O         92.3100   81.6430  -43.0370 O.2    10  ILE10      -0.2867
      5  CB        92.5700   84.0440  -44.8700 C.3    10  ILE10       0.0252
      6  CG1       93.6610   83.7680  -45.8960 C.3    10  ILE10       0.0019
      7  CG2       92.0500   85.4560  -45.0500 C.3    10  ILE10       0.0019
      8  CD1       93.2180   84.0330  -47.3230 C.3    10  ILE10       0.0001
      9  N         98.8730   81.8220  -44.6970 N.3    18  VAL18      -0.1245
     10  CA        98.2720   82.4610  -45.8580 C.3    18  VAL18       0.1561
     11  C         97.5100   83.7170  -45.4450 C.2    18  VAL18       0.2260
     12  O         96.7500   83.7130  -44.4770 O.2    18  VAL18      -0.2867
     13  CB        97.3380   81.4770  -46.6090 C.3    18  VAL18       0.0252
     14  CG1       96.2370   80.9900  -45.6850 C.3    18  VAL18       0.0019
     15  CG2       96.7600   82.1490  -47.8470 C.3    18  VAL18       0.0019
     16  N         95.6420   85.6870  -52.4380 N.3    31  ALA31      -0.1245
     17  CA        95.9190   84.8790  -51.2620 C.3    31  ALA31       0.1562
     18  C         97.4370   84.7580  -51.3020 C.2    31  ALA31       0.2260
     19  O         97.9930   84.2000  -52.2450 O.2    31  ALA31      -0.2867
     20  CB        95.3040   83.5310  -51.3980 C.3    31  ALA31       0.0290
     21  N        100.7520   83.2600  -49.6260 N.3    33  LYS33      -0.1245
     22  CA       101.2290   82.2330  -48.7160 C.3    33  LYS33       0.1561
     23  C        102.7180   82.4160  -48.4270 C.2    33  LYS33       0.2260
     24  O        103.5460   82.3650  -49.3340 O.2    33  LYS33      -0.2867
     25  CB       100.9750   80.8500  -49.3250 C.3    33  LYS33       0.0271
     26  CG       101.1870   79.6790  -48.3720 C.3    33  LYS33       0.0035
     27  CD       100.8780   78.3520  -49.0680 C.3    33  LYS33       0.0206
     28  CE       100.9000   77.1840  -48.0880 C.3    33  LYS33       0.1093
     29  NZ       100.7080   75.8660  -48.7820 N.3    33  LYS33      -0.1314
     30  N         93.0200   75.8710  -57.5430 N.3    56  VAL56      -0.1245
     31  CA        93.3050   77.2850  -57.2490 C.3    56  VAL56       0.1561
     32  C         94.5490   77.6990  -58.0660 C.2    56  VAL56       0.2260
     33  O         95.5950   77.0430  -58.0100 O.2    56  VAL56      -0.2867
     34  CB        93.5780   77.5080  -55.7270 C.3    56  VAL56       0.0252
     35  CG1       93.9720   78.9490  -55.4650 C.3    56  VAL56       0.0019
     36  CG2       92.3290   77.1990  -54.9160 C.3    56  VAL56       0.0019
     37  N         98.3600   83.2740  -54.8750 N.3    72  PHE72      -0.1227
     38  CA        97.2730   82.5170  -55.4610 C.3    72  PHE72       0.1736
     39  C         96.0860   83.4200  -55.7280 C.2    72  PHE72       0.2595
     40  O         95.9340   84.4780  -55.1290 O.2    72  PHE72      -0.2718
     41  CB        96.8160   81.4220  -54.4970 C.3    72  PHE72       0.0547
     42  CG        97.8180   80.3370  -54.2720 C.ar   72  PHE72      -0.0202
     43  CD1       97.8850   79.2440  -55.1300 C.ar   72  PHE72      -0.0042
     44  CD2       98.6670   80.3830  -53.1760 C.ar   72  PHE72      -0.0042
     45  CE1       98.7850   78.2040  -54.8920 C.ar   72  PHE72      -0.0003
     46  CE2       99.5640   79.3550  -52.9310 C.ar   72  PHE72      -0.0003
     47  CZ        99.6210   78.2590  -53.7950 C.ar   72  PHE72      -0.0000
     48  N         95.2420   82.9940  -56.6480 N.am   73  GLU73      -0.1965
     49  CA        94.0290   83.7340  -56.9190 C.3    73  GLU73       0.1733
     50  C         93.2790   83.6060  -55.5840 C.2    73  GLU73       0.2616
     51  O         93.3780   82.5770  -54.8980 O.2    73  GLU73      -0.2715
     52  CB        93.2420   83.0430  -58.0200 C.3    73  GLU73       0.0429
     53  CG        92.8550   81.6150  -57.6700 C.3    73  GLU73       0.1163
     54  CD        91.8670   81.0240  -58.6580 C.2    73  GLU73       0.3649
     55  OE1       90.8650   81.6930  -58.9770 O.co2  73  GLU73      -0.2457
     56  OE2       92.0760   79.8920  -59.1130 O.co2  73  GLU73      -0.2457
     57  N         92.5360   84.6350  -55.2160 N.am   74  PHE74      -0.1960
     58  CA        91.8020   84.6230  -53.9640 C.3    74  PHE74       0.1771
     59  C         90.3940   84.0840  -54.1240 C.2    74  PHE74       0.2619
     60  O         89.6450   84.5140  -55.0040 O.2    74  PHE74      -0.2715
     61  CB        91.7410   86.0360  -53.3950 C.3    74  PHE74       0.0574
     62  CG        90.9140   86.1550  -52.1500 C.ar   74  PHE74      -0.0200
     63  CD1       89.5860   86.5780  -52.2180 C.ar   74  PHE74      -0.0042
     64  CD2       91.4640   85.8470  -50.9050 C.ar   74  PHE74      -0.0042
     65  CE1       88.8210   86.6910  -51.0670 C.ar   74  PHE74      -0.0003
     66  CE2       90.7160   85.9540  -49.7520 C.ar   74  PHE74      -0.0003
     67  CZ        89.3870   86.3790  -49.8280 C.ar   74  PHE74      -0.0000
     68  N         90.0480   83.1190  -53.2850 N.am   75  LEU75      -0.1963
     69  CA        88.7160   82.5610  -53.3280 C.3    75  LEU75       0.1728
     70  C         87.9750   83.0550  -52.1060 C.2    75  LEU75       0.2616
     71  O         88.5560   83.3830  -51.0770 O.2    75  LEU75      -0.2715
     72  CB        88.7540   81.0330  -53.4360 C.3    75  LEU75       0.0311
     73  CG        88.6580   80.7480  -54.9400 C.3    75  LEU75       0.0022
     74  CD1       90.0400   80.4780  -55.4950 C.3    75  LEU75       0.0001
     75  CD2       87.7110   79.5890  -55.2140 C.3    75  LEU75       0.0001
     76  N         86.6670   83.1200  -52.2670 N.am   76  HIS76      -0.1959
     77  CA        85.7500   83.6580  -51.2960 C.3    76  HIS76       0.1787
     78  C         85.6490   83.0100  -49.9240 C.2    76  HIS76       0.2620
     79  O         85.6330   83.7020  -48.9100 O.2    76  HIS76      -0.2715
     80  CB        84.3510   83.6830  -51.9420 C.3    76  HIS76       0.0785
     81  CG        84.3270   84.1800  -53.3660 C.ar   76  HIS76       0.0821
     82  ND1       85.4570   84.5990  -54.0410 N.ar   76  HIS76      -0.2267
     83  CD2       83.2870   84.3660  -54.2210 C.ar   76  HIS76       0.1154
     84  CE1       85.1150   85.0260  -55.2460 C.ar   76  HIS76       0.1986
     85  NE2       83.8020   84.8920  -55.3790 N.ar   76  HIS76      -0.2212
     86  N         85.5890   81.6840  -49.8800 N.am   77  GLN77      -0.1963
     87  CA        85.3850   80.9940  -48.6020 C.3    77  GLN77       0.1733
     88  C         85.8950   79.5660  -48.7140 C.2    77  GLN77       0.2616
     89  O         86.0810   79.0740  -49.8290 O.2    77  GLN77      -0.2715
     90  CB        83.8690   80.9770  -48.3280 C.3    77  GLN77       0.0408
     91  CG        83.3940   80.4210  -46.9960 C.3    77  GLN77       0.0908
     92  CD        81.9700   80.8830  -46.6690 C.2    77  GLN77       0.2608
     93  OE1       81.7390   82.0570  -46.3650 O.2    77  GLN77      -0.2717
     94  NE2       81.0150   79.9690  -46.7470 N.am   77  GLN77      -0.0878
     95  N         86.1470   78.9050  -47.5790 N.am   78  ASP78      -0.1971
     96  CA        86.5790   77.5140  -47.6660 C.3    78  ASP78       0.1709
     97  C         85.3890   76.6280  -47.3140 C.2    78  ASP78       0.2293
     98  O         84.3990   77.1010  -46.7520 O.2    78  ASP78      -0.2864
     99  CB        87.8060   77.1970  -46.7820 C.3    78  ASP78       0.1436
    100  CG        87.5430   77.3290  -45.2850 C.2    78  ASP78       0.3671
    101  OD1       86.5570   76.7570  -44.7690 O.co2  78  ASP78      -0.2456
    102  OD2       88.3600   77.9930  -44.6080 O.co2  78  ASP78      -0.2456
    103  N         84.1900   76.3760  -43.4870 N.3    81  LYS81      -0.1245
    104  CA        83.3220   77.4500  -43.0400 C.3    81  LYS81       0.1561
    105  C         81.9260   77.2820  -43.6220 C.2    81  LYS81       0.2260
    106  O         80.9270   77.4760  -42.9190 O.2    81  LYS81      -0.2867
    107  CB        83.8890   78.8110  -43.4460 C.3    81  LYS81       0.0271
    108  CG        83.0030   79.9780  -43.0370 C.3    81  LYS81       0.0035
    109  CD        83.7790   81.2880  -43.1210 C.3    81  LYS81       0.0206
    110  CE        83.0080   82.4430  -42.5250 C.3    81  LYS81       0.1093
    111  NZ        83.7940   83.7240  -42.6320 N.3    81  LYS81      -0.1314
    112  N         89.1690   72.5960  -45.0710 N.3   123  GLN123     -0.1231
    113  CA        89.8500   73.8880  -45.0620 C.3   123  GLN123      0.1698
    114  C         90.6330   74.2280  -46.3290 C.2   123  GLN123      0.2592
    115  O         90.9040   75.4030  -46.5780 O.2   123  GLN123     -0.2718
    116  CB        90.7900   74.0040  -43.8680 C.3   123  GLN123      0.0381
    117  CG        90.0890   74.0550  -42.5350 C.3   123  GLN123      0.0905
    118  CD        91.0250   74.4940  -41.4310 C.2   123  GLN123      0.2608
    119  OE1       92.1890   74.0660  -41.3810 O.2   123  GLN123     -0.2717
    120  NE2       90.5290   75.3470  -40.5330 N.am  123  GLN123     -0.0878
    121  N         91.0420   73.2390  -47.1170 N.am  124  ASN124     -0.1974
    122  CA        91.7440   73.6110  -48.3480 C.3   124  ASN124      0.1688
    123  C         90.9430   73.3750  -49.6330 C.2   124  ASN124      0.2292
    124  O         91.5090   73.2170  -50.7210 O.2   124  ASN124     -0.2864
    125  CB        93.1350   72.9710  -48.4460 C.3   124  ASN124      0.1181
    126  CG        93.1170   71.5040  -48.2260 C.2   124  ASN124      0.2629
    127  OD1       92.2990   70.7950  -48.8010 O.2   124  ASN124     -0.2716
    128  ND2       94.0410   71.0200  -47.4000 N.am  124  ASN124     -0.0877
    129  N         88.2150   75.3540  -51.6440 N.3   126  LEU126     -0.1245
    130  CA        87.7260   76.7210  -51.6660 C.3   126  LEU126      0.1561
    131  C         86.6100   76.9200  -52.6500 C.2   126  LEU126      0.2260
    132  O         86.6540   76.3810  -53.7430 O.2   126  LEU126     -0.2867
    133  CB        88.8800   77.6470  -52.0030 C.3   126  LEU126      0.0270
    134  CG        90.1100   77.3700  -51.1420 C.3   126  LEU126      0.0019
    135  CD1       91.2600   78.2300  -51.6430 C.3   126  LEU126      0.0001
    136  CD2       89.7860   77.6560  -49.6540 C.3   126  LEU126      0.0001
    137  N         93.1330   73.5880  -53.1100 N.3   136  ALA136     -0.1231
    138  CA        94.1710   74.5320  -52.7130 C.3   136  ALA136      0.1694
    139  C         95.1540   73.8690  -51.7530 C.2   136  ALA136      0.2592
    140  O         94.9440   72.7460  -51.3220 O.2   136  ALA136     -0.2718
    141  CB        93.5490   75.7420  -52.0440 C.3   136  ALA136      0.0304
    142  N         96.2350   74.5710  -51.4300 N.am  137  ASP137     -0.1974
    143  CA        97.2220   74.0560  -50.4900 C.3   137  ASP137      0.1709
    144  C         97.7580   72.6760  -50.8110 C.2   137  ASP137      0.2293
    145  O         97.7870   71.8110  -49.9410 O.2   137  ASP137     -0.2864
    146  CB        96.6300   73.9950  -49.0870 C.3   137  ASP137      0.1436
    147  CG        96.3230   75.3490  -48.5340 C.2   137  ASP137      0.3671
    148  OD1       96.7350   76.3520  -49.1570 O.co2 137  ASP137     -0.2456
    149  OD2       95.6750   75.4020  -47.4670 O.co2 137  ASP137     -0.2456
@<TRIPOS>BOND
     1    56    54   ar
     2    55    54   ar
     3    54    53    1
     4    32    33    2
     5    32    31    1
     6    52    53    1
     7    52    49    1
     8    30    31    1
     9    31    34    1
    10    49    48    1
    11    49    50    1
    12    48    39   am
    13    39    38    1
    14    39    40    2
    15    34    35    1
    16    34    36    1
    17    50    57   am
    18    50    51    2
    19    74    73    1
    20    38    37    1
    21    38    41    1
    22    85    84   ar
    23    85    83   ar
    24    84    82   ar
    25    57    58    1
    26    75    73    1
    27    43    45   ar
    28    43    42   ar
    29    60    59    2
    30    73    72    1
    31    45    47   ar
    32    41    42    1
    33    42    44   ar
    34    83    81   ar
    35    59    58    1
    36    59    68   am
    37    82    81   ar
    38    58    61    1
    39    47    46   ar
    40   132   131    2
    41    72    69    1
    42    61    62    1
    43    81    80    1
    44    69    68    1
    45    69    70    1
    46    44    46   ar
    47   137   138    1
    48   138   141    1
    49   138   139    1
    50   131   130    1
    51    16    17    1
    52    76    70   am
    53    76    77    1
    54    19    18    2
    55    63    62   ar
    56    63    65   ar
    57    62    64   ar
    58    70    71    2
    59   133   130    1
    60   133   134    1
    61    80    77    1
    62   139   142   am
    63   139   140    2
    64   130   129    1
    65   135   134    1
    66   142   143    1
    67    20    17    1
    68    18    17    1
    69    77    78    1
    70   134   136    1
    71    65    67   ar
    72    64    66   ar
    73   144   143    1
    74   144   145    2
    75   124   123    2
    76   143   146    1
    77    78    86   am
    78    78    79    2
    79    86    87    1
    80    89    88    2
    81    67    66   ar
    82   123   122    1
    83    21    22    1
    84    24    23    2
    85    25    22    1
    86    25    26    1
    87   148   147   ar
    88   146   147    1
    89    27    26    1
    90    27    28    1
    91   127   126    2
    92    29    28    1
    93    22    23    1
    94    88    87    1
    95    88    95   am
    96    87    90    1
    97   147   149   ar
    98   125   122    1
    99   125   126    1
   100   122   121    1
   101    90    91    1
   102   126   128   am
   103    15    13    1
   104    96    95    1
   105    96    97    1
   106    96    99    1
   107     8     6    1
   108    97    98    2
   109   121   114   am
   110    91    92    1
   111    99   100    1
   112    94    92   am
   113    92    93    2
   114    13    10    1
   115    13    14    1
   116   115   114    2
   117   114   113    1
   118     6     5    1
   119    10    11    1
   120    10     9    1
   121    11    12    2
   122   100   101   ar
   123   100   102   ar
   124   112   113    1
   125   113   116    1
   126     7     5    1
   127     5     2    1
   128   116   117    1
   129   105   104    1
   130   105   106    2
   131   103   104    1
   132   107   104    1
   133   107   108    1
   134     2     1    1
   135     2     3    1
   136     3     4    2
   137   109   108    1
   138   109   110    1
   139   111   110    1
   140   117   118    1
   141   118   119    2
   142   118   120   am
