@<TRIPOS>MOLECULE
tmp/3rpzA01.pdb
 127 117 0 0 0
SMALL
GASTEIGER

@<TRIPOS>ATOM
      1  N          7.9310  -13.2930  -11.3780 N.3    40  MET40      -0.1245
      2  CA         7.6190  -13.7420  -12.7570 C.3    40  MET40       0.1570
      3  C          6.1580  -13.4480  -13.0890 C.2    40  MET40       0.2261
      4  O          5.3680  -14.3650  -13.3990 O.2    40  MET40      -0.2867
      5  CB         7.9120  -15.2500  -13.0090 C.3    40  MET40       0.0387
      6  CG         9.2840  -15.6630  -12.5750 C.3    40  MET40       0.0595
      7  SD         9.4790  -17.4820  -12.7950 S.3    40  MET40      -0.1393
      8  CE         8.7490  -18.1100  -11.2830 C.3    40  MET40       0.0692
      9  N          4.9860  -11.6030  -15.6430 N.3    42  GLY42      -0.1210
     10  CA         4.6840  -11.4600  -17.0470 C.3    42  GLY42       0.1956
     11  C          4.2010  -12.7280  -17.7170 C.2    42  GLY42       0.2611
     12  O          3.4130  -12.6260  -18.6510 O.2    42  GLY42      -0.2717
     13  N          4.6500  -13.8760  -17.2500 N.am   43  ALA43      -0.1979
     14  CA         4.1640  -15.1360  -17.8050 C.3    43  ALA43       0.1597
     15  C          2.6520  -15.2440  -17.7710 C.2    43  ALA43       0.2287
     16  O          2.0620  -15.9010  -18.6620 O.2    43  ALA43      -0.2864
     17  CB         4.7960  -16.3330  -17.0740 C.3    43  ALA43       0.0319
     18  N          1.4120  -13.1370  -20.6820 N.3    46  LEU46      -0.1245
     19  CA         1.7150  -13.8170  -21.9100 C.3    46  LEU46       0.1561
     20  C          0.7650  -14.9720  -22.1970 C.2    46  LEU46       0.2260
     21  O          0.2040  -15.1070  -23.2720 O.2    46  LEU46      -0.2867
     22  CB         3.1640  -14.2850  -21.9050 C.3    46  LEU46       0.0270
     23  CG         4.2160  -13.1860  -21.9230 C.3    46  LEU46       0.0019
     24  CD1        5.5810  -13.8550  -21.7290 C.3    46  LEU46       0.0001
     25  CD2        4.1770  -12.3850  -23.2050 C.3    46  LEU46       0.0001
     26  N          5.2760  -19.1780  -14.9290 N.3   105  GLY105     -0.1210
     27  CA         5.6530  -18.2220  -13.8790 C.3   105  GLY105      0.1956
     28  C          5.3250  -18.5840  -12.4700 C.2   105  GLY105      0.2611
     29  O          5.3260  -17.7420  -11.5890 O.2   105  GLY105     -0.2717
     30  N          5.0440  -19.8650  -12.2250 N.am  106  LEU106     -0.1979
     31  CA         4.8120  -20.3480  -10.8650 C.3   106  LEU106      0.1596
     32  C          6.0820  -21.0000  -10.3550 C.2   106  LEU106      0.2287
     33  O          6.7370  -21.7210  -11.0920 O.2   106  LEU106     -0.2864
     34  CB         3.6450  -21.3870  -10.7980 C.3   106  LEU106      0.0297
     35  CG         2.2930  -20.8590  -11.2650 C.3   106  LEU106      0.0022
     36  CD1        1.2350  -21.9220  -10.8800 C.3   106  LEU106      0.0001
     37  CD2        1.9550  -19.5290  -10.6170 C.3   106  LEU106      0.0001
     38  N          5.8560  -25.6210  -17.0600 N.3   130  ALA130     -0.1231
     39  CA         6.7440  -24.7470  -16.2480 C.3   130  ALA130      0.1694
     40  C          6.7990  -25.1850  -14.7780 C.2   130  ALA130      0.2592
     41  O          7.1990  -26.3050  -14.5170 O.2   130  ALA130     -0.2718
     42  CB         6.3240  -23.2640  -16.4510 C.3   130  ALA130      0.0304
     43  N          6.4380  -24.3230  -13.8410 N.am  131  GLY131     -0.1957
     44  CA         6.5340  -24.6580  -12.4300 C.3   131  GLY131      0.1869
     45  C          5.6280  -25.7660  -11.9630 C.2   131  GLY131      0.2309
     46  O          5.8310  -26.2700  -10.8710 O.2   131  GLY131     -0.2863
     47  N          9.9290  -28.1520  -22.1390 N.3   150  HIS150     -0.1227
     48  CA        11.1410  -28.0980  -22.9380 C.3   150  HIS150      0.1737
     49  C         12.0870  -29.1930  -22.4670 C.2   150  HIS150      0.2438
     50  O         11.8250  -29.8920  -21.4750 O.2   150  HIS150     -0.2733
     51  CB        11.7620  -26.6990  -22.9350 C.3   150  HIS150      0.0758
     52  CG        12.1960  -26.2060  -21.5960 C.ar  150  HIS150      0.0818
     53  ND1       12.9970  -26.9290  -20.7190 N.ar  150  HIS150     -0.2268
     54  CD2       12.0060  -24.9940  -21.0270 C.ar  150  HIS150      0.1154
     55  CE1       13.2000  -26.1910  -19.6300 C.ar  150  HIS150      0.1986
     56  NE2       12.6310  -24.9990  -19.8030 N.ar  150  HIS150     -0.2212
     57  N         13.1960  -29.4270  -23.1640 N.am  151  PRO151     -0.2718
     58  CA        14.0600  -30.5640  -22.7880 C.3   151  PRO151      0.1535
     59  C         14.5770  -30.5380  -21.3270 C.2   151  PRO151      0.2599
     60  O         14.7350  -31.5760  -20.7390 O.2   151  PRO151     -0.2715
     61  CB        15.1880  -30.4860  -23.8300 C.3   151  PRO151      0.0310
     62  CG        14.4760  -30.0060  -25.0290 C.3   151  PRO151      0.0237
     63  CD        13.4980  -28.9530  -24.5170 C.3   151  PRO151      0.0939
     64  N         14.8180  -29.3480  -20.7440 N.am  152  GLY152     -0.1941
     65  CA        15.2220  -29.2480  -19.3620 C.3   152  GLY152      0.2014
     66  C         14.1320  -29.7470  -18.4310 C.2   152  GLY152      0.2638
     67  O         14.3990  -30.4560  -17.4430 O.2   152  GLY152     -0.2714
     68  N         12.8990  -29.3780  -18.7090 N.am  153  GLU153     -0.1977
     69  CA        11.7610  -29.8060  -17.9210 C.3   153  GLU153      0.1602
     70  C         11.5440  -31.3100  -18.0960 C.2   153  GLU153      0.2287
     71  O         11.1560  -31.9950  -17.1450 O.2   153  GLU153     -0.2864
     72  CB        10.5070  -29.0070  -18.2940 C.3   153  GLU153      0.0415
     73  CG        10.5700  -27.6030  -17.7310 C.3   153  GLU153      0.1163
     74  CD         9.7710  -26.5550  -18.4250 C.2   153  GLU153      0.3649
     75  OE1        9.3400  -26.7330  -19.5820 O.co2 153  GLU153     -0.2457
     76  OE2        9.5960  -25.4470  -17.8240 O.co2 153  GLU153     -0.2457
     77  N         13.8040  -33.0150  -15.8080 N.3   156  ARG156     -0.1245
     78  CA        13.2750  -32.9710  -14.4590 C.3   156  ARG156      0.1563
     79  C         12.1630  -34.0090  -14.2400 C.2   156  ARG156      0.2260
     80  O         12.0740  -34.6060  -13.1970 O.2   156  ARG156     -0.2867
     81  CB        12.7440  -31.5700  -14.1350 C.3   156  ARG156      0.0307
     82  CG        12.1580  -31.4530  -12.7550 C.3   156  ARG156      0.0489
     83  CD        12.0350  -30.0070  -12.3150 C.3   156  ARG156      0.2205
     84  NE        10.8450  -29.3620  -12.8390 N.pl3 156  ARG156     -0.0865
     85  CZ        10.8590  -28.2890  -13.6140 C.cat 156  ARG156      0.5346
     86  NH1       12.0000  -27.7500  -13.9790 N.pl3 156  ARG156      0.1354
     87  NH2        9.7290  -27.7680  -14.0280 N.pl3 156  ARG156      0.1354
     88  N         19.4270  -34.2960  -20.8560 N.3   162  VAL162     -0.1245
     89  CA        19.1220  -33.5080  -22.0160 C.3   162  VAL162      0.1561
     90  C         19.9380  -33.9570  -23.2230 C.2   162  VAL162      0.2260
     91  O         19.4170  -34.0960  -24.3190 O.2   162  VAL162     -0.2867
     92  CB        19.3080  -31.9790  -21.7410 C.3   162  VAL162      0.0252
     93  CG1       19.1640  -31.2270  -23.0390 C.3   162  VAL162      0.0019
     94  CG2       18.3320  -31.4630  -20.6650 C.3   162  VAL162      0.0019
     95  N         17.9540  -35.3640  -26.5630 N.3   166  GLN166     -0.1245
     96  CA        17.9470  -34.6100  -27.8050 C.3   166  GLN166      0.1566
     97  C         18.3940  -35.4400  -29.0070 C.2   166  GLN166      0.2260
     98  O         18.1610  -35.0300  -30.1590 O.2   166  GLN166     -0.2867
     99  CB        18.7330  -33.2890  -27.6310 C.3   166  GLN166      0.0367
    100  CG        18.0290  -32.2520  -26.7240 C.3   166  GLN166      0.0905
    101  CD        16.7270  -31.7440  -27.3410 C.2   166  GLN166      0.2608
    102  OE1       15.6770  -32.3310  -27.1740 O.2   166  GLN166     -0.2717
    103  NE2       16.8440  -30.7150  -28.1600 N.am  166  GLN166     -0.0878
    104  N         11.0030  -27.5530  -28.6940 N.3   188  GLY188     -0.1225
    105  CA        12.2280  -27.4390  -29.4380 C.3   188  GLY188      0.1811
    106  C         11.9560  -27.2670  -30.9060 C.2   188  GLY188      0.2280
    107  O         10.8190  -27.3370  -31.3570 O.2   188  GLY188     -0.2866
    108  N         12.8320  -15.7960  -23.8880 N.3   213  GLY213     -0.1210
    109  CA        11.9200  -15.8980  -22.7640 C.3   213  GLY213      0.1956
    110  C         10.4970  -15.4780  -23.0970 C.2   213  GLY213      0.2612
    111  O         10.2550  -14.4110  -23.6570 O.2   213  GLY213     -0.2717
    112  N          9.5720  -16.3210  -22.6080 N.am  214  GLY214     -0.1956
    113  CA         8.1700  -16.0390  -22.7080 C.3   214  GLY214      0.1869
    114  C          7.4330  -16.7980  -23.7620 C.2   214  GLY214      0.2309
    115  O          6.2060  -16.9180  -23.7310 O.2   214  GLY214     -0.2863
    116  N          7.2130  -19.9330  -24.5890 N.3   216  GLY216     -0.1210
    117  CA         6.5100  -21.0960  -24.1380 C.3   216  GLY216      0.1956
    118  C          5.3310  -20.7760  -23.2370 C.2   216  GLY216      0.2611
    119  O          4.3530  -21.5060  -23.1900 O.2   216  GLY216     -0.2717
    120  N          5.4160  -19.6380  -22.5520 N.am  217  ASP217     -0.1973
    121  CA         4.3050  -19.1650  -21.7360 C.3   217  ASP217      0.1709
    122  C          3.1260  -18.8050  -22.6410 C.2   217  ASP217      0.2293
    123  O          1.9590  -19.1580  -22.3710 O.2   217  ASP217     -0.2864
    124  CB         4.7660  -18.0090  -20.8350 C.3   217  ASP217      0.1436
    125  CG         5.9480  -18.3540  -20.0020 C.2   217  ASP217      0.3671
    126  OD1        5.9900  -19.4750  -19.4080 O.co2 217  ASP217     -0.2456
    127  OD2        6.8800  -17.5180  -19.9070 O.co2 217  ASP217     -0.2456
@<TRIPOS>BOND
     1   107   106    2
     2   106   105    1
     3    98    97    2
     4   105   104    1
     5    97    96    1
     6   103   101   am
     7    96    99    1
     8    96    95    1
     9    99   100    1
    10   101   102    2
    11   101   100    1
    12    62    63    1
    13    62    61    1
    14   116   117    1
    15    63    57    1
    16    91    90    2
    17   117   118    1
    18   108   109    1
    19    61    58    1
    20   114   115    2
    21   114   113    1
    22   111   110    2
    23    21    20    2
    24   118   119    2
    25   118   120   am
    26    90    89    1
    27    25    23    1
    28    57    58    1
    29    57    49   am
    30   110   109    1
    31   110   112   am
    32    93    92    1
    33    48    51    1
    34    48    49    1
    35    48    47    1
    36    51    52    1
    37    58    59    1
    38   113   112    1
    39   122   123    2
    40   122   121    1
    41   120   121    1
    42    49    50    2
    43    20    19    1
    44    89    92    1
    45    89    88    1
    46    23    22    1
    47    23    24    1
    48    19    22    1
    49    19    18    1
    50    92    94    1
    51   121   124    1
    52    52    54   ar
    53    52    53   ar
    54    59    64   am
    55    59    60    2
    56    54    56   ar
    57   124   125    1
    58    64    65    1
    59    53    55   ar
    60   125   127   ar
    61   125   126   ar
    62    56    55   ar
    63    75    74   ar
    64    65    66    1
    65    68    66   am
    66    68    69    1
    67    16    15    2
    68    12    11    2
    69    66    67    2
    70    74    76   ar
    71    74    73    1
    72    72    69    1
    73    72    73    1
    74    70    69    1
    75    70    71    2
    76    14    15    1
    77    14    13    1
    78    14    17    1
    79    11    13   am
    80    11    10    1
    81    38    39    1
    82    10     9    1
    83    42    39    1
    84    39    40    1
    85    77    78    1
    86    26    27    1
    87    40    41    2
    88    40    43   am
    89    78    79    1
    90    78    81    1
    91    79    80    2
    92    81    82    1
    93    87    85    1
    94    86    85    1
    95    27    28    1
    96    43    44    1
    97    85    84    2
    98     4     3    2
    99     3     2    1
   100     5     2    1
   101     5     6    1
   102    84    83    1
   103     7     6    1
   104     7     8    1
   105     2     1    1
   106    82    83    1
   107    28    30   am
   108    28    29    2
   109    44    45    1
   110    30    31    1
   111    45    46    2
   112    35    36    1
   113    35    34    1
   114    35    37    1
   115    33    32    2
   116    31    34    1
   117    31    32    1
