@<TRIPOS>MOLECULE
tmp/3rq0A06.pdb
 110 107 0 0 0
SMALL
GASTEIGER

@<TRIPOS>ATOM
      1  N         47.2460   26.0210    7.3450 N.3   114  GLU114     -0.1245
      2  CA        46.5240   24.9970    8.0840 C.3   114  GLU114      0.1567
      3  C         45.1000   25.4790    8.3320 C.2   114  GLU114      0.2260
      4  O         44.8830   26.6410    8.6810 O.2   114  GLU114     -0.2867
      5  CB        47.2190   24.7270    9.4160 C.3   114  GLU114      0.0388
      6  CG        46.6230   23.5690   10.1940 C.3   114  GLU114      0.1160
      7  CD        47.4990   23.1430   11.3620 C.2   114  GLU114      0.3649
      8  OE1       48.7200   22.9550   11.1600 O.co2 114  GLU114     -0.2457
      9  OE2       46.9640   23.0010   12.4810 O.co2 114  GLU114     -0.2457
     10  N         38.7960   22.1340   16.7740 N.3   119  GLU119     -0.1245
     11  CA        39.5830   21.5180   17.8360 C.3   119  GLU119      0.1567
     12  C         38.8610   21.7640   19.1420 C.2   119  GLU119      0.2260
     13  O         38.2880   22.8290   19.3390 O.2   119  GLU119     -0.2867
     14  CB        40.9520   22.1770   17.9490 C.3   119  GLU119      0.0388
     15  CG        41.7760   22.1490   16.7020 C.3   119  GLU119      0.1160
     16  CD        43.1330   22.7570   16.9380 C.2   119  GLU119      0.3649
     17  OE1       43.3730   23.9000   16.4830 O.co2 119  GLU119     -0.2457
     18  OE2       43.9480   22.1020   17.6110 O.co2 119  GLU119     -0.2457
     19  N         39.6930   21.5410   23.3560 N.3   121  TYR121     -0.1241
     20  CA        40.8450   21.4280   24.2460 C.3   121  TYR121      0.1605
     21  C         40.4480   20.9580   25.6350 C.2   121  TYR121      0.2264
     22  O         39.5660   21.5430   26.2640 O.2   121  TYR121     -0.2867
     23  CB        41.5470   22.7800   24.3650 C.3   121  TYR121      0.0534
     24  CG        41.9630   23.3700   23.0400 C.ar  121  TYR121     -0.0201
     25  CD1       43.0450   22.8520   22.3390 C.ar  121  TYR121     -0.0009
     26  CD2       41.2880   24.4590   22.4990 C.ar  121  TYR121     -0.0009
     27  CE1       43.4390   23.3930   21.1270 C.ar  121  TYR121      0.0417
     28  CE2       41.6710   25.0070   21.2880 C.ar  121  TYR121      0.0417
     29  CZ        42.7460   24.4690   20.6060 C.ar  121  TYR121      0.1957
     30  OH        43.1320   25.0090   19.4040 O.3   121  TYR121     -0.2866
     31  N         41.7330   26.5890   27.2880 N.3   126  TRP126     -0.1228
     32  CA        41.4990   27.0520   25.9250 C.3   126  TRP126      0.1722
     33  C         40.0820   26.7440   25.4470 C.2   126  TRP126      0.2437
     34  O         39.6100   25.6100   25.5660 O.2   126  TRP126     -0.2733
     35  CB        42.5170   26.4310   24.9690 C.3   126  TRP126      0.0563
     36  CG        43.9470   26.7680   25.2810 C.ar  126  TRP126      0.0003
     37  CD1       44.4000   27.6740   26.1990 C.ar  126  TRP126      0.0946
     38  CD2       45.1120   26.1890   24.6800 C.ar  126  TRP126      0.0152
     39  NE1       45.7750   27.6990   26.2000 N.ar  126  TRP126     -0.2442
     40  CE2       46.2360   26.7960   25.2770 C.ar  126  TRP126      0.0810
     41  CE3       45.3120   25.2150   23.6930 C.ar  126  TRP126      0.0012
     42  CZ2       47.5420   26.4650   24.9180 C.ar  126  TRP126      0.0191
     43  CZ3       46.6070   24.8910   23.3360 C.ar  126  TRP126      0.0001
     44  CH2       47.7070   25.5120   23.9490 C.ar  126  TRP126      0.0015
     45  N         39.3890   27.7610   24.9150 N.am  127  PRO127     -0.2729
     46  CA        38.0590   27.5290   24.3430 C.3   127  PRO127      0.1401
     47  C         38.1790   26.7790   23.0220 C.2   127  PRO127      0.2269
     48  O         39.1670   26.9730   22.2970 O.2   127  PRO127     -0.2865
     49  CB        37.5310   28.9500   24.1020 C.3   127  PRO127      0.0296
     50  CG        38.7590   29.7890   23.9550 C.3   127  PRO127      0.0237
     51  CD        39.7650   29.1900   24.8970 C.3   127  PRO127      0.0939
     52  N         37.5940   25.9130   19.1660 N.3   129  ALA129     -0.1245
     53  CA        37.6370   26.9390   18.1310 C.3   129  ALA129      0.1562
     54  C         38.0000   26.4060   16.7580 C.2   129  ALA129      0.2260
     55  O         38.5480   25.3120   16.6220 O.2   129  ALA129     -0.2867
     56  CB        38.6330   28.0300   18.5340 C.3   129  ALA129      0.0290
     57  N         40.2860   27.5660   13.4220 N.3   131  THR131     -0.1218
     58  CA        41.4070   28.4750   13.1810 C.3   131  THR131      0.1862
     59  C         42.0030   28.3470   11.7770 C.2   131  THR131      0.2287
     60  O         42.1570   27.2530   11.2560 O.2   131  THR131     -0.2866
     61  CB        42.5160   28.2800   14.2300 C.3   131  THR131      0.1770
     62  OG1       41.9400   28.2720   15.5440 O.3   131  THR131     -0.2211
     63  CG2       43.5300   29.3940   14.1420 C.3   131  THR131      0.0375
     64  N         45.4390   29.2080    9.7610 N.3   133  HIS133     -0.1241
     65  CA        46.8450   29.6120    9.8960 C.3   133  HIS133      0.1621
     66  C         47.4850   29.8400    8.5330 C.2   133  HIS133      0.2264
     67  O         47.2660   29.0690    7.5960 O.2   133  HIS133     -0.2867
     68  CB        47.6940   28.5160   10.5700 C.3   133  HIS133      0.0745
     69  CG        47.2860   28.1790   11.9710 C.ar  133  HIS133      0.0817
     70  ND1       47.8900   28.7390   13.0750 N.ar  133  HIS133     -0.2268
     71  CD2       46.3630   27.3100   12.4480 C.ar  133  HIS133      0.1154
     72  CE1       47.3460   28.2440   14.1720 C.ar  133  HIS133      0.1986
     73  NE2       46.4200   27.3700   13.8200 N.ar  133  HIS133     -0.2212
     74  N         55.4660   28.9290   10.6670 N.3   137  ASN137     -0.1225
     75  CA        55.2270   28.4770   12.0370 C.3   137  ASN137      0.1785
     76  C         53.7570   28.5540   12.4370 C.2   137  ASN137      0.2598
     77  O         53.3980   28.2500   13.5770 O.2   137  ASN137     -0.2718
     78  CB        56.0880   29.2630   13.0330 C.3   137  ASN137      0.1169
     79  CG        55.8610   30.7640   12.9490 C.2   137  ASN137      0.2627
     80  OD1       55.0840   31.2420   12.1220 O.2   137  ASN137     -0.2716
     81  ND2       56.5340   31.5130   13.8160 N.am  137  ASN137     -0.0877
     82  N         52.9130   28.9580   11.4900 N.am  138  GLY138     -0.1942
     83  CA        51.4970   29.1460   11.7510 C.3   138  GLY138      0.2014
     84  C         51.2500   30.3510   12.6410 C.2   138  GLY138      0.2639
     85  O         50.1850   30.4670   13.2550 O.2   138  GLY138     -0.2714
     86  N         52.2340   31.2490   12.7020 N.am  139  GLY139     -0.1954
     87  CA        52.1950   32.3950   13.5980 C.3   139  GLY139      0.1869
     88  C         51.3940   33.5900   13.0990 C.2   139  GLY139      0.2309
     89  O         51.4610   34.6850   13.6650 O.2   139  GLY139     -0.2863
     90  N         47.3640   34.0260   11.9930 N.3   141  TRP141     -0.1241
     91  CA        46.1360   33.2390   12.0200 C.3   141  TRP141      0.1605
     92  C         44.9250   34.0870   12.3320 C.2   141  TRP141      0.2264
     93  O         45.0540   35.2240   12.8000 O.2   141  TRP141     -0.2867
     94  CB        46.2460   32.1350   13.0740 C.3   141  TRP141      0.0550
     95  CG        46.8870   32.6030   14.3400 C.ar  141  TRP141      0.0003
     96  CD1       48.2160   32.5430   14.6560 C.ar  141  TRP141      0.0946
     97  CD2       46.2380   33.2250   15.4550 C.ar  141  TRP141      0.0152
     98  NE1       48.4320   33.0810   15.9010 N.ar  141  TRP141     -0.2442
     99  CE2       47.2350   33.5090   16.4120 C.ar  141  TRP141      0.0810
    100  CE3       44.9150   33.5660   15.7390 C.ar  141  TRP141      0.0012
    101  CZ2       46.9470   34.1160   17.6320 C.ar  141  TRP141      0.0191
    102  CZ3       44.6300   34.1700   16.9520 C.ar  141  TRP141      0.0001
    103  CH2       45.6410   34.4370   17.8830 C.ar  141  TRP141      0.0015
    104  N         41.1340   33.2240   14.3300 N.3   143  THR143     -0.1218
    105  CA        40.4800   32.1590   15.0810 C.3   143  THR143      0.1862
    106  C         39.0760   32.5710   15.4940 C.2   143  THR143      0.2287
    107  O         38.7720   33.7630   15.6250 O.2   143  THR143     -0.2866
    108  CB        41.3060   31.7480   16.3230 C.3   143  THR143      0.1770
    109  OG1       40.7570   30.5560   16.8870 O.3   143  THR143     -0.2211
    110  CG2       41.2940   32.8470   17.3740 C.3   143  THR143      0.0375
@<TRIPOS>BOND
     1     1     2    1
     2    67    66    2
     3     2     3    1
     4     2     5    1
     5     3     4    2
     6    66    65    1
     7     5     6    1
     8    64    65    1
     9    65    68    1
    10     6     7    1
    11    68    69    1
    12    74    75    1
    13     8     7   ar
    14    60    59    2
    15     7     9   ar
    16    82    83    1
    17    82    76   am
    18    83    84    1
    19    59    58    1
    20    69    71   ar
    21    69    70   ar
    22    90    91    1
    23    91    92    1
    24    91    94    1
    25    75    76    1
    26    75    78    1
    27    80    79    2
    28    92    93    2
    29    76    77    2
    30    71    73   ar
    31    84    86   am
    32    84    85    2
    33    86    87    1
    34    79    78    1
    35    79    81   am
    36    94    95    1
    37    70    72   ar
    38    88    87    1
    39    88    89    2
    40    58    57    1
    41    58    61    1
    42    73    72   ar
    43    63    61    1
    44    61    62    1
    45   104   105    1
    46    95    96   ar
    47    95    97   ar
    48    96    98   ar
    49   105   106    1
    50   105   108    1
    51    97   100   ar
    52    97    99   ar
    53   106   107    2
    54   100   102   ar
    55    98    99   ar
    56   108   109    1
    57   108   110    1
    58    99   101   ar
    59    17    16   ar
    60    55    54    2
    61    15    16    1
    62    15    14    1
    63    54    53    1
    64    10    11    1
    65    16    18   ar
    66   102   103   ar
    67   101   103   ar
    68    11    14    1
    69    11    12    1
    70    53    56    1
    71    53    52    1
    72    12    13    2
    73    30    29    1
    74    29    27   ar
    75    29    28   ar
    76    27    25   ar
    77    28    26   ar
    78    48    47    2
    79    25    24   ar
    80    26    24   ar
    81    47    46    1
    82    24    23    1
    83    43    41   ar
    84    43    44   ar
    85    19    20    1
    86    41    38   ar
    87    44    42   ar
    88    50    49    1
    89    50    51    1
    90    49    46    1
    91    20    23    1
    92    20    21    1
    93    46    45    1
    94    38    40   ar
    95    38    36   ar
    96    51    45    1
    97    45    33   am
    98    42    40   ar
    99    35    36    1
   100    35    32    1
   101    40    39   ar
   102    36    37   ar
   103    33    34    2
   104    33    32    1
   105    21    22    2
   106    32    31    1
   107    37    39   ar
