@<TRIPOS>MOLECULE
tmp/3rq0A03.pdb
 100 94 0 0 0
SMALL
GASTEIGER

@<TRIPOS>ATOM
      1  N         47.1190    7.1500    6.3840 N.3    22  THR22      -0.1203
      2  CA        48.3340    6.8060    7.1090 C.3    22  THR22       0.1994
      3  C         48.0290    6.9400    8.5940 C.2    22  THR22       0.2618
      4  O         47.5430    7.9700    9.0430 O.2    22  THR22      -0.2717
      5  CB        49.4930    7.7550    6.7330 C.3    22  THR22       0.1784
      6  OG1       49.6600    7.7430    5.3120 O.3    22  THR22      -0.2211
      7  CG2       50.8230    7.3040    7.3870 C.3    22  THR22       0.0376
      8  N         48.3190    5.8950    9.3540 N.am   23  ILE23      -0.1965
      9  CA        48.0560    5.8770   10.7870 C.3    23  ILE23       0.1727
     10  C         49.3420    6.1530   11.5690 C.2    23  ILE23       0.2616
     11  O         50.3610    5.4690   11.3920 O.2    23  ILE23      -0.2715
     12  CB        47.4700    4.5080   11.2050 C.3    23  ILE23       0.0290
     13  CG1       46.1740    4.2500   10.4340 C.3    23  ILE23       0.0022
     14  CG2       47.2210    4.4600   12.7120 C.3    23  ILE23       0.0023
     15  CD1       45.5540    2.8570   10.6940 C.3    23  ILE23       0.0001
     16  N         49.2950    7.1510   12.4390 N.am   24  ALA24      -0.1977
     17  CA        50.4980    7.6040   13.1440 C.3    24  ALA24       0.1597
     18  C         51.0660    6.5200   14.0630 C.2    24  ALA24       0.2287
     19  O         50.3120    5.8210   14.7330 O.2    24  ALA24      -0.2864
     20  CB        50.1880    8.8770   13.9370 C.3    24  ALA24       0.0319
     21  N         53.6040    7.3160   16.3260 N.3    26  ALA26      -0.1245
     22  CA        54.1480    8.0260   17.4840 C.3    26  ALA26       0.1562
     23  C         53.5660    9.4450   17.5590 C.2    26  ALA26       0.2260
     24  O         53.0940    9.9820   16.5590 O.2    26  ALA26      -0.2867
     25  CB        55.6960    8.0710   17.4170 C.3    26  ALA26       0.0290
     26  N         54.0910   13.3950   17.7400 N.3    28  GLU28      -0.1245
     27  CA        55.1750   14.2600   17.2660 C.3    28  GLU28       0.1567
     28  C         56.0390   14.6930   18.4410 C.2    28  GLU28       0.2260
     29  O         55.5690   14.7120   19.5780 O.2    28  GLU28      -0.2867
     30  CB        54.6210   15.4860   16.5300 C.3    28  GLU28       0.0388
     31  CG        53.6530   16.3600   17.3480 C.3    28  GLU28       0.1160
     32  CD        52.2510   15.7450   17.4850 C.2    28  GLU28       0.3649
     33  OE1       51.9560   14.7230   16.8230 O.co2  28  GLU28      -0.2457
     34  OE2       51.4420   16.2960   18.2560 O.co2  28  GLU28      -0.2457
     35  N         50.5740    8.1030   20.0600 N.3    45  TYR45      -0.1241
     36  CA        49.7690    7.5490   18.9850 C.3    45  TYR45       0.1605
     37  C         50.3700    6.2120   18.6160 C.2    45  TYR45       0.2264
     38  O         51.5820    6.0340   18.7090 O.2    45  TYR45      -0.2867
     39  CB        49.8550    8.4230   17.7410 C.3    45  TYR45       0.0534
     40  CG        49.1920    9.7670   17.8530 C.ar   45  TYR45      -0.0201
     41  CD1       47.9620    9.9130   18.4820 C.ar   45  TYR45      -0.0009
     42  CD2       49.8040   10.9020   17.3250 C.ar   45  TYR45      -0.0009
     43  CE1       47.3510   11.1720   18.5720 C.ar   45  TYR45       0.0417
     44  CE2       49.2060   12.1500   17.4100 C.ar   45  TYR45       0.0417
     45  CZ        47.9810   12.2790   18.0320 C.ar   45  TYR45       0.1957
     46  OH        47.3950   13.5310   18.1150 O.3    45  TYR45      -0.2866
     47  N         45.9160    8.9640   15.2240 N.3    75  LYS75      -0.1245
     48  CA        45.8910   10.0640   14.2730 C.3    75  LYS75       0.1561
     49  C         45.9010    9.4590   12.8800 C.2    75  LYS75       0.2260
     50  O         46.6860    8.5690   12.6110 O.2    75  LYS75      -0.2867
     51  CB        47.1430   10.9290   14.4520 C.3    75  LYS75       0.0271
     52  CG        47.4220   11.8960   13.2950 C.3    75  LYS75       0.0035
     53  CD        48.7910   12.5350   13.4370 C.3    75  LYS75       0.0206
     54  CE        49.1590   13.3890   12.2280 C.3    75  LYS75       0.1093
     55  NZ        50.6650   13.5280   12.0950 N.3    75  LYS75      -0.1314
     56  N         46.1080   10.5180    8.7100 N.3    77  ALA77      -0.1245
     57  CA        46.2840   11.5530    7.6960 C.3    77  ALA77       0.1562
     58  C         46.0080   10.9480    6.3220 C.2    77  ALA77       0.2260
     59  O         46.5230    9.8780    5.9990 O.2    77  ALA77      -0.2867
     60  CB        47.7170   12.1240    7.7590 C.3    77  ALA77       0.0290
     61  N         41.1190   18.5280   10.8170 N.3   106  TRP106     -0.1241
     62  CA        41.8280   19.6380   10.1860 C.3   106  TRP106      0.1605
     63  C         42.4330   19.2870    8.8340 C.2   106  TRP106      0.2264
     64  O         42.5830   18.1190    8.4940 O.2   106  TRP106     -0.2867
     65  CB        42.8980   20.2160   11.1260 C.3   106  TRP106      0.0550
     66  CG        43.9170   19.2270   11.6940 C.ar  106  TRP106      0.0003
     67  CD1       43.6920   18.2500   12.6300 C.ar  106  TRP106      0.0946
     68  CD2       45.3300   19.1900   11.4140 C.ar  106  TRP106      0.0152
     69  NE1       44.8660   17.5950   12.9240 N.ar  106  TRP106     -0.2442
     70  CE2       45.8840   18.1460   12.1880 C.ar  106  TRP106      0.0810
     71  CE3       46.1710   19.9260   10.5710 C.ar  106  TRP106      0.0012
     72  CZ2       47.2420   17.8200   12.1440 C.ar  106  TRP106      0.0191
     73  CZ3       47.5240   19.6040   10.5290 C.ar  106  TRP106      0.0001
     74  CH2       48.0460   18.5570   11.3110 C.ar  106  TRP106      0.0015
     75  N         52.5650   20.3780    4.8900 N.3   110  THR110     -0.1218
     76  CA        53.8240   20.3200    5.6320 C.3   110  THR110      0.1862
     77  C         54.6850   21.5810    5.4910 C.2   110  THR110      0.2287
     78  O         55.6320   21.7720    6.2600 O.2   110  THR110     -0.2866
     79  CB        54.6840   19.0810    5.2790 C.3   110  THR110      0.1770
     80  OG1       55.1480   19.1870    3.9290 O.3   110  THR110     -0.2211
     81  CG2       53.8840   17.7880    5.4690 C.3   110  THR110      0.0375
     82  N         46.1460   17.6600    2.9240 N.3   197  PHE197     -0.1241
     83  CA        45.6620   16.3440    3.3380 C.3   197  PHE197      0.1605
     84  C         44.6900   16.5100    4.4930 C.2   197  PHE197      0.2264
     85  O         44.7200   17.5180    5.1990 O.2   197  PHE197     -0.2867
     86  CB        46.8280   15.4230    3.7520 C.3   197  PHE197      0.0534
     87  CG        47.8560   16.0960    4.6420 C.ar  197  PHE197     -0.0203
     88  CD1       47.6620   16.1830    6.0240 C.ar  197  PHE197     -0.0042
     89  CD2       49.0100   16.6490    4.0970 C.ar  197  PHE197     -0.0042
     90  CE1       48.6060   16.8090    6.8470 C.ar  197  PHE197     -0.0003
     91  CE2       49.9580   17.2790    4.9080 C.ar  197  PHE197     -0.0003
     92  CZ        49.7580   17.3620    6.2870 C.ar  197  PHE197     -0.0000
     93  N         42.2530   13.2330   14.3730 N.3   201  ASN201     -0.1240
     94  CA        43.0640   12.7290   15.4790 C.3   201  ASN201      0.1653
     95  C         42.4350   13.0310   16.8280 C.2   201  ASN201      0.2266
     96  O         41.6570   13.9670   16.9570 O.2   201  ASN201     -0.2867
     97  CB        44.5060   13.2770   15.4100 C.3   201  ASN201      0.1155
     98  CG        44.5800   14.7840   15.6750 C.2   201  ASN201      0.2627
     99  OD1       44.3880   15.5970   14.7740 O.2   201  ASN201     -0.2716
    100  ND2       44.8520   15.1520   16.9130 N.am  201  ASN201     -0.0877
@<TRIPOS>BOND
     1    82    83    1
     2    83    86    1
     3    83    84    1
     4    86    87    1
     5    80    79    1
     6    89    87   ar
     7    89    91   ar
     8    84    85    2
     9    87    88   ar
    10    75    76    1
    11    91    92   ar
    12    79    81    1
    13    79    76    1
    14     6     5    1
    15    77    76    1
    16    77    78    2
    17    59    58    2
    18    88    90   ar
    19    92    90   ar
    20    58    57    1
    21     1     2    1
    22     5     2    1
    23     5     7    1
    24     2     3    1
    25    57    60    1
    26    57    56    1
    27    64    63    2
    28     3     4    2
    29     3     8   am
    30    63    62    1
    31     8     9    1
    32    62    61    1
    33    62    65    1
    34    13    15    1
    35    13    12    1
    36    73    71   ar
    37    73    74   ar
    38    71    68   ar
    39     9    12    1
    40     9    10    1
    41    65    66    1
    42    12    14    1
    43    74    72   ar
    44    11    10    2
    45    68    66   ar
    46    68    70   ar
    47    10    16   am
    48    66    67   ar
    49    55    54    1
    50    72    70   ar
    51    70    69   ar
    52    54    53    1
    53    16    17    1
    54    50    49    2
    55    67    69   ar
    56    49    48    1
    57    17    20    1
    58    17    18    1
    59    52    53    1
    60    52    51    1
    61    18    19    2
    62    48    51    1
    63    48    47    1
    64    93    94    1
    65    99    98    2
    66    97    94    1
    67    97    98    1
    68    94    95    1
    69    98   100   am
    70    21    22    1
    71    30    27    1
    72    30    31    1
    73    24    23    2
    74    33    32   ar
    75    95    96    2
    76    27    26    1
    77    27    28    1
    78    42    44   ar
    79    42    40   ar
    80    31    32    1
    81    44    45   ar
    82    25    22    1
    83    22    23    1
    84    32    34   ar
    85    39    40    1
    86    39    36    1
    87    40    41   ar
    88    45    46    1
    89    45    43   ar
    90    28    29    2
    91    41    43   ar
    92    37    38    2
    93    37    36    1
    94    36    35    1
