@<TRIPOS>MOLECULE
tmp/3rq1A01.pdb
 91 84 0 0 0
SMALL
GASTEIGER

@<TRIPOS>ATOM
      1  N        -12.3550  -11.7640  107.4920 N.3    18  PHE18      -0.1241
      2  CA       -11.1510  -11.3860  106.7470 C.3    18  PHE18       0.1605
      3  C        -10.3120  -10.3120  107.4590 C.2    18  PHE18       0.2264
      4  O         -9.1130  -10.1950  107.2280 O.2    18  PHE18      -0.2867
      5  CB       -11.4620  -11.0410  105.2700 C.3    18  PHE18       0.0534
      6  CG       -12.0400  -12.2120  104.4780 C.ar   18  PHE18      -0.0203
      7  CD1      -11.2090  -13.2220  103.9820 C.ar   18  PHE18      -0.0042
      8  CD2      -13.4220  -12.3120  104.2450 C.ar   18  PHE18      -0.0042
      9  CE1      -11.7460  -14.3160  103.2690 C.ar   18  PHE18      -0.0003
     10  CE2      -13.9620  -13.4000  103.5400 C.ar   18  PHE18      -0.0003
     11  CZ       -13.1220  -14.4010  103.0440 C.ar   18  PHE18      -0.0000
     12  N         -8.3920  -12.3420  109.9670 N.3    21  ALA21      -0.1231
     13  CA        -7.4630  -13.1450  109.2020 C.3    21  ALA21       0.1694
     14  C         -6.2810  -12.2780  108.7460 C.2    21  ALA21       0.2592
     15  O         -5.1340  -12.7040  108.8470 O.2    21  ALA21      -0.2718
     16  CB        -8.1530  -13.7730  108.0080 C.3    21  ALA21       0.0304
     17  N         -6.5530  -11.0600  108.2690 N.am   22  GLY22      -0.1957
     18  CA        -5.4850  -10.1090  107.9620 C.3    22  GLY22       0.1869
     19  C         -4.5650   -9.7830  109.1450 C.2    22  GLY22       0.2309
     20  O         -3.3420   -9.8480  109.0400 O.2    22  GLY22      -0.2863
     21  N         -2.2120  -12.8130  109.7290 N.3    25  GLN25      -0.1245
     22  CA        -1.1490  -12.9140  108.7090 C.3    25  GLN25       0.1566
     23  C          0.0090  -11.9240  109.0100 C.2    25  GLN25       0.2260
     24  O          1.1710  -12.3050  109.0290 O.2    25  GLN25      -0.2867
     25  CB        -1.7490  -12.8030  107.2930 C.3    25  GLN25       0.0367
     26  CG        -2.8250  -13.9100  107.0500 C.3    25  GLN25       0.0905
     27  CD        -3.6210  -13.7820  105.7460 C.2    25  GLN25       0.2608
     28  OE1       -4.5560  -12.9940  105.6360 O.2    25  GLN25      -0.2717
     29  NE2       -3.2570  -14.5890  104.7630 N.am   25  GLN25      -0.0878
     30  N          5.5720  -17.6090  111.7060 N.3    33  ARG33      -0.1245
     31  CA         4.3440  -18.3710  111.6240 C.3    33  ARG33       0.1563
     32  C          4.1790  -19.2200  112.8760 C.2    33  ARG33       0.2260
     33  O          3.0600  -19.4670  113.3140 O.2    33  ARG33      -0.2867
     34  CB         4.3840  -19.2780  110.3850 C.3    33  ARG33       0.0307
     35  CG         3.0680  -19.4400  109.6620 C.3    33  ARG33       0.0489
     36  CD         3.0110  -18.6210  108.3830 C.3    33  ARG33       0.2205
     37  NE         1.7570  -17.8680  108.2790 N.pl3  33  ARG33      -0.0865
     38  CZ         1.2710  -17.3640  107.1440 C.cat  33  ARG33       0.5346
     39  NH1        0.1250  -16.6910  107.1460 N.pl3  33  ARG33       0.1354
     40  NH2        1.9260  -17.5330  106.0010 N.pl3  33  ARG33       0.1354
     41  N         -3.1330  -19.1980  114.3920 N.3    38  ASN38      -0.1240
     42  CA        -4.0550  -18.6390  113.4250 C.3    38  ASN38       0.1653
     43  C         -5.1600  -19.6520  113.1250 C.2    38  ASN38       0.2266
     44  O         -5.0300  -20.5850  112.3390 O.2    38  ASN38      -0.2867
     45  CB        -3.2860  -18.2010  112.1760 C.3    38  ASN38       0.1155
     46  CG        -4.2060  -17.6920  111.0600 C.2    38  ASN38       0.2627
     47  OD1       -5.4230  -17.6250  111.2210 O.2    38  ASN38      -0.2716
     48  ND2       -3.6170  -17.3690  109.9090 N.am   38  ASN38      -0.0877
     49  N         -8.9340  -18.7610  109.0020 N.3    41  LEU41      -0.1245
     50  CA        -9.5700  -19.1360  107.7190 C.3    41  LEU41       0.1561
     51  C         -9.6190  -20.6490  107.4480 C.2    41  LEU41       0.2260
     52  O         -8.7400  -21.4110  107.8200 O.2    41  LEU41      -0.2867
     53  CB        -8.9520  -18.4010  106.4950 C.3    41  LEU41       0.0270
     54  CG        -8.9480  -16.8660  106.3070 C.3    41  LEU41       0.0019
     55  CD1       -7.9820  -16.4330  105.1150 C.3    41  LEU41       0.0001
     56  CD2      -10.3370  -16.2680  106.1040 C.3    41  LEU41       0.0001
     57  N         -8.5750  -22.5730  105.4730 N.3    43  ALA43      -0.1245
     58  CA        -7.4920  -23.2250  104.7170 C.3    43  ALA43       0.1562
     59  C         -6.5790  -24.1590  105.5460 C.2    43  ALA43       0.2260
     60  O         -6.2450  -23.8830  106.7050 O.2    43  ALA43      -0.2867
     61  CB        -6.6620  -22.1860  104.0040 C.3    43  ALA43       0.0290
     62  N         -3.2900  -25.6790  106.9660 N.3    45  HIS45      -0.1241
     63  CA        -1.8450  -25.5890  107.0890 C.3    45  HIS45       0.1621
     64  C         -1.3150  -26.8850  107.7210 C.2    45  HIS45       0.2264
     65  O         -2.0170  -27.5190  108.5270 O.2    45  HIS45      -0.2867
     66  CB        -1.4500  -24.3320  107.8710 C.3    45  HIS45       0.0745
     67  CG        -2.0440  -23.0730  107.3110 C.ar   45  HIS45       0.0817
     68  ND1       -1.2930  -21.9590  107.0080 N.ar   45  HIS45      -0.2268
     69  CD2       -3.3250  -22.7610  106.9920 C.ar   45  HIS45       0.1154
     70  CE1       -2.0830  -21.0080  106.5420 C.ar   45  HIS45       0.1986
     71  NE2       -3.3200  -21.4710  106.5170 N.ar   45  HIS45      -0.2212
     72  N          0.7120  -23.3370  104.4020 N.3    51  LEU51      -0.1245
     73  CA        -0.4630  -23.5430  103.5760 C.3    51  LEU51       0.1561
     74  C         -0.2120  -24.8180  102.8000 C.2    51  LEU51       0.2260
     75  O          0.8890  -25.0450  102.3300 O.2    51  LEU51      -0.2867
     76  CB        -0.6430  -22.3810  102.5890 C.3    51  LEU51       0.0270
     77  CG        -2.0240  -22.3060  101.9200 C.3    51  LEU51       0.0019
     78  CD1       -2.2110  -21.1150  100.9850 C.3    51  LEU51       0.0001
     79  CD2       -2.2900  -23.5530  101.1800 C.3    51  LEU51       0.0001
     80  N         -8.1940  -22.8100   97.6160 N.3   262  TYR262     -0.1241
     81  CA        -9.1550  -22.3540   98.6360 C.3   262  TYR262      0.1605
     82  C         -9.7050  -21.0400   98.1970 C.2   262  TYR262      0.2264
     83  O        -10.8980  -20.7690   98.3430 O.2   262  TYR262     -0.2867
     84  CB        -8.5840  -22.2410  100.0570 C.3   262  TYR262      0.0534
     85  CG        -7.7470  -23.4110  100.5520 C.ar  262  TYR262     -0.0201
     86  CD1       -8.3080  -24.4660  101.2930 C.ar  262  TYR262     -0.0009
     87  CD2       -6.3860  -23.4420  100.3000 C.ar  262  TYR262     -0.0009
     88  CE1       -7.5120  -25.5310  101.7500 C.ar  262  TYR262      0.0417
     89  CE2       -5.5850  -24.4670  100.7560 C.ar  262  TYR262      0.0417
     90  CZ        -6.1340  -25.5150  101.4680 C.ar  262  TYR262      0.1957
     91  OH        -5.2530  -26.5120  101.8540 O.3   262  TYR262     -0.2866
@<TRIPOS>BOND
     1    80    81    1
     2    82    83    2
     3    82    81    1
     4    81    84    1
     5    84    85    1
     6    87    85   ar
     7    87    89   ar
     8    85    86   ar
     9    89    90   ar
    10    78    77    1
    11    79    77    1
    12    86    88   ar
    13    90    88   ar
    14    90    91    1
    15    77    76    1
    16    75    74    2
    17    76    73    1
    18    74    73    1
    19    11     9   ar
    20    11    10   ar
    21     9     7   ar
    22    10     8   ar
    23    73    72    1
    24     7     6   ar
    25    61    58    1
    26     8     6   ar
    27     6     5    1
    28    58    57    1
    29    58    59    1
    30    29    27   am
    31    55    54    1
    32     5     2    1
    33    59    60    2
    34    28    27    2
    35    27    26    1
    36    40    38    1
    37    56    54    1
    38    54    53    1
    39    53    50    1
    40    71    70   ar
    41    71    69   ar
    42    70    68   ar
    43     2     3    1
    44     2     1    1
    45    62    63    1
    46    69    67   ar
    47    68    67   ar
    48    26    25    1
    49    63    64    1
    50    63    66    1
    51    38    39    1
    52    38    37    2
    53     4     3    2
    54    25    22    1
    55    67    66    1
    56    51    50    1
    57    51    52    2
    58    50    49    1
    59    64    65    2
    60    18    17    1
    61    18    19    1
    62    16    13    1
    63    17    14   am
    64    37    36    1
    65    36    35    1
    66    22    23    1
    67    22    21    1
    68    14    15    2
    69    14    13    1
    70    23    24    2
    71    20    19    2
    72    13    12    1
    73    35    34    1
    74    48    46   am
    75    34    31    1
    76    46    47    2
    77    46    45    1
    78    31    30    1
    79    31    32    1
    80    45    42    1
    81    44    43    2
    82    32    33    2
    83    43    42    1
    84    42    41    1
