@<TRIPOS>MOLECULE
tmp/3rq1A00.pdb
 112 107 0 0 0
SMALL
GASTEIGER

@<TRIPOS>ATOM
      1  N        -14.4930  -12.0980  109.4410 N.3    17  ILE17      -0.1231
      2  CA       -13.5840  -13.1680  109.0870 C.3    17  ILE17       0.1692
      3  C        -12.2700  -12.6350  108.4940 C.2    17  ILE17       0.2592
      4  O        -11.1910  -13.0200  108.9410 O.2    17  ILE17      -0.2718
      5  CB       -14.2530  -14.1770  108.1120 C.3    17  ILE17       0.0266
      6  CG1      -15.4000  -14.9150  108.8200 C.3    17  ILE17       0.0019
      7  CG2      -13.2460  -15.1690  107.5690 C.3    17  ILE17       0.0020
      8  CD1      -16.3290  -15.6610  107.8920 C.3    17  ILE17       0.0001
      9  N        -12.3550  -11.7640  107.4920 N.am   18  PHE18      -0.1976
     10  CA       -11.1510  -11.3860  106.7470 C.3    18  PHE18       0.1639
     11  C        -10.3120  -10.3120  107.4590 C.2    18  PHE18       0.2290
     12  O         -9.1130  -10.1950  107.2280 O.2    18  PHE18      -0.2864
     13  CB       -11.4620  -11.0410  105.2700 C.3    18  PHE18       0.0560
     14  CG       -12.0400  -12.2120  104.4780 C.ar   18  PHE18      -0.0200
     15  CD1      -11.2090  -13.2220  103.9820 C.ar   18  PHE18      -0.0042
     16  CD2      -13.4220  -12.3120  104.2450 C.ar   18  PHE18      -0.0042
     17  CE1      -11.7460  -14.3160  103.2690 C.ar   18  PHE18      -0.0003
     18  CE2      -13.9620  -13.4000  103.5400 C.ar   18  PHE18      -0.0003
     19  CZ       -13.1220  -14.4010  103.0440 C.ar   18  PHE18      -0.0000
     20  N         -8.9340  -18.7610  109.0020 N.3    41  LEU41      -0.1231
     21  CA        -9.5700  -19.1360  107.7190 C.3    41  LEU41       0.1693
     22  C         -9.6190  -20.6490  107.4480 C.2    41  LEU41       0.2592
     23  O         -8.7400  -21.4110  107.8200 O.2    41  LEU41      -0.2718
     24  CB        -8.9520  -18.4010  106.4950 C.3    41  LEU41       0.0284
     25  CG        -8.9480  -16.8660  106.3070 C.3    41  LEU41       0.0019
     26  CD1       -7.9820  -16.4330  105.1150 C.3    41  LEU41       0.0001
     27  CD2      -10.3370  -16.2680  106.1040 C.3    41  LEU41       0.0001
     28  N        -10.5980  -21.0500  106.6640 N.am   42  GLY42      -0.1957
     29  CA       -10.8500  -22.4400  106.3440 C.3    42  GLY42       0.1869
     30  C         -9.8150  -23.0430  105.4010 C.2    42  GLY42       0.2309
     31  O        -10.1730  -23.7670  104.4640 O.2    42  GLY42      -0.2863
     32  N        -22.7900  -20.7160  107.9240 N.3   132  TRP132     -0.1241
     33  CA       -21.8170  -19.8300  107.3280 C.3   132  TRP132      0.1605
     34  C        -22.4910  -18.5020  106.9850 C.2   132  TRP132      0.2264
     35  O        -23.4520  -18.4520  106.2230 O.2   132  TRP132     -0.2867
     36  CB       -21.2660  -20.4750  106.0760 C.3   132  TRP132      0.0550
     37  CG       -20.2450  -19.6240  105.3840 C.ar  132  TRP132      0.0003
     38  CD1      -19.4020  -18.6830  105.9490 C.ar  132  TRP132      0.0946
     39  CD2      -19.9800  -19.6100  103.9770 C.ar  132  TRP132      0.0152
     40  NE1      -18.6280  -18.0970  104.9560 N.ar  132  TRP132     -0.2442
     41  CE2      -18.9640  -18.6470  103.7480 C.ar  132  TRP132      0.0810
     42  CE3      -20.5130  -20.3240  102.8910 C.ar  132  TRP132      0.0012
     43  CZ2      -18.4480  -18.4000  102.4870 C.ar  132  TRP132      0.0191
     44  CZ3      -20.0020  -20.0620  101.6280 C.ar  132  TRP132      0.0001
     45  CH2      -18.9820  -19.1100  101.4390 C.ar  132  TRP132      0.0015
     46  N        -22.1660  -16.0830  105.1070 N.3   134  ALA134     -0.1245
     47  CA       -22.3710  -15.6940  103.7150 C.3   134  ALA134      0.1562
     48  C        -23.8080  -15.9560  103.2680 C.2   134  ALA134      0.2260
     49  O        -24.3490  -15.1550  102.5160 O.2   134  ALA134     -0.2867
     50  CB       -21.3740  -16.4260  102.7880 C.3   134  ALA134      0.0290
     51  N        -19.9580  -25.9890  108.7210 N.3   187  ASN187     -0.1240
     52  CA       -19.2820  -24.7510  109.0630 C.3   187  ASN187      0.1653
     53  C        -20.3840  -23.9780  109.7380 C.2   187  ASN187      0.2266
     54  O        -21.4250  -23.8090  109.1510 O.2   187  ASN187     -0.2867
     55  CB       -18.7940  -24.0120  107.7830 C.3   187  ASN187      0.1155
     56  CG       -18.3410  -22.5520  108.0500 C.2   187  ASN187      0.2627
     57  OD1      -18.3910  -22.0610  109.1770 O.2   187  ASN187     -0.2716
     58  ND2      -17.8930  -21.8620  106.9930 N.am  187  ASN187     -0.0877
     59  N        -17.2170  -29.7940  102.6100 N.3   224  TYR224     -0.1241
     60  CA       -16.3790  -30.5080  103.5570 C.3   224  TYR224      0.1605
     61  C        -16.4140  -31.9950  103.3590 C.2   224  TYR224      0.2264
     62  O        -15.8420  -32.7600  104.1460 O.2   224  TYR224     -0.2867
     63  CB       -16.5750  -29.9930  104.9970 C.3   224  TYR224      0.0534
     64  CG       -16.3190  -28.4900  105.0550 C.ar  224  TYR224     -0.0201
     65  CD1      -15.0170  -27.9700  105.1730 C.ar  224  TYR224     -0.0009
     66  CD2      -17.3640  -27.5870  104.9250 C.ar  224  TYR224     -0.0009
     67  CE1      -14.7830  -26.5730  105.1650 C.ar  224  TYR224      0.0417
     68  CE2      -17.1320  -26.2100  104.9380 C.ar  224  TYR224      0.0417
     69  CZ       -15.8470  -25.7080  105.0610 C.ar  224  TYR224      0.1957
     70  OH       -15.6660  -24.3380  105.0620 O.3   224  TYR224     -0.2866
     71  N        -12.1130  -26.8130   99.0630 N.3   258  LYS258     -0.1245
     72  CA       -11.5350  -27.6040  100.1430 C.3   258  LYS258      0.1561
     73  C        -11.0160  -28.9360   99.6570 C.2   258  LYS258      0.2260
     74  O         -9.8620  -29.2520   99.8730 O.2   258  LYS258     -0.2867
     75  CB       -12.5100  -27.7560  101.3110 C.3   258  LYS258      0.0271
     76  CG       -13.4730  -26.5790  101.4650 C.3   258  LYS258      0.0035
     77  CD       -12.8280  -25.3470  102.0590 C.3   258  LYS258      0.0206
     78  CE       -13.8440  -24.2360  101.9680 C.3   258  LYS258      0.1093
     79  NZ       -13.3410  -22.9750  102.5120 N.3   258  LYS258     -0.1314
     80  N        -12.6540  -19.8650   93.6670 N.3   265  ARG265     -0.1245
     81  CA       -13.9830  -20.3220   94.0290 C.3   265  ARG265      0.1563
     82  C        -14.5250  -20.9710   92.7810 C.2   265  ARG265      0.2260
     83  O        -14.9150  -20.3310   91.8070 O.2   265  ARG265     -0.2867
     84  CB       -14.8450  -19.1630   94.5310 C.3   265  ARG265      0.0307
     85  CG       -14.2110  -18.3860   95.6790 C.3   265  ARG265      0.0489
     86  CD       -14.0740  -19.2520   96.9190 C.3   265  ARG265      0.2205
     87  NE       -14.2770  -18.4170   98.1210 N.pl3 265  ARG265     -0.0865
     88  CZ       -14.9670  -18.7630   99.2170 C.cat 265  ARG265      0.5346
     89  NH1      -15.5360  -19.9650   99.3310 N.pl3 265  ARG265      0.1354
     90  NH2      -15.0900  -17.8920  100.2100 N.pl3 265  ARG265      0.1354
     91  N        -13.5960  -26.6340  111.1700 N.3   351  PHE351     -0.1241
     92  CA       -13.9270  -25.6970  112.2290 C.3   351  PHE351      0.1605
     93  C        -14.5810  -26.3870  113.4170 C.2   351  PHE351      0.2264
     94  O        -15.3030  -27.3790  113.2770 O.2   351  PHE351     -0.2867
     95  CB       -14.9150  -24.6340  111.7220 C.3   351  PHE351      0.0534
     96  CG       -14.4420  -23.8940  110.4950 C.ar  351  PHE351     -0.0203
     97  CD1      -13.5900  -22.8170  110.6140 C.ar  351  PHE351     -0.0042
     98  CD2      -14.8910  -24.2570  109.2310 C.ar  351  PHE351     -0.0042
     99  CE1      -13.1840  -22.1220  109.5090 C.ar  351  PHE351     -0.0003
    100  CE2      -14.4690  -23.5670  108.1130 C.ar  351  PHE351     -0.0003
    101  CZ       -13.6150  -22.5000  108.2570 C.ar  351  PHE351     -0.0000
    102  N        -15.5070  -19.3250  116.6220 N.3   381  ARG381     -0.1245
    103  CA       -15.1460  -20.2960  115.5910 C.3   381  ARG381      0.1563
    104  C        -13.6510  -20.4660  115.4870 C.2   381  ARG381      0.2260
    105  O        -12.8960  -19.5030  115.3300 O.2   381  ARG381     -0.2867
    106  CB       -15.7550  -19.9530  114.2410 C.3   381  ARG381      0.0307
    107  CG       -15.7460  -21.1540  113.2700 C.3   381  ARG381      0.0489
    108  CD       -16.0260  -20.7390  111.7740 C.3   381  ARG381      0.2205
    109  NE       -14.9280  -19.9630  111.1920 N.pl3 381  ARG381     -0.0865
    110  CZ       -14.9090  -19.3450  109.9960 C.cat 381  ARG381      0.5346
    111  NH1      -15.9400  -19.3770  109.1510 N.pl3 381  ARG381      0.1354
    112  NH2      -13.8250  -18.6650  109.6590 N.pl3 381  ARG381      0.1354
@<TRIPOS>BOND
     1    83    82    2
     2    82    81    1
     3    80    81    1
     4    81    84    1
     5    84    85    1
     6    85    86    1
     7    86    87    1
     8    87    88    2
     9    71    72    1
    10    88    89    1
    11    88    90    1
    12    73    74    2
    13    73    72    1
    14    72    75    1
    15    75    76    1
    16    45    44   ar
    17    45    43   ar
    18    76    77    1
    19    44    42   ar
    20    78    77    1
    21    78    79    1
    22    43    41   ar
    23    49    48    2
    24    59    60    1
    25    50    47    1
    26    42    39   ar
    27    19    17   ar
    28    19    18   ar
    29    48    47    1
    30    17    15   ar
    31    61    60    1
    32    61    62    2
    33    18    16   ar
    34    60    63    1
    35    47    46    1
    36    41    39   ar
    37    41    40   ar
    38    39    37   ar
    39    15    14   ar
    40    16    14   ar
    41    31    30    2
    42    14    13    1
    43    66    68   ar
    44    66    64   ar
    45    68    69   ar
    46    40    38   ar
    47    63    64    1
    48    64    65   ar
    49    69    70    1
    50    69    67   ar
    51    26    25    1
    52    67    65   ar
    53    13    10    1
    54    37    38   ar
    55    37    36    1
    56    30    29    1
    57    36    33    1
    58    27    25    1
    59    35    34    2
    60    25    24    1
    61    29    28    1
    62    24    21    1
    63    28    22   am
    64    10    11    1
    65    10     9    1
    66    34    33    1
    67    58    56   am
    68    12    11    2
    69    33    32    1
    70    22    21    1
    71    22    23    2
    72     9     3   am
    73     7     5    1
    74    21    20    1
    75    55    56    1
    76    55    52    1
    77     8     6    1
    78    56    57    2
    79     5     6    1
    80     5     2    1
    81   100   101   ar
    82   100    98   ar
    83   101    99   ar
    84     3     4    2
    85     3     2    1
    86    51    52    1
    87    52    53    1
    88     2     1    1
    89    54    53    2
    90   111   110    1
    91    98    96   ar
    92    99    97   ar
    93   112   110    1
    94   110   109    2
    95    96    97   ar
    96    96    95    1
    97    91    92    1
    98   109   108    1
    99    95    92    1
   100   108   107    1
   101    92    93    1
   102   107   106    1
   103    94    93    2
   104   106   103    1
   105   105   104    2
   106   104   103    1
   107   103   102    1
