@<TRIPOS>MOLECULE
tmp/3rq2A01.pdb
 127 117 0 0 0
SMALL
GASTEIGER

@<TRIPOS>ATOM
      1  N        -53.8970  -32.6070  -11.3950 N.3    40  MET40      -0.1245
      2  CA       -53.6290  -32.1400  -12.7670 C.3    40  MET40       0.1570
      3  C        -52.1670  -32.4600  -13.1540 C.2    40  MET40       0.2261
      4  O        -51.3760  -31.5560  -13.4510 O.2    40  MET40      -0.2867
      5  CB       -53.9180  -30.6460  -12.9010 C.3    40  MET40       0.0387
      6  CG       -55.3790  -30.2620  -12.6650 C.3    40  MET40       0.0595
      7  SD       -55.5230  -28.4470  -12.7830 S.3    40  MET40      -0.1393
      8  CE       -54.8330  -27.8000  -11.2730 C.3    40  MET40       0.0692
      9  N        -50.9550  -34.2840  -15.6500 N.3    42  GLY42      -0.1210
     10  CA       -50.6880  -34.4460  -17.0670 C.3    42  GLY42       0.1956
     11  C        -50.1690  -33.2160  -17.7550 C.2    42  GLY42       0.2611
     12  O        -49.3910  -33.2990  -18.7440 O.2    42  GLY42      -0.2717
     13  N        -50.6030  -32.0550  -17.2700 N.am   43  ALA43      -0.1979
     14  CA       -50.1210  -30.7950  -17.8020 C.3    43  ALA43       0.1597
     15  C        -48.6050  -30.6610  -17.7600 C.2    43  ALA43       0.2287
     16  O        -48.0080  -30.0250  -18.6530 O.2    43  ALA43      -0.2864
     17  CB       -50.7820  -29.5910  -17.1010 C.3    43  ALA43       0.0319
     18  N        -47.3790  -32.7970  -20.7210 N.3    46  LEU46      -0.1245
     19  CA       -47.6980  -32.1070  -21.9570 C.3    46  LEU46       0.1561
     20  C        -46.7290  -30.9650  -22.2700 C.2    46  LEU46       0.2260
     21  O        -46.2130  -30.8230  -23.3880 O.2    46  LEU46      -0.2867
     22  CB       -49.1340  -31.6290  -21.9060 C.3    46  LEU46       0.0270
     23  CG       -50.2000  -32.7150  -21.9600 C.3    46  LEU46       0.0019
     24  CD1      -51.5850  -32.0530  -21.7190 C.3    46  LEU46       0.0001
     25  CD2      -50.1750  -33.4770  -23.2980 C.3    46  LEU46       0.0001
     26  N        -51.2530  -26.7770  -14.9630 N.3   105  GLY105     -0.1210
     27  CA       -51.6610  -27.7090  -13.9170 C.3   105  GLY105      0.1956
     28  C        -51.3260  -27.3140  -12.4860 C.2   105  GLY105      0.2611
     29  O        -51.4160  -28.1490  -11.6100 O.2   105  GLY105     -0.2717
     30  N        -50.9740  -26.0500  -12.2370 N.am  106  LEU106     -0.1979
     31  CA       -50.7750  -25.5680  -10.8530 C.3   106  LEU106      0.1596
     32  C        -52.0670  -24.9150  -10.3320 C.2   106  LEU106      0.2287
     33  O        -52.7430  -24.2330  -11.0730 O.2   106  LEU106     -0.2864
     34  CB       -49.5890  -24.5670  -10.7850 C.3   106  LEU106      0.0297
     35  CG       -48.2090  -25.0230  -11.2290 C.3   106  LEU106      0.0022
     36  CD1      -47.1190  -23.9670  -10.9150 C.3   106  LEU106      0.0001
     37  CD2      -47.8690  -26.4200  -10.6120 C.3   106  LEU106      0.0001
     38  N        -51.8730  -20.3470  -17.1170 N.3   130  ALA130     -0.1231
     39  CA       -52.7680  -21.1400  -16.3080 C.3   130  ALA130      0.1694
     40  C        -52.8210  -20.7190  -14.8220 C.2   130  ALA130      0.2592
     41  O        -53.2260  -19.5640  -14.5200 O.2   130  ALA130     -0.2718
     42  CB       -52.4190  -22.6310  -16.4450 C.3   130  ALA130      0.0304
     43  N        -52.4340  -21.6220  -13.9170 N.am  131  GLY131     -0.1957
     44  CA       -52.4760  -21.3260  -12.4580 C.3   131  GLY131      0.1869
     45  C        -51.6110  -20.1640  -11.9740 C.2   131  GLY131      0.2309
     46  O        -51.8170  -19.6440  -10.8610 O.2   131  GLY131     -0.2863
     47  N        -55.9050  -17.8080  -22.1900 N.3   150  HIS150     -0.1227
     48  CA       -57.1300  -17.8680  -22.9820 C.3   150  HIS150      0.1737
     49  C        -58.0940  -16.7940  -22.4810 C.2   150  HIS150      0.2438
     50  O        -57.8180  -16.1340  -21.4860 O.2   150  HIS150     -0.2733
     51  CB       -57.7430  -19.2580  -22.9820 C.3   150  HIS150      0.0758
     52  CG       -58.1380  -19.7850  -21.6420 C.ar  150  HIS150      0.0818
     53  ND1      -58.8860  -19.0600  -20.7220 N.ar  150  HIS150     -0.2268
     54  CD2      -57.9420  -21.0110  -21.0870 C.ar  150  HIS150      0.1154
     55  CE1      -59.1230  -19.8190  -19.6630 C.ar  150  HIS150      0.1986
     56  NE2      -58.5430  -21.0020  -19.8480 N.ar  150  HIS150     -0.2212
     57  N        -59.2110  -16.5790  -23.1940 N.am  151  PRO151     -0.2718
     58  CA       -60.0810  -15.4510  -22.8270 C.3   151  PRO151      0.1535
     59  C        -60.5770  -15.4530  -21.3700 C.2   151  PRO151      0.2599
     60  O        -60.6990  -14.3880  -20.7610 O.2   151  PRO151     -0.2715
     61  CB       -61.1990  -15.5400  -23.8670 C.3   151  PRO151      0.0310
     62  CG       -60.4750  -16.0620  -25.0720 C.3   151  PRO151      0.0237
     63  CD       -59.4710  -17.0410  -24.5710 C.3   151  PRO151      0.0939
     64  N        -60.8220  -16.6300  -20.7980 N.am  152  GLY152     -0.1941
     65  CA       -61.1870  -16.7370  -19.3790 C.3   152  GLY152      0.2014
     66  C        -60.1020  -16.2450  -18.4400 C.2   152  GLY152      0.2638
     67  O        -60.3840  -15.5810  -17.4330 O.2   152  GLY152     -0.2714
     68  N        -58.8580  -16.5930  -18.7380 N.am  153  GLU153     -0.1977
     69  CA       -57.7470  -16.1700  -17.9140 C.3   153  GLU153      0.1602
     70  C        -57.5230  -14.6630  -18.0720 C.2   153  GLU153      0.2287
     71  O        -57.1630  -13.9650  -17.1050 O.2   153  GLU153     -0.2864
     72  CB       -56.5160  -16.9750  -18.2830 C.3   153  GLU153      0.0415
     73  CG       -56.6090  -18.4060  -17.7500 C.3   153  GLU153      0.1163
     74  CD       -55.7960  -19.4520  -18.4420 C.2   153  GLU153      0.3649
     75  OE1      -55.2960  -19.2530  -19.5720 O.co2 153  GLU153     -0.2457
     76  OE2      -55.6980  -20.5620  -17.8460 O.co2 153  GLU153     -0.2457
     77  N        -59.8300  -12.9650  -15.8320 N.3   156  ARG156     -0.1245
     78  CA       -59.2820  -13.0440  -14.4640 C.3   156  ARG156      0.1563
     79  C        -58.1800  -11.9760  -14.2400 C.2   156  ARG156      0.2260
     80  O        -58.1290  -11.3230  -13.1870 O.2   156  ARG156     -0.2867
     81  CB       -58.7280  -14.4600  -14.1810 C.3   156  ARG156      0.0307
     82  CG       -58.1380  -14.5050  -12.7580 C.3   156  ARG156      0.0489
     83  CD       -57.9790  -15.9250  -12.2760 C.3   156  ARG156      0.2205
     84  NE       -56.8380  -16.6020  -12.8830 N.pl3 156  ARG156     -0.0865
     85  CZ       -56.8850  -17.7060  -13.6250 C.cat 156  ARG156      0.5346
     86  NH1      -58.0270  -18.2970  -13.9320 N.pl3 156  ARG156      0.1354
     87  NH2      -55.7690  -18.2250  -14.0680 N.pl3 156  ARG156      0.1354
     88  N        -65.4620  -11.7480  -20.8440 N.3   162  VAL162     -0.1245
     89  CA       -65.1650  -12.5210  -22.0280 C.3   162  VAL162      0.1561
     90  C        -65.9840  -12.1010  -23.2640 C.2   162  VAL162      0.2260
     91  O        -65.4460  -11.9510  -24.3730 O.2   162  VAL162     -0.2867
     92  CB       -65.3210  -14.0430  -21.7540 C.3   162  VAL162      0.0252
     93  CG1      -65.2350  -14.8280  -23.0620 C.3   162  VAL162      0.0019
     94  CG2      -64.2470  -14.5580  -20.7420 C.3   162  VAL162      0.0019
     95  N        -63.9910  -10.6250  -26.6030 N.3   166  GLN166     -0.1245
     96  CA       -63.9750  -11.3780  -27.8410 C.3   166  GLN166      0.1566
     97  C        -64.4230  -10.5430  -29.0230 C.2   166  GLN166      0.2260
     98  O        -64.1560  -10.9400  -30.1570 O.2   166  GLN166     -0.2867
     99  CB       -64.7850  -12.6920  -27.7070 C.3   166  GLN166      0.0367
    100  CG       -64.0730  -13.7390  -26.8250 C.3   166  GLN166      0.0905
    101  CD       -62.7920  -14.2570  -27.4630 C.2   166  GLN166      0.2608
    102  OE1      -61.7180  -13.7150  -27.2420 O.2   166  GLN166     -0.2717
    103  NE2      -62.9120  -15.3230  -28.2860 N.am  166  GLN166     -0.0878
    104  N        -57.0280  -18.4480  -28.7340 N.3   188  GLY188     -0.1225
    105  CA       -58.2820  -18.5800  -29.4300 C.3   188  GLY188      0.1811
    106  C        -57.9880  -18.7100  -30.9300 C.2   188  GLY188      0.2280
    107  O        -56.8180  -18.6320  -31.3770 O.2   188  GLY188     -0.2866
    108  N        -58.8210  -30.1730  -23.9940 N.3   213  GLY213     -0.1210
    109  CA       -57.9160  -30.0670  -22.8600 C.3   213  GLY213      0.1956
    110  C        -56.4790  -30.4440  -23.1700 C.2   213  GLY213      0.2612
    111  O        -56.2080  -31.5190  -23.7290 O.2   213  GLY213     -0.2717
    112  N        -55.5640  -29.5820  -22.7110 N.am  214  GLY214     -0.1956
    113  CA       -54.1510  -29.8560  -22.7720 C.3   214  GLY214      0.1869
    114  C        -53.3910  -29.1550  -23.8610 C.2   214  GLY214      0.2309
    115  O        -52.1590  -29.0460  -23.8020 O.2   214  GLY214     -0.2863
    116  N        -53.1800  -26.0160  -24.6920 N.3   216  GLY216     -0.1210
    117  CA       -52.4740  -24.8470  -24.1880 C.3   216  GLY216      0.1956
    118  C        -51.2670  -25.1930  -23.2960 C.2   216  GLY216      0.2611
    119  O        -50.3020  -24.4170  -23.2370 O.2   216  GLY216     -0.2717
    120  N        -51.3420  -26.3370  -22.5810 N.am  217  ASP217     -0.1973
    121  CA       -50.2260  -26.8220  -21.7800 C.3   217  ASP217      0.1709
    122  C        -49.0470  -27.1780  -22.6740 C.2   217  ASP217      0.2293
    123  O        -47.9090  -26.7750  -22.4310 O.2   217  ASP217     -0.2864
    124  CB       -50.6780  -27.9860  -20.8720 C.3   217  ASP217      0.1436
    125  CG       -51.8820  -27.6090  -20.0290 C.2   217  ASP217      0.3671
    126  OD1      -51.9270  -26.4730  -19.4690 O.co2 217  ASP217     -0.2456
    127  OD2      -52.8050  -28.4560  -19.9530 O.co2 217  ASP217     -0.2456
@<TRIPOS>BOND
     1   107   106    2
     2   106   105    1
     3    98    97    2
     4   105   104    1
     5    97    96    1
     6   103   101   am
     7    96    99    1
     8    96    95    1
     9    99   100    1
    10   101   102    2
    11   101   100    1
    12    62    63    1
    13    62    61    1
    14   116   117    1
    15    63    57    1
    16    91    90    2
    17   117   118    1
    18   108   109    1
    19    61    58    1
    20   114   115    2
    21   114   113    1
    22   111   110    2
    23    21    20    2
    24    25    23    1
    25   118   119    2
    26   118   120   am
    27    90    89    1
    28    57    58    1
    29    57    49   am
    30   110   109    1
    31   110   112   am
    32    93    92    1
    33    48    51    1
    34    48    49    1
    35    48    47    1
    36    51    52    1
    37    58    59    1
    38   113   112    1
    39   122   123    2
    40   122   121    1
    41   120   121    1
    42    49    50    2
    43    20    19    1
    44    89    92    1
    45    89    88    1
    46    23    22    1
    47    23    24    1
    48    19    22    1
    49    19    18    1
    50   121   124    1
    51    92    94    1
    52    52    54   ar
    53    52    53   ar
    54    59    64   am
    55    59    60    2
    56    54    56   ar
    57   124   125    1
    58    64    65    1
    59    53    55   ar
    60   125   127   ar
    61   125   126   ar
    62    56    55   ar
    63    75    74   ar
    64    65    66    1
    65    12    11    2
    66    68    66   am
    67    68    69    1
    68    16    15    2
    69    74    76   ar
    70    74    73    1
    71    66    67    2
    72    72    69    1
    73    72    73    1
    74    70    69    1
    75    70    71    2
    76    14    15    1
    77    14    13    1
    78    14    17    1
    79    11    13   am
    80    11    10    1
    81    38    39    1
    82    10     9    1
    83    42    39    1
    84    39    40    1
    85    77    78    1
    86    26    27    1
    87    40    41    2
    88    40    43   am
    89    78    79    1
    90    78    81    1
    91    79    80    2
    92    81    82    1
    93    87    85    1
    94    86    85    1
    95    27    28    1
    96    43    44    1
    97    85    84    2
    98     4     3    2
    99     3     2    1
   100     5     2    1
   101     5     6    1
   102    84    83    1
   103     7     6    1
   104     7     8    1
   105     2     1    1
   106    82    83    1
   107    28    30   am
   108    28    29    2
   109    44    45    1
   110    30    31    1
   111    45    46    2
   112    35    36    1
   113    35    34    1
   114    35    37    1
   115    33    32    2
   116    31    34    1
   117    31    32    1
