@<TRIPOS>MOLECULE
tmp/3rq5A00.pdb
 110 103 0 0 0
SMALL
GASTEIGER

@<TRIPOS>ATOM
      1  N        -53.1430  -32.0010  -10.7140 N.3    33  MET33      -0.1245
      2  CA       -53.0860  -31.7360  -12.1800 C.3    33  MET33       0.1570
      3  C        -51.6960  -32.1360  -12.7440 C.2    33  MET33       0.2261
      4  O        -50.8890  -31.2820  -13.1240 O.2    33  MET33      -0.2867
      5  CB       -53.3210  -30.2320  -12.4360 C.3    33  MET33       0.0387
      6  CG       -54.7700  -29.8100  -12.1860 C.3    33  MET33       0.0595
      7  SD       -54.8910  -27.9800  -12.2600 S.3    33  MET33      -0.1393
      8  CE       -54.1900  -27.5110  -10.6780 C.3    33  MET33       0.0692
      9  N        -54.1160  -21.8810   -8.6200 N.3   101  GLN101     -0.1245
     10  CA       -54.1250  -20.4270   -8.6670 C.3   101  GLN101      0.1566
     11  C        -53.9850  -19.8850   -7.2650 C.2   101  GLN101      0.2260
     12  O        -54.9320  -19.3190   -6.7390 O.2   101  GLN101     -0.2867
     13  CB       -55.4590  -19.9310   -9.2450 C.3   101  GLN101      0.0367
     14  CG       -55.6980  -20.3980  -10.6620 C.3   101  GLN101      0.0905
     15  CD       -57.1590  -20.2190  -11.1040 C.2   101  GLN101      0.2608
     16  OE1      -57.8100  -19.2030  -10.8000 O.2   101  GLN101     -0.2717
     17  NE2      -57.6710  -21.2110  -11.8150 N.am  101  GLN101     -0.0878
     18  N        -48.2490  -19.0790  -17.2570 N.3   122  ASP122     -0.1225
     19  CA       -49.4120  -19.7250  -17.8560 C.3   122  ASP122      0.1805
     20  C        -50.2990  -20.2680  -16.7370 C.2   122  ASP122      0.2597
     21  O        -49.8590  -20.4400  -15.6010 O.2   122  ASP122     -0.2718
     22  CB       -48.9550  -20.8400  -18.8010 C.3   122  ASP122      0.1424
     23  CG       -50.0910  -21.5170  -19.5600 C.2   122  ASP122      0.3668
     24  OD1      -51.1680  -20.9110  -19.8320 O.co2 122  ASP122     -0.2456
     25  OD2      -49.9100  -22.6970  -19.9200 O.co2 122  ASP122     -0.2456
     26  N        -51.5680  -20.4850  -17.0550 N.am  123  ALA123     -0.1979
     27  CA       -52.4800  -21.2680  -16.2130 C.3   123  ALA123      0.1597
     28  C        -52.5000  -20.7430  -14.7890 C.2   123  ALA123      0.2287
     29  O        -52.8760  -19.5800  -14.5910 O.2   123  ALA123     -0.2864
     30  CB       -52.1230  -22.7700  -16.2900 C.3   123  ALA123      0.0319
     31  N        -55.8170  -17.9680  -22.1220 N.3   143  HIS143     -0.1241
     32  CA       -57.1010  -18.1400  -22.8290 C.3   143  HIS143      0.1621
     33  C        -57.9690  -16.9380  -22.4420 C.2   143  HIS143      0.2264
     34  O        -57.6790  -16.2410  -21.4730 O.2   143  HIS143     -0.2867
     35  CB       -57.8510  -19.4070  -22.3780 C.3   143  HIS143      0.0745
     36  CG       -57.2320  -20.7010  -22.7940 C.ar  143  HIS143      0.0817
     37  ND1      -57.3670  -21.2210  -24.0690 N.ar  143  HIS143     -0.2268
     38  CD2      -56.5670  -21.6440  -22.0720 C.ar  143  HIS143      0.1154
     39  CE1      -56.7590  -22.3970  -24.1280 C.ar  143  HIS143      0.1986
     40  NE2      -56.2680  -22.6790  -22.9320 N.ar  143  HIS143     -0.2212
     41  N        -58.7920  -16.6000  -18.7690 N.3   146  GLU146     -0.1245
     42  CA       -57.6570  -16.1910  -17.9510 C.3   146  GLU146      0.1567
     43  C        -57.3660  -14.6870  -18.1330 C.2   146  GLU146      0.2260
     44  O        -56.9570  -14.0010  -17.2170 O.2   146  GLU146     -0.2867
     45  CB       -56.4300  -17.0420  -18.2950 C.3   146  GLU146      0.0388
     46  CG       -56.5920  -18.5000  -17.8430 C.3   146  GLU146      0.1160
     47  CD       -55.6490  -19.4950  -18.4630 C.2   146  GLU146      0.3649
     48  OE1      -55.2540  -19.3150  -19.6300 O.co2 146  GLU146     -0.2457
     49  OE2      -55.3520  -20.5180  -17.7970 O.co2 146  GLU146     -0.2457
     50  N        -59.6080  -12.9340  -15.8590 N.3   149  ARG149     -0.1245
     51  CA       -59.0110  -12.9960  -14.5210 C.3   149  ARG149      0.1563
     52  C        -57.9050  -11.9440  -14.3390 C.2   149  ARG149      0.2260
     53  O        -57.8320  -11.2740  -13.2820 O.2   149  ARG149     -0.2867
     54  CB       -58.4540  -14.4130  -14.2450 C.3   149  ARG149      0.0307
     55  CG       -58.0500  -14.6050  -12.8130 C.3   149  ARG149      0.0489
     56  CD       -58.0000  -16.1050  -12.5280 C.3   149  ARG149      0.2205
     57  NE       -56.7580  -16.6780  -13.0050 N.pl3 149  ARG149     -0.0865
     58  CZ       -56.6170  -17.8350  -13.6720 C.cat 149  ARG149      0.5346
     59  NH1      -57.6580  -18.5820  -14.0590 N.pl3 149  ARG149      0.1354
     60  NH2      -55.4020  -18.2540  -13.9670 N.pl3 149  ARG149      0.1354
     61  N        -54.7900  -16.4930  -26.5970 N.3   180  LYS180     -0.1245
     62  CA       -55.1750  -17.6660  -27.3650 C.3   180  LYS180      0.1561
     63  C        -56.6080  -17.6030  -27.8630 C.2   180  LYS180      0.2260
     64  O        -57.4470  -16.8760  -27.3250 O.2   180  LYS180     -0.2867
     65  CB       -54.8800  -18.9160  -26.5340 C.3   180  LYS180      0.0271
     66  CG       -53.3800  -19.0710  -26.3200 C.3   180  LYS180      0.0035
     67  CD       -53.0100  -20.3410  -25.5510 C.3   180  LYS180      0.0206
     68  CE       -53.5260  -20.3020  -24.1490 C.3   180  LYS180      0.1093
     69  NZ       -53.1410  -21.4890  -23.3400 N.3   180  LYS180     -0.1314
     70  N        -58.9700  -27.0010  -29.6450 N.3   204  ALA204     -0.1231
     71  CA       -59.9340  -26.6210  -28.6210 C.3   204  ALA204      0.1694
     72  C        -60.2370  -27.8300  -27.7520 C.2   204  ALA204      0.2592
     73  O        -61.3540  -28.3760  -27.7740 O.2   204  ALA204     -0.2718
     74  CB       -61.2290  -26.0430  -29.2530 C.3   204  ALA204      0.0304
     75  N        -59.2210  -28.2530  -27.0220 N.am  205  LYS205     -0.1966
     76  CA       -59.3210  -29.3920  -26.0840 C.3   205  LYS205      0.1728
     77  C        -58.2510  -29.2550  -25.0350 C.2   205  LYS205      0.2617
     78  O        -57.1560  -28.7240  -25.3060 O.2   205  LYS205     -0.2715
     79  CB       -59.1670  -30.7170  -26.8530 C.3   205  LYS205      0.0311
     80  CG       -59.5210  -31.9600  -26.0280 C.3   205  LYS205      0.0038
     81  CD       -59.3360  -33.2920  -26.8530 C.3   205  LYS205      0.0206
     82  CE       -60.2440  -33.3680  -28.1160 C.3   205  LYS205      0.1093
     83  NZ       -59.8970  -34.5650  -28.9350 N.3   205  LYS205     -0.1314
     84  N        -58.5390  -29.7380  -23.8220 N.am  206  GLY206     -0.1940
     85  CA       -57.5750  -29.6770  -22.7630 C.3   206  GLY206      0.2014
     86  C        -56.2190  -30.2310  -23.0990 C.2   206  GLY206      0.2639
     87  O        -56.0910  -31.2830  -23.7300 O.2   206  GLY206     -0.2714
     88  N        -55.1970  -29.4970  -22.6800 N.am  207  GLY207     -0.1939
     89  CA       -53.8170  -29.8890  -22.8120 C.3   207  GLY207      0.2014
     90  C        -53.0510  -29.1830  -23.9090 C.2   207  GLY207      0.2640
     91  O        -51.8080  -29.1430  -23.8770 O.2   207  GLY207     -0.2714
     92  N        -53.7410  -28.6110  -24.8980 N.am  208  THR208     -0.1936
     93  CA       -53.0210  -28.0200  -25.9840 C.3   208  THR208      0.2028
     94  C        -52.2770  -26.7380  -25.5520 C.2   208  THR208      0.2643
     95  O        -51.2370  -26.3890  -26.1700 O.2   208  THR208     -0.2714
     96  CB       -53.9200  -27.7440  -27.1970 C.3   208  THR208      0.1808
     97  OG1      -54.9030  -26.7650  -26.8290 O.3   208  THR208     -0.2208
     98  CG2      -54.6070  -29.0720  -27.6980 C.3   208  THR208      0.0379
     99  N        -52.7680  -26.0650  -24.5120 N.am  209  GLY209     -0.1939
    100  CA       -52.0970  -24.8860  -24.0130 C.3   209  GLY209      0.2014
    101  C        -50.8390  -25.2650  -23.2330 C.2   209  GLY209      0.2638
    102  O        -49.8530  -24.5240  -23.2430 O.2   209  GLY209     -0.2714
    103  N        -50.8770  -26.3930  -22.5210 N.am  210  ASP210     -0.1971
    104  CA       -49.6980  -26.9030  -21.8100 C.3   210  ASP210      0.1709
    105  C        -48.5940  -27.2130  -22.8120 C.2   210  ASP210      0.2293
    106  O        -47.4380  -26.8710  -22.6040 O.2   210  ASP210     -0.2864
    107  CB       -50.0510  -28.1650  -21.0100 C.3   210  ASP210      0.1436
    108  CG       -51.1610  -27.9330  -19.9910 C.2   210  ASP210      0.3671
    109  OD1      -51.2450  -26.8150  -19.4190 O.co2 210  ASP210     -0.2456
    110  OD2      -51.9400  -28.8980  -19.7730 O.co2 210  ASP210     -0.2456
@<TRIPOS>BOND
     1    70    71    1
     2    74    71    1
     3    83    82    1
     4    71    72    1
     5    82    81    1
     6    63    62    1
     7    63    64    2
     8    73    72    2
     9    72    75   am
    10    98    96    1
    11    62    61    1
    12    62    65    1
    13    96    97    1
    14    96    93    1
    15    75    76    1
    16    79    76    1
    17    79    80    1
    18    81    80    1
    19    65    66    1
    20    66    67    1
    21    95    94    2
    22    76    77    1
    23    93    94    1
    24    93    92    1
    25    94    99   am
    26    67    68    1
    27    78    77    2
    28    77    84   am
    29    92    90   am
    30    99   100    1
    31    68    69    1
    32    39    37   ar
    33    39    40   ar
    34    37    36   ar
    35   100   101    1
    36    90    91    2
    37    90    89    1
    38    84    85    1
    39    87    86    2
    40   102   101    2
    41   101   103   am
    42    86    85    1
    43    86    88   am
    44    40    38   ar
    45    32    33    1
    46    32    35    1
    47    32    31    1
    48   105   106    2
    49   105   104    1
    50    89    88    1
    51    36    35    1
    52    36    38   ar
    53   103   104    1
    54    33    34    2
    55   104   107    1
    56   107   108    1
    57   108   110   ar
    58   108   109   ar
    59    25    23   ar
    60    24    23   ar
    61    48    47   ar
    62    23    22    1
    63    22    19    1
    64    41    42    1
    65    47    46    1
    66    47    49   ar
    67    45    42    1
    68    45    46    1
    69    43    42    1
    70    43    44    2
    71    19    18    1
    72    19    20    1
    73    26    20   am
    74    26    27    1
    75    20    21    2
    76    30    27    1
    77    27    28    1
    78    50    51    1
    79    28    29    2
    80    51    52    1
    81    51    54    1
    82    52    53    2
    83    54    55    1
    84    59    58    1
    85    60    58    1
    86    58    57    2
    87     4     3    2
    88    57    56    1
    89    55    56    1
    90     3     2    1
    91     5     6    1
    92     5     2    1
    93     7     6    1
    94     7     8    1
    95     2     1    1
    96    17    15   am
    97    15    16    2
    98    15    14    1
    99    14    13    1
   100    13    10    1
   101    10     9    1
   102    10    11    1
   103    11    12    2
