@<TRIPOS>MOLECULE
tmp/3rq6A01.pdb
 112 111 0 0 0
SMALL
GASTEIGER

@<TRIPOS>ATOM
      1  N         56.8070   29.0750   17.0430 N.3    60  VAL60      -0.1245
      2  CA        56.5390   29.3750   15.6220 C.3    60  VAL60       0.1561
      3  C         55.0470   29.1020   15.3720 C.2    60  VAL60       0.2260
      4  O         54.5720   28.0070   15.6300 O.2    60  VAL60      -0.2867
      5  CB        57.4010   28.5700   14.7040 C.3    60  VAL60       0.0252
      6  CG1       57.0750   28.8440   13.2260 C.3    60  VAL60       0.0019
      7  CG2       58.8920   28.8090   14.9720 C.3    60  VAL60       0.0019
      8  N         57.1480   33.9390   16.5740 N.3    79  THR79      -0.1203
      9  CA        57.5220   34.1420   15.1790 C.3    79  THR79       0.1994
     10  C         56.6590   33.2710   14.2990 C.2    79  THR79       0.2618
     11  O         55.7990   32.5490   14.7480 O.2    79  THR79      -0.2717
     12  CB        59.0260   33.9100   14.9140 C.3    79  THR79       0.1784
     13  OG1       59.3010   32.5290   15.1890 O.3    79  THR79      -0.2211
     14  CG2       59.9350   34.8710   15.7600 C.3    79  THR79       0.0376
     15  N         56.8120   33.4380   12.9750 N.am   80  TYR80      -0.1961
     16  CA        55.8150   32.9220   12.0280 C.3    80  TYR80       0.1771
     17  C         56.4090   32.0750   10.9180 C.2    80  TYR80       0.2620
     18  O         57.5360   32.3220   10.4740 O.2    80  TYR80      -0.2715
     19  CB        55.0330   34.0890   11.3450 C.3    80  TYR80       0.0574
     20  CG        54.3410   34.8180   12.4380 C.ar   80  TYR80      -0.0198
     21  CD1       53.1310   34.3970   12.8970 C.ar   80  TYR80      -0.0009
     22  CD2       54.9470   35.8870   13.0430 C.ar   80  TYR80      -0.0009
     23  CE1       52.5450   34.9680   14.0110 C.ar   80  TYR80       0.0417
     24  CE2       54.4070   36.4740   14.1770 C.ar   80  TYR80       0.0417
     25  CZ        53.1500   36.0750   14.6250 C.ar   80  TYR80       0.1957
     26  OH        52.5900   36.5930   15.7960 O.3    80  TYR80      -0.2866
     27  N         55.6140   31.0920   10.5090 N.am   81  TRP81      -0.1960
     28  CA        55.7840   30.3800    9.2770 C.3    81  TRP81       0.1771
     29  C         54.5970   30.7720    8.4280 C.2    81  TRP81       0.2619
     30  O         53.4640   30.3290    8.6740 O.2    81  TRP81      -0.2715
     31  CB        55.8530   28.8750    9.5200 C.3    81  TRP81       0.0590
     32  CG        56.0040   28.0670    8.2320 C.ar   81  TRP81       0.0006
     33  CD1       56.5040   28.4680    7.0490 C.ar   81  TRP81       0.0946
     34  CD2       55.7320   26.6900    8.1150 C.ar   81  TRP81       0.0152
     35  NE1       56.5020   27.4270    6.1430 N.ar   81  TRP81      -0.2442
     36  CE2       56.0390   26.3130    6.7970 C.ar   81  TRP81       0.0810
     37  CE3       55.2220   25.7450    8.9840 C.ar   81  TRP81       0.0012
     38  CZ2       55.8740   25.0140    6.3480 C.ar   81  TRP81       0.0191
     39  CZ3       55.0550   24.4180    8.5110 C.ar   81  TRP81       0.0001
     40  CH2       55.3990   24.0850    7.2350 C.ar   81  TRP81       0.0015
     41  N         54.8230   31.6710    7.4730 N.am   82  ARG82      -0.1977
     42  CA        53.7180   32.2600    6.7290 C.3    82  ARG82       0.1597
     43  C         52.9410   31.2130    5.9490 C.2    82  ARG82       0.2287
     44  O         53.5180   30.4670    5.1550 O.2    82  ARG82      -0.2864
     45  CB        54.2520   33.3330    5.8000 C.3    82  ARG82       0.0334
     46  CG        53.2710   34.1840    5.1130 C.3    82  ARG82       0.0492
     47  CD        54.0300   35.3880    4.3420 C.3    82  ARG82       0.2205
     48  NE        54.5510   36.2840    5.3750 N.pl3  82  ARG82      -0.0865
     49  CZ        53.9100   37.3160    5.9220 C.cat  82  ARG82       0.5346
     50  NH1       52.7720   37.7660    5.4040 N.pl3  82  ARG82       0.1354
     51  NH2       54.4260   37.9330    7.0010 N.pl3  82  ARG82       0.1354
     52  N         50.9880   25.2330    3.8020 N.3    87  LYS87      -0.1245
     53  CA        52.2260   24.6660    3.3150 C.3    87  LYS87       0.1561
     54  C         52.4990   23.2580    3.8060 C.2    87  LYS87       0.2260
     55  O         53.0940   22.4300    3.0910 O.2    87  LYS87      -0.2867
     56  CB        53.4200   25.5640    3.5720 C.3    87  LYS87       0.0271
     57  CG        53.3830   26.8670    2.8220 C.3    87  LYS87       0.0035
     58  CD        54.4640   27.7910    3.2800 C.3    87  LYS87       0.0206
     59  CE        54.4590   29.1160    2.5600 C.3    87  LYS87       0.1093
     60  NZ        55.3520   30.1330    3.2870 N.3    87  LYS87      -0.1314
     61  N         54.3490   19.2240    2.1090 N.3    91  ALA91      -0.1231
     62  CA        55.6480   18.5390    2.2680 C.3    91  ALA91       0.1694
     63  C         55.9700   18.3740    3.7020 C.2    91  ALA91       0.2592
     64  O         55.3070   18.9280    4.5360 O.2    91  ALA91      -0.2718
     65  CB        56.7910   19.3020    1.5710 C.3    91  ALA91       0.0304
     66  N         56.9690   17.5370    3.9390 N.am   92  GLN92      -0.1966
     67  CA        57.4020   17.2020    5.2910 C.3    92  GLN92       0.1733
     68  C         57.9630   18.4160    5.9230 C.2    92  GLN92       0.2616
     69  O         58.5420   19.2480    5.2670 O.2    92  GLN92      -0.2715
     70  CB        58.5180   16.1400    5.2680 C.3    92  GLN92       0.0408
     71  CG        58.0740   14.7810    5.7760 C.3    92  GLN92       0.0908
     72  CD        56.8020   14.2950    5.0970 C.2    92  GLN92       0.2608
     73  OE1       55.9320   13.6840    5.7420 O.2    92  GLN92      -0.2717
     74  NE2       56.6730   14.5850    3.7990 N.am   92  GLN92      -0.0878
     75  N         57.8220   18.5010    7.2300 N.am   93  LEU93      -0.1963
     76  CA        58.4900   19.5450    7.9300 C.3    93  LEU93       0.1728
     77  C         60.0030   19.3250    7.8380 C.2    93  LEU93       0.2616
     78  O         60.4810   18.2180    8.0430 O.2    93  LEU93      -0.2715
     79  CB        58.0450   19.5710    9.3710 C.3    93  LEU93       0.0311
     80  CG        56.5540   19.7920    9.5860 C.3    93  LEU93       0.0022
     81  CD1       56.3100   19.8450   11.0820 C.3    93  LEU93       0.0001
     82  CD2       56.0510   21.0500    8.9080 C.3    93  LEU93       0.0001
     83  N         60.7160   20.4110    7.5400 N.am   94  GLU94      -0.1963
     84  CA        62.1620   20.4230    7.4040 C.3    94  GLU94       0.1733
     85  C         62.8280   20.7660    8.7080 C.2    94  GLU94       0.2616
     86  O         63.9830   20.3630    8.9320 O.2    94  GLU94      -0.2715
     87  CB        62.6070   21.4270    6.3130 C.3    94  GLU94       0.0429
     88  CG        62.0330   21.1430    4.9160 C.3    94  GLU94       0.1163
     89  CD        62.6260   19.9010    4.2570 C.2    94  GLU94       0.3649
     90  OE1       62.7460   19.8920    3.0060 O.co2  94  GLU94      -0.2457
     91  OE2       62.9730   18.9330    4.9780 O.co2  94  GLU94      -0.2457
     92  N         62.1170   21.4790    9.5840 N.am   95  GLU95      -0.1977
     93  CA        62.7030   21.8800   10.8630 C.3    95  GLU95       0.1602
     94  C         62.2220   20.8890   11.9310 C.2    95  GLU95       0.2287
     95  O         61.2120   20.1700   11.7480 O.2    95  GLU95      -0.2864
     96  CB        62.3650   23.3340   11.2350 C.3    95  GLU95       0.0415
     97  CG        61.8770   24.2510   10.0920 C.3    95  GLU95       0.1163
     98  CD        62.9160   24.5620    9.0190 C.2    95  GLU95       0.3649
     99  OE1       64.1260   24.7150    9.3760 O.co2  95  GLU95      -0.2457
    100  OE2       62.5180   24.6570    7.8130 O.co2  95  GLU95      -0.2457
    101  N         60.9620   20.3290   15.7760 N.3    97  TYR97      -0.1241
    102  CA        60.2210   20.9690   16.8130 C.3    97  TYR97       0.1605
    103  C         60.1260   20.0240   17.9750 C.2    97  TYR97       0.2264
    104  O         60.1640   18.8060   17.7810 O.2    97  TYR97      -0.2867
    105  CB        58.8080   21.3400   16.3040 C.3    97  TYR97       0.0534
    106  CG        58.8660   22.3710   15.2490 C.ar   97  TYR97      -0.0201
    107  CD1       59.0330   23.7290   15.5820 C.ar   97  TYR97      -0.0009
    108  CD2       58.6770   22.0480   13.9650 C.ar   97  TYR97      -0.0009
    109  CE1       59.1020   24.6900   14.6840 C.ar   97  TYR97       0.0417
    110  CE2       58.7480   22.9970   13.0380 C.ar   97  TYR97       0.0417
    111  CZ        58.9560   24.3320   13.3900 C.ar   97  TYR97       0.1957
    112  OH        59.0250   25.2920   12.3810 O.3    97  TYR97      -0.2866
@<TRIPOS>BOND
     1    65    62    1
     2    61    62    1
     3    62    63    1
     4    59    58    1
     5    59    60    1
     6    57    58    1
     7    57    56    1
     8    90    89   ar
     9    55    54    2
    10    53    56    1
    11    53    52    1
    12    53    54    1
    13    63    66   am
    14    63    64    2
    15    74    72   am
    16    66    67    1
    17    89    88    1
    18    89    91   ar
    19    47    46    1
    20    47    48    1
    21    88    87    1
    22    72    73    2
    23    72    71    1
    24    46    45    1
    25    44    43    2
    26    69    68    2
    27    70    67    1
    28    70    71    1
    29    67    68    1
    30    48    49    2
    31    50    49    1
    32    45    42    1
    33    49    51    1
    34    68    75   am
    35    43    42    1
    36    35    36   ar
    37    35    33   ar
    38    87    84    1
    39    38    36   ar
    40    38    40   ar
    41    42    41    1
    42    36    34   ar
    43    33    32   ar
    44    75    76    1
    45    40    39   ar
    46    84    83    1
    47    84    85    1
    48    41    29   am
    49    83    77   am
    50   100    98   ar
    51    77    76    1
    52    77    78    2
    53    76    79    1
    54    34    32   ar
    55    34    37   ar
    56    32    31    1
    57    29    30    2
    58    29    28    1
    59    39    37   ar
    60    85    86    2
    61    85    92   am
    62    82    80    1
    63    98    99   ar
    64    98    97    1
    65    28    31    1
    66    28    27    1
    67    79    80    1
    68    92    93    1
    69    80    81    1
    70    97    96    1
    71    18    17    2
    72    27    17   am
    73    93    96    1
    74    93    94    1
    75    17    16    1
    76    19    16    1
    77    19    20    1
    78    95    94    2
    79    16    15    1
    80   112   111    1
    81    20    21   ar
    82    20    22   ar
    83    21    23   ar
    84    15    10   am
    85   110   111   ar
    86   110   108   ar
    87    22    24   ar
    88     6     5    1
    89   111   109   ar
    90   108   106   ar
    91    23    25   ar
    92    24    25   ar
    93    10    11    2
    94    10     9    1
    95    25    26    1
    96   109   107   ar
    97     5     7    1
    98     5     2    1
    99    12     9    1
   100    12    13    1
   101    12    14    1
   102     9     8    1
   103   106   107   ar
   104   106   105    1
   105     3     2    1
   106     3     4    2
   107     2     1    1
   108   101   102    1
   109   105   102    1
   110   102   103    1
   111   104   103    2
