@<TRIPOS>MOLECULE
tmp/3rq6A00.pdb
 184 174 0 0 0
SMALL
GASTEIGER

@<TRIPOS>ATOM
      1  N         38.1320   32.1320   11.2220 N.3    40  MET40      -0.1245
      2  CA        38.3790   31.7190   12.5860 C.3    40  MET40       0.1570
      3  C         39.8360   32.0780   12.9440 C.2    40  MET40       0.2261
      4  O         40.6490   31.1930   13.2770 O.2    40  MET40      -0.2867
      5  CB        38.1290   30.2290   12.7420 C.3    40  MET40       0.0387
      6  CG        36.6710   29.9210   12.5030 C.3    40  MET40       0.0595
      7  SD        36.3710   28.1330   12.6700 S.3    40  MET40      -0.1393
      8  CE        37.2340   27.4870   11.3200 C.3    40  MET40       0.0692
      9  N         41.4500   31.7160   17.1500 N.3    43  ALA43      -0.1245
     10  CA        41.9780   30.4920   17.7300 C.3    43  ALA43       0.1562
     11  C         43.5180   30.4970   17.7810 C.2    43  ALA43       0.2260
     12  O         44.1050   29.9420   18.6930 O.2    43  ALA43      -0.2867
     13  CB        41.4800   29.2740   16.9480 C.3    43  ALA43       0.0290
     14  N         44.5480   32.6730   20.7170 N.3    46  LEU46      -0.1245
     15  CA        44.2480   31.9890   21.9910 C.3    46  LEU46       0.1561
     16  C         45.2620   30.8400   22.2740 C.2    46  LEU46       0.2260
     17  O         45.7660   30.7160   23.3960 O.2    46  LEU46      -0.2867
     18  CB        42.8260   31.4500   21.9820 C.3    46  LEU46       0.0270
     19  CG        41.7810   32.5630   22.1010 C.3    46  LEU46       0.0019
     20  CD1       40.4320   31.9500   21.7270 C.3    46  LEU46       0.0001
     21  CD2       41.7480   33.1440   23.5980 C.3    46  LEU46       0.0001
     22  N         40.9700   26.7170   14.9730 N.3   105  GLY105     -0.1225
     23  CA        40.6130   27.6200   13.8680 C.3   105  GLY105      0.1811
     24  C         40.8060   27.1870   12.4390 C.2   105  GLY105      0.2280
     25  O         40.6550   28.0120   11.5420 O.2   105  GLY105     -0.2866
     26  N         43.4540   19.0530   17.2930 N.3   129  ASP129     -0.1225
     27  CA        42.2910   19.6750   17.8830 C.3   129  ASP129      0.1805
     28  C         41.3880   20.2040   16.7910 C.2   129  ASP129      0.2597
     29  O         41.8120   20.3590   15.6920 O.2   129  ASP129     -0.2718
     30  CB        42.7440   20.8060   18.8260 C.3   129  ASP129      0.1424
     31  CG        41.6110   21.4390   19.5960 C.2   129  ASP129      0.3668
     32  OD1       40.6480   20.7640   19.8450 O.co2 129  ASP129     -0.2456
     33  OD2       41.6990   22.6160   19.8860 O.co2 129  ASP129     -0.2456
     34  N         40.1500   20.4790   17.1330 N.am  130  ALA130     -0.1979
     35  CA        39.2580   21.2240   16.2750 C.3   130  ALA130      0.1597
     36  C         39.2010   20.6910   14.8560 C.2   130  ALA130      0.2287
     37  O         38.8210   19.5950   14.6330 O.2   130  ALA130     -0.2864
     38  CB        39.6520   22.6550   16.2720 C.3   130  ALA130      0.0319
     39  N         35.9210   17.8650   22.0710 N.3   150  HIS150     -0.1241
     40  CA        34.6870   17.9680   22.8330 C.3   150  HIS150      0.1621
     41  C         33.7390   16.8730   22.3430 C.2   150  HIS150      0.2264
     42  O         34.0000   16.1880   21.3380 O.2   150  HIS150     -0.2867
     43  CB        34.0360   19.3650   22.7960 C.3   150  HIS150      0.0745
     44  CG        33.4100   19.7140   21.4770 C.ar  150  HIS150      0.0817
     45  ND1       33.7400   20.8500   20.7710 N.ar  150  HIS150     -0.2268
     46  CD2       32.5060   19.0590   20.7160 C.ar  150  HIS150      0.1154
     47  CE1       33.0510   20.8870   19.6400 C.ar  150  HIS150      0.1986
     48  NE2       32.2990   19.8060   19.5800 N.ar  150  HIS150     -0.2212
     49  N         32.9230   16.5340   18.6460 N.3   153  GLU153     -0.1245
     50  CA        34.0400   16.1110   17.8100 C.3   153  GLU153      0.1567
     51  C         34.2910   14.6100   18.0150 C.2   153  GLU153      0.2260
     52  O         34.7260   13.9130   17.1390 O.2   153  GLU153     -0.2867
     53  CB        35.2830   16.9510   18.1130 C.3   153  GLU153      0.0388
     54  CG        35.0790   18.4530   17.7580 C.3   153  GLU153      0.1160
     55  CD        36.0190   19.4300   18.3890 C.2   153  GLU153      0.3649
     56  OE1       36.5440   19.1610   19.4930 O.co2 153  GLU153     -0.2457
     57  OE2       36.1610   20.5170   17.7770 O.co2 153  GLU153     -0.2457
     58  N         36.7840   16.3940   26.5290 N.3   187  LYS187     -0.1231
     59  CA        36.4480   17.6010   27.2400 C.3   187  LYS187      0.1693
     60  C         35.0660   17.5610   27.8690 C.2   187  LYS187      0.2593
     61  O         34.2020   16.7080   27.5230 O.2   187  LYS187     -0.2718
     62  CB        36.5660   18.7530   26.2480 C.3   187  LYS187      0.0285
     63  CG        37.9560   19.0520   25.8520 C.3   187  LYS187      0.0035
     64  CD        37.9300   19.9270   24.5460 C.3   187  LYS187      0.0206
     65  CE        39.1820   20.6160   24.3590 C.3   187  LYS187      0.1093
     66  NZ        39.3410   21.1040   22.8780 N.3   187  LYS187     -0.1314
     67  N         34.9010   18.4300   28.8620 N.am  188  GLY188     -0.1942
     68  CA        33.6830   18.5620   29.6220 C.3   188  GLY188      0.2014
     69  C         33.9790   18.7050   31.0920 C.2   188  GLY188      0.2639
     70  O         35.1230   18.6100   31.5210 O.2   188  GLY188     -0.2714
     71  N         32.9500   18.9010   31.8760 N.am  189  ASN189     -0.1958
     72  CA        33.0780   18.7350   33.3220 C.3   189  ASN189      0.1819
     73  C         33.7150   17.3500   33.5290 C.2   189  ASN189      0.2621
     74  O         33.3200   16.4020   32.8360 O.2   189  ASN189     -0.2715
     75  CB        31.6890   18.7850   33.9360 C.3   189  ASN189      0.1195
     76  CG        31.7080   18.5780   35.4450 C.2   189  ASN189      0.2630
     77  OD1       32.5430   19.1130   36.1310 O.2   189  ASN189     -0.2716
     78  ND2       30.7950   17.7570   35.9410 N.am  189  ASN189     -0.0877
     79  N         34.6880   17.2410   34.4370 N.am  190  GLN190     -0.1963
     80  CA        35.4430   16.0190   34.6910 C.3   190  GLN190      0.1733
     81  C         35.9990   15.4910   33.3500 C.2   190  GLN190      0.2617
     82  O         35.6890   14.3790   32.9140 O.2   190  GLN190     -0.2715
     83  CB        34.6240   14.9800   35.4390 C.3   190  GLN190      0.0408
     84  CG        34.2790   15.5010   36.8850 C.3   190  GLN190      0.0908
     85  CD        33.6340   14.4900   37.7610 C.2   190  GLN190      0.2608
     86  OE1       33.1840   13.4500   37.3040 O.2   190  GLN190     -0.2717
     87  NE2       33.5400   14.8060   39.0710 N.am  190  GLN190     -0.0878
     88  N         36.8160   16.3210   32.7240 N.am  191  THR191     -0.1951
     89  CA        37.5290   15.9600   31.4840 C.3   191  THR191      0.1897
     90  C         38.2540   14.6180   31.7180 C.2   191  THR191      0.2313
     91  O         38.8450   14.4010   32.7910 O.2   191  THR191     -0.2863
     92  CB        38.5320   17.0380   31.0800 C.3   191  THR191      0.1794
     93  OG1       37.7780   18.1320   30.5260 O.3   191  THR191     -0.2208
     94  CG2       39.5340   16.5410   30.0400 C.3   191  THR191      0.0378
     95  N         39.4430   19.8220   38.2020 N.3   205  THR205     -0.1203
     96  CA        39.3670   21.2830   38.2790 C.3   205  THR205      0.1994
     97  C         38.4760   21.8170   37.1580 C.2   205  THR205      0.2618
     98  O         38.2500   21.1790   36.1230 O.2   205  THR205     -0.2717
     99  CB        40.7790   21.9340   38.1800 C.3   205  THR205      0.1784
    100  OG1       41.3020   21.6360   36.8940 O.3   205  THR205     -0.2211
    101  CG2       41.7250   21.4640   39.3180 C.3   205  THR205      0.0376
    102  N         38.1000   23.0880   37.3120 N.am  206  GLY206     -0.1942
    103  CA        37.2950   23.7580   36.3350 C.3   206  GLY206      0.2014
    104  C         35.8460   23.9460   36.7710 C.2   206  GLY206      0.2639
    105  O         35.3860   23.3840   37.7750 O.2   206  GLY206     -0.2714
    106  N         35.1420   24.7470   35.9890 N.am  207  ASN207     -0.1958
    107  CA        33.7430   25.0290   36.2250 C.3   207  ASN207      0.1819
    108  C         33.1090   25.6070   35.0000 C.2   207  ASN207      0.2621
    109  O         33.7260   25.6390   33.9080 O.2   207  ASN207     -0.2715
    110  CB        33.5870   25.9600   37.4080 C.3   207  ASN207      0.1195
    111  CG        34.3000   27.2620   37.2240 C.2   207  ASN207      0.2630
    112  OD1       34.2870   27.8320   36.1180 O.2   207  ASN207     -0.2716
    113  ND2       34.9340   27.7730   38.3010 N.am  207  ASN207     -0.0877
    114  N         31.8300   26.0020   35.1200 N.am  208  GLY208     -0.1954
    115  CA        31.1130   26.4230   33.9370 C.3   208  GLY208      0.1869
    116  C         31.5590   27.7360   33.3340 C.2   208  GLY208      0.2309
    117  O         31.1460   28.0780   32.2200 O.2   208  GLY208     -0.2863
    118  N         34.2400   27.9360   31.9960 N.3   210  LEU210     -0.1231
    119  CA        34.8860   27.4200   30.7740 C.3   210  LEU210      0.1693
    120  C         33.9780   27.0870   29.6240 C.2   210  LEU210      0.2592
    121  O         34.4600   26.8560   28.5090 O.2   210  LEU210     -0.2718
    122  CB        35.7320   26.1970   31.1040 C.3   210  LEU210      0.0284
    123  CG        36.8920   26.4060   32.0830 C.3   210  LEU210      0.0019
    124  CD1       37.4390   25.0370   32.5210 C.3   210  LEU210      0.0001
    125  CD2       38.0000   27.2800   31.4770 C.3   210  LEU210      0.0001
    126  N         32.6730   27.1100   29.8370 N.am  211  ALA211     -0.1966
    127  CA        31.7000   26.7130   28.8530 C.3   211  ALA211      0.1728
    128  C         31.3870   27.8990   27.9320 C.2   211  ALA211      0.2616
    129  O         30.2500   28.4330   27.9100 O.2   211  ALA211     -0.2715
    130  CB        30.4400   26.1880   29.5600 C.3   211  ALA211      0.0334
    131  N         32.4080   28.3060   27.1600 N.am  212  LYS212     -0.1963
    132  CA        32.3120   29.4420   26.2500 C.3   212  LYS212      0.1728
    133  C         33.3920   29.3250   25.2250 C.2   212  LYS212      0.2617
    134  O         34.4530   28.7660   25.5080 O.2   212  LYS212     -0.2715
    135  CB        32.4570   30.7410   27.0370 C.3   212  LYS212      0.0311
    136  CG        32.0810   31.9920   26.2730 C.3   212  LYS212      0.0038
    137  CD        32.2580   33.3220   27.0640 C.3   212  LYS212      0.0206
    138  CE        31.3620   33.4170   28.3220 C.3   212  LYS212      0.1093
    139  NZ        31.7760   34.6240   29.1270 N.3   212  LYS212     -0.1314
    140  N         33.1320   29.8820   24.0340 N.am  213  GLY213     -0.1940
    141  CA        34.0790   29.8320   22.9440 C.3   213  GLY213      0.2014
    142  C         35.4790   30.2620   23.3200 C.2   213  GLY213      0.2639
    143  O         35.6990   31.3050   23.9070 O.2   213  GLY213     -0.2714
    144  N         36.4290   29.4080   22.9660 N.am  214  GLY214     -0.1939
    145  CA        37.8570   29.7580   22.9810 C.3   214  GLY214      0.2014
    146  C         38.6590   29.0890   24.0550 C.2   214  GLY214      0.2640
    147  O         39.8980   29.0860   24.0330 O.2   214  GLY214     -0.2714
    148  N         37.9760   28.5580   25.0500 N.am  215  THR215     -0.1936
    149  CA        38.6820   27.9840   26.1670 C.3   215  THR215      0.2028
    150  C         39.4320   26.6850   25.8090 C.2   215  THR215      0.2643
    151  O         40.4790   26.3850   26.3840 O.2   215  THR215     -0.2714
    152  CB        37.7560   27.7350   27.3520 C.3   215  THR215      0.1808
    153  OG1       36.7460   26.7910   26.9620 O.3   215  THR215     -0.2208
    154  CG2       37.1000   29.0740   27.8620 C.3   215  THR215      0.0379
    155  N         38.9380   25.9780   24.7860 N.am  216  GLY216     -0.1939
    156  CA        39.6090   24.8030   24.3030 C.3   216  GLY216      0.2014
    157  C         40.8130   25.1470   23.4400 C.2   216  GLY216      0.2638
    158  O         41.8340   24.4490   23.4750 O.2   216  GLY216     -0.2714
    159  N         40.7130   26.2070   22.6310 N.am  217  ASP217     -0.1971
    160  CA        41.8890   26.7070   21.8900 C.3   217  ASP217      0.1709
    161  C         42.9970   27.0600   22.8720 C.2   217  ASP217      0.2293
    162  O         44.1970   26.7280   22.6620 O.2   217  ASP217     -0.2864
    163  CB        41.5410   27.9290   21.0700 C.3   217  ASP217      0.1436
    164  CG        40.4370   27.6820   20.0440 C.2   217  ASP217      0.3671
    165  OD1       40.2670   26.5270   19.5560 O.co2 217  ASP217     -0.2456
    166  OD2       39.7710   28.6950   19.7020 O.co2 217  ASP217     -0.2456
    167  N         43.4310   25.7720   25.8720 N.3   219  LEU219     -0.1245
    168  CA        43.9480   24.4990   26.3890 C.3   219  LEU219      0.1561
    169  C         44.9080   23.8190   25.4340 C.2   219  LEU219      0.2260
    170  O         45.9440   23.3190   25.8150 O.2   219  LEU219     -0.2867
    171  CB        42.8080   23.5520   26.7430 C.3   219  LEU219      0.0270
    172  CG        43.2630   22.1430   27.1450 C.3   219  LEU219      0.0019
    173  CD1       44.0930   22.1900   28.4840 C.3   219  LEU219      0.0001
    174  CD2       42.0280   21.2260   27.3270 C.3   219  LEU219      0.0001
    175  N         44.6030   24.5280   33.6280 N.3   244  HIS244     -0.1241
    176  CA        43.5840   25.2130   32.8730 C.3   244  HIS244      0.1621
    177  C         42.2860   25.3300   33.6740 C.2   244  HIS244      0.2264
    178  O         41.7100   26.4220   33.7470 O.2   244  HIS244     -0.2867
    179  CB        43.4050   24.4500   31.5430 C.3   244  HIS244      0.0745
    180  CG        42.2930   24.9120   30.6530 C.ar  244  HIS244      0.0817
    181  ND1       41.0620   24.2840   30.6270 N.ar  244  HIS244     -0.2268
    182  CD2       42.2620   25.8610   29.6610 C.ar  244  HIS244      0.1154
    183  CE1       40.3180   24.8490   29.6780 C.ar  244  HIS244      0.1986
    184  NE2       41.0160   25.8080   29.0930 N.ar  244  HIS244     -0.2212
@<TRIPOS>BOND
     1     1     2    1
     2     8     7    1
     3    25    24    2
     4    24    23    1
     5     6     7    1
     6     6     5    1
     7     2     5    1
     8     2     3    1
     9     3     4    2
    10    23    22    1
    11    37    36    2
    12    36    35    1
    13    29    28    2
    14    38    35    1
    15    35    34    1
    16    28    34   am
    17    28    27    1
    18    13    10    1
    19    52    51    2
    20     9    10    1
    21    26    27    1
    22    10    11    1
    23    54    53    1
    24    54    55    1
    25    57    55   ar
    26    11    12    2
    27    50    51    1
    28    50    53    1
    29    50    49    1
    30    27    30    1
    31    55    56   ar
    32    30    31    1
    33   165   164   ar
    34    48    47   ar
    35    48    46   ar
    36    31    32   ar
    37    31    33   ar
    38    47    45   ar
    39   166   164   ar
    40   164   163    1
    41    46    44   ar
    42    14    15    1
    43    45    44   ar
    44   163   160    1
    45    42    41    2
    46    44    43    1
    47    20    19    1
    48   160   159    1
    49   160   161    1
    50    18    15    1
    51    18    19    1
    52    15    16    1
    53    39    40    1
    54    19    21    1
    55    16    17    2
    56    41    40    1
    57   159   157   am
    58   162   161    2
    59    43    40    1
    60    66    65    1
    61   141   142    1
    62   141   140    1
    63   144   145    1
    64   144   142   am
    65   145   146    1
    66   142   143    2
    67   157   158    2
    68   157   156    1
    69   147   146    2
    70   140   133   am
    71   146   148   am
    72   156   155    1
    73    65    64    1
    74    64    63    1
    75   155   150   am
    76   148   149    1
    77   133   134    2
    78   133   132    1
    79   169   170    2
    80   169   168    1
    81   150   149    1
    82   150   151    2
    83    63    62    1
    84   167   168    1
    85   149   152    1
    86    62    59    1
    87   132   135    1
    88   132   131    1
    89   136   135    1
    90   136   137    1
    91   168   171    1
    92    58    59    1
    93   171   172    1
    94   153   152    1
    95   137   138    1
    96   172   174    1
    97   172   173    1
    98   131   128   am
    99    59    60    1
   100   152   154    1
   101    61    60    2
   102    60    67   am
   103   129   128    2
   104   128   127    1
   105   138   139    1
   106   121   120    2
   107   127   130    1
   108   127   126    1
   109    67    68    1
   110   184   182   ar
   111   184   183   ar
   112    68    69    1
   113   120   126   am
   114   120   119    1
   115   182   180   ar
   116   183   181   ar
   117    94    92    1
   118    93    92    1
   119   181   180   ar
   120   180   179    1
   121   119   122    1
   122   119   118    1
   123    92    89    1
   124    69    70    2
   125    69    71   am
   126   122   123    1
   127   125   123    1
   128    89    90    1
   129    89    88    1
   130   179   176    1
   131    90    91    2
   132    71    72    1
   133   123   124    1
   134   117   116    2
   135    88    81   am
   136    74    73    2
   137   176   175    1
   138   176   177    1
   139    82    81    2
   140    72    73    1
   141    72    75    1
   142   116   115    1
   143    81    80    1
   144    73    79   am
   145   177   178    2
   146   109   108    2
   147    75    76    1
   148   115   114    1
   149    79    80    1
   150    80    83    1
   151   108   114   am
   152   108   107    1
   153    83    84    1
   154    76    78   am
   155    76    77    2
   156   106   107    1
   157   106   104   am
   158   112   111    2
   159    98    97    2
   160   107   110    1
   161   103   104    1
   162   103   102    1
   163   104   105    2
   164    84    85    1
   165   100    99    1
   166    97   102   am
   167    97    96    1
   168   111   110    1
   169   111   113   am
   170    86    85    2
   171    85    87   am
   172    99    96    1
   173    99   101    1
   174    95    96    1
