@<TRIPOS>MOLECULE
tmp/3rq7A00.pdb
 217 214 0 0 0
SMALL
GASTEIGER

@<TRIPOS>ATOM
      1  N         -0.3970   13.3040   13.0680 N.3    40  SER40      -0.1202
      2  CA        -1.3470   14.0500   12.2430 C.3    40  SER40       0.2020
      3  C         -1.4940   15.4960   12.6530 C.2    40  SER40       0.2619
      4  O         -1.8260   16.3180   11.8280 O.2    40  SER40      -0.2717
      5  CB        -2.7350   13.4230   12.2640 C.3    40  SER40       0.2103
      6  OG        -2.7600   12.2030   11.5600 O.3    40  SER40      -0.2182
      7  N         -1.2520   15.8050   13.9380 N.am   41  LYS41      -0.1965
      8  CA        -1.3350   17.1830   14.4540 C.3    41  LYS41       0.1728
      9  C         -0.3560   17.3280   15.6010 C.2    41  LYS41       0.2616
     10  O         -0.0510   16.3280   16.2470 O.2    41  LYS41      -0.2715
     11  CB        -2.7160   17.4630   15.0210 C.3    41  LYS41       0.0311
     12  CG        -3.8730   17.2870   14.0540 C.3    41  LYS41       0.0038
     13  CD        -5.2050   17.6360   14.6600 C.3    41  LYS41       0.0206
     14  CE        -6.2750   17.3600   13.6490 C.3    41  LYS41       0.1093
     15  NZ        -7.5660   17.8920   14.0890 N.3    41  LYS41      -0.1314
     16  N          0.1050   18.5540   15.8780 N.am   42  TRP42      -0.1960
     17  CA         0.9770   18.7840   17.0320 C.3    42  TRP42       0.1771
     18  C          0.8340   20.2290   17.5210 C.2    42  TRP42       0.2620
     19  O          0.4260   21.1250   16.7690 O.2    42  TRP42      -0.2715
     20  CB         2.4480   18.3770   16.7650 C.3    42  TRP42       0.0590
     21  CG         3.0660   19.1360   15.6450 C.ar   42  TRP42       0.0006
     22  CD1        3.1840   18.7170   14.3630 C.ar   42  TRP42       0.0946
     23  CD2        3.6330   20.4640   15.7050 C.ar   42  TRP42       0.0152
     24  NE1        3.7160   19.7300   13.5970 N.ar   42  TRP42      -0.2442
     25  CE2        4.0120   20.8030   14.4030 C.ar   42  TRP42       0.0810
     26  CE3        3.8070   21.4120   16.7300 C.ar   42  TRP42       0.0012
     27  CZ2        4.5820   22.0200   14.0810 C.ar   42  TRP42       0.0191
     28  CZ3        4.3690   22.6360   16.4080 C.ar   42  TRP42       0.0001
     29  CH2        4.7530   22.9320   15.0960 C.ar   42  TRP42       0.0015
     30  N          1.0510   20.3790   18.8300 N.am   43  VAL43      -0.1963
     31  CA         1.0170   21.6660   19.5370 C.3    43  VAL43       0.1727
     32  C          2.2390   21.7760   20.4210 C.2    43  VAL43       0.2616
     33  O          2.4120   21.0140   21.3380 O.2    43  VAL43      -0.2715
     34  CB        -0.2790   21.7810   20.4020 C.3    43  VAL43       0.0290
     35  CG1       -0.2410   23.1190   21.1450 C.3    43  VAL43       0.0023
     36  CG2       -1.5320   21.6380   19.5910 C.3    43  VAL43       0.0023
     37  N          3.1110   22.7480   20.1240 N.am   44  ASP44      -0.1957
     38  CA         4.2800   23.0110   20.9040 C.3    44  ASP44       0.1840
     39  C          3.9420   24.0690   22.0000 C.2    44  ASP44       0.2622
     40  O          3.9300   25.2580   21.7350 O.2    44  ASP44      -0.2715
     41  CB         5.3850   23.5150   19.9910 C.3    44  ASP44       0.1450
     42  CG         6.6450   23.9330   20.7310 C.2    44  ASP44       0.3671
     43  OD1        6.7090   23.7910   21.9740 O.co2  44  ASP44      -0.2456
     44  OD2        7.5990   24.3960   20.0490 O.co2  44  ASP44      -0.2456
     45  N          3.6580   23.5730   23.1950 N.am   45  TYR45      -0.1974
     46  CA         3.4910   24.4530   24.3610 C.3    45  TYR45       0.1639
     47  C          4.6530   24.1830   25.3260 C.2    45  TYR45       0.2290
     48  O          4.4840   24.1220   26.5510 O.2    45  TYR45      -0.2864
     49  CB         2.1260   24.1890   25.0260 C.3    45  TYR45       0.0560
     50  CG         1.5670   25.3650   25.8040 C.ar   45  TYR45      -0.0198
     51  CD1        0.2840   25.3250   26.2220 C.ar   45  TYR45      -0.0009
     52  CD2        2.3340   26.4840   26.0730 C.ar   45  TYR45      -0.0009
     53  CE1       -0.2660   26.3620   26.9530 C.ar   45  TYR45       0.0417
     54  CE2        1.8130   27.5400   26.8360 C.ar   45  TYR45       0.0417
     55  CZ         0.4950   27.4730   27.2160 C.ar   45  TYR45       0.1957
     56  OH        -0.0740   28.5220   27.9280 O.3    45  TYR45      -0.2866
     57  N          7.1730   25.9430   26.2120 N.3    47  ASP47      -0.1239
     58  CA         7.6880   26.9770   27.1180 C.3    47  ASP47       0.1674
     59  C          7.0920   26.8030   28.4950 C.2    47  ASP47       0.2266
     60  O          7.6450   27.3090   29.4610 O.2    47  ASP47      -0.2867
     61  CB         7.4590   28.3910   26.5750 C.3    47  ASP47       0.1410
     62  CG         6.0210   28.7040   26.3620 C.2    47  ASP47       0.3668
     63  OD1        5.7120   29.8410   25.9340 O.co2  47  ASP47      -0.2456
     64  OD2        5.1860   27.8260   26.6330 O.co2  47  ASP47      -0.2456
     65  N          4.5840   23.5460   29.3300 N.3    49  TYR49      -0.1241
     66  CA         4.0400   22.2410   29.6730 C.3    49  TYR49       0.1605
     67  C          4.6910   21.0830   28.9110 C.2    49  TYR49       0.2264
     68  O          5.1020   20.1150   29.5120 O.2    49  TYR49      -0.2867
     69  CB         2.5300   22.2130   29.4750 C.3    49  TYR49       0.0534
     70  CG         1.8010   23.2200   30.3630 C.ar   49  TYR49      -0.0201
     71  CD1        1.0420   24.2110   29.8090 C.ar   49  TYR49      -0.0009
     72  CD2        1.9360   23.1730   31.7560 C.ar   49  TYR49      -0.0009
     73  CE1        0.3760   25.1300   30.5800 C.ar   49  TYR49       0.0417
     74  CE2        1.3070   24.0900   32.5420 C.ar   49  TYR49       0.0417
     75  CZ         0.5070   25.0490   31.9590 C.ar   49  TYR49       0.1957
     76  OH        -0.1090   26.0130   32.7500 O.3    49  TYR49      -0.2866
     77  N         -4.0520   18.6710   31.5930 N.3   106  LEU106     -0.1245
     78  CA        -3.2740   19.2430   30.4750 C.3   106  LEU106      0.1561
     79  C         -3.5300   18.4580   29.1830 C.2   106  LEU106      0.2260
     80  O         -3.7660   19.0420   28.1230 O.2   106  LEU106     -0.2867
     81  CB        -1.7980   19.2900   30.7980 C.3   106  LEU106      0.0270
     82  CG        -1.4040   20.3160   31.8400 C.3   106  LEU106      0.0019
     83  CD1        0.0600   20.1500   32.3100 C.3   106  LEU106      0.0001
     84  CD2       -1.5860   21.6890   31.2760 C.3   106  LEU106      0.0001
     85  N         -6.8050   19.4000   27.6110 N.3   109  TYR109     -0.1227
     86  CA        -6.7160   20.6560   26.8720 C.3   109  TYR109      0.1736
     87  C         -6.0590   20.4880   25.4930 C.2   109  TYR109      0.2595
     88  O         -6.5550   21.0270   24.5240 O.2   109  TYR109     -0.2718
     89  CB        -6.0120   21.7580   27.6730 C.3   109  TYR109      0.0548
     90  CG        -6.8070   22.3790   28.8030 C.ar  109  TYR109     -0.0200
     91  CD1       -7.8820   23.1690   28.5150 C.ar  109  TYR109     -0.0009
     92  CD2       -6.4200   22.2280   30.1320 C.ar  109  TYR109     -0.0009
     93  CE1       -8.6240   23.7540   29.5150 C.ar  109  TYR109      0.0417
     94  CE2       -7.1470   22.8330   31.1600 C.ar  109  TYR109      0.0417
     95  CZ        -8.2540   23.5840   30.8290 C.ar  109  TYR109      0.1957
     96  OH        -8.9940   24.1970   31.8060 O.3   109  TYR109     -0.2866
     97  N         -4.9580   19.7480   25.4250 N.am  110  PHE110     -0.1976
     98  CA        -4.2530   19.5570   24.1600 C.3   110  PHE110      0.1639
     99  C         -5.2150   18.7870   23.2610 C.2   110  PHE110      0.2290
    100  O         -5.3000   19.0600   22.0880 O.2   110  PHE110     -0.2864
    101  CB        -2.9880   18.7060   24.3180 C.3   110  PHE110      0.0560
    102  CG        -1.7530   19.4470   24.7730 C.ar  110  PHE110     -0.0200
    103  CD1       -1.2630   19.2970   26.0510 C.ar  110  PHE110     -0.0042
    104  CD2       -1.0260   20.2580   23.8970 C.ar  110  PHE110     -0.0042
    105  CE1       -0.0530   19.9180   26.4240 C.ar  110  PHE110     -0.0003
    106  CE2        0.1150   20.9290   24.2870 C.ar  110  PHE110     -0.0003
    107  CZ         0.6150   20.7580   25.5470 C.ar  110  PHE110     -0.0000
    108  N         -7.9440   20.9400   21.8400 N.3   113  TYR113     -0.1241
    109  CA        -7.4520   21.8920   20.8650 C.3   113  TYR113      0.1605
    110  C         -7.2600   21.1620   19.5010 C.2   113  TYR113      0.2264
    111  O         -7.6430   21.6720   18.4400 O.2   113  TYR113     -0.2867
    112  CB        -6.1390   22.5350   21.3230 C.3   113  TYR113      0.0534
    113  CG        -5.6990   23.6530   20.4280 C.ar  113  TYR113     -0.0201
    114  CD1       -6.0360   24.9490   20.7290 C.ar  113  TYR113     -0.0009
    115  CD2       -4.9310   23.4220   19.2680 C.ar  113  TYR113     -0.0009
    116  CE1       -5.6680   25.9910   19.9110 C.ar  113  TYR113      0.0417
    117  CE2       -4.5840   24.4530   18.4230 C.ar  113  TYR113      0.0417
    118  CZ        -4.9430   25.7480   18.7570 C.ar  113  TYR113      0.1957
    119  OH        -4.5420   26.7470   17.9220 O.3   113  TYR113     -0.2866
    120  N         -7.1800   22.5110   13.4680 N.3   118  LEU118     -0.1231
    121  CA        -6.0500   22.0020   12.7030 C.3   118  LEU118      0.1693
    122  C         -6.4610   20.8510   11.8220 C.2   118  LEU118      0.2591
    123  O         -7.4490   20.1610   12.0770 O.2   118  LEU118     -0.2718
    124  CB        -4.8740   21.6030   13.5920 C.3   118  LEU118      0.0284
    125  CG        -4.3430   22.5680   14.7070 C.3   118  LEU118      0.0019
    126  CD1       -3.1260   21.9830   15.4360 C.3   118  LEU118      0.0001
    127  CD2       -4.0980   24.0170   14.1440 C.3   118  LEU118      0.0001
    128  N         -5.6950   20.6850   10.7600 N.am  119  LEU119     -0.1980
    129  CA        -5.9450   19.6750    9.7320 C.3   119  LEU119      0.1596
    130  C         -5.1990   18.4080   10.0660 C.2   119  LEU119      0.2287
    131  O         -4.0680   18.4310   10.5560 O.2   119  LEU119     -0.2864
    132  CB        -5.4610   20.1880    8.3760 C.3   119  LEU119      0.0297
    133  CG        -6.2770   21.0930    7.4870 C.3   119  LEU119      0.0022
    134  CD1       -5.4870   21.1810    6.1850 C.3   119  LEU119      0.0001
    135  CD2       -7.6720   20.5340    7.2740 C.3   119  LEU119      0.0001
    136  N         12.9980   21.2240   16.9710 N.3   134  ARG134     -0.1245
    137  CA        12.6950   22.0670   15.8380 C.3   134  ARG134      0.1563
    138  C         13.9390   22.8140   15.3570 C.2   134  ARG134      0.2260
    139  O         14.9150   23.0770   16.0970 O.2   134  ARG134     -0.2867
    140  CB        11.5910   23.0630   16.1590 C.3   134  ARG134      0.0307
    141  CG        12.0460   24.0540   17.2110 C.3   134  ARG134      0.0489
    142  CD        11.2880   25.3280   17.0110 C.3   134  ARG134      0.2205
    143  NE         9.9400   25.0340   17.3950 N.pl3 134  ARG134     -0.0865
    144  CZ         8.8350   25.3060   16.7160 C.cat 134  ARG134      0.5346
    145  NH1        8.8010   25.9820   15.5850 N.pl3 134  ARG134      0.1354
    146  NH2        7.6860   24.9640   17.2780 N.pl3 134  ARG134      0.1354
    147  N         14.7950   26.0070   12.1910 N.3   136  ARG136     -0.1245
    148  CA        14.0030   27.0490   11.5210 C.3   136  ARG136      0.1563
    149  C         13.0810   26.5580   10.4220 C.2   136  ARG136      0.2260
    150  O         12.0460   27.1710   10.1810 O.2   136  ARG136     -0.2867
    151  CB        14.8960   28.1060   10.8490 C.3   136  ARG136      0.0307
    152  CG        15.4470   29.1560   11.7230 C.3   136  ARG136      0.0489
    153  CD        16.0850   30.3490   10.8650 C.3   136  ARG136      0.2205
    154  NE        16.7760   31.2650   11.7680 N.pl3 136  ARG136     -0.0865
    155  CZ        16.8340   32.5750   11.5940 C.cat 136  ARG136      0.5346
    156  NH1       16.2740   33.1400   10.5320 N.pl3 136  ARG136      0.1354
    157  NH2       17.4870   33.3100   12.4770 N.pl3 136  ARG136      0.1354
    158  N          8.4230   17.4430    9.3300 N.3   151  ASN151     -0.1225
    159  CA         7.4400   18.3380    8.7110 C.3   151  ASN151      0.1785
    160  C          8.1400   19.6610    8.3960 C.2   151  ASN151      0.2597
    161  O          8.6300   20.3260    9.3010 O.2   151  ASN151     -0.2718
    162  CB         6.2420   18.6580    9.6080 C.3   151  ASN151      0.1169
    163  CG         5.3380   17.5010    9.8610 C.2   151  ASN151      0.2627
    164  OD1        5.5950   16.3300    9.5460 O.2   151  ASN151     -0.2716
    165  ND2        4.2390   17.8350   10.5540 N.am  151  ASN151     -0.0877
    166  N          8.1390   20.0230    7.1400 N.am  152  PHE152     -0.1962
    167  CA         8.7540   21.2740    6.6830 C.3   152  PHE152      0.1771
    168  C          7.7220   22.4020    6.7460 C.2   152  PHE152      0.2619
    169  O          6.6260   22.3090    6.1830 O.2   152  PHE152     -0.2715
    170  CB         9.3270   21.1250    5.2900 C.3   152  PHE152      0.0574
    171  CG        10.4400   20.1230    5.1880 C.ar  152  PHE152     -0.0200
    172  CD1       10.1790   18.7930    4.8630 C.ar  152  PHE152     -0.0042
    173  CD2       11.7370   20.4980    5.4190 C.ar  152  PHE152     -0.0042
    174  CE1       11.1890   17.8710    4.7840 C.ar  152  PHE152     -0.0003
    175  CE2       12.7780   19.5630    5.3190 C.ar  152  PHE152     -0.0003
    176  CZ        12.4990   18.2650    5.0360 C.ar  152  PHE152     -0.0000
    177  N          8.0680   23.4590    7.5050 N.am  153  PHE153     -0.1974
    178  CA         7.0990   24.4970    7.8090 C.3   153  PHE153      0.1639
    179  C          6.6770   25.3450    6.6030 C.2   153  PHE153      0.2290
    180  O          5.5120   25.6810    6.4770 O.2   153  PHE153     -0.2864
    181  CB         7.6530   25.4720    8.8510 C.3   153  PHE153      0.0560
    182  CG         8.0310   24.8780   10.1790 C.ar  153  PHE153     -0.0200
    183  CD1        9.2600   25.1680   10.7390 C.ar  153  PHE153     -0.0042
    184  CD2        7.1880   24.0480   10.8870 C.ar  153  PHE153     -0.0042
    185  CE1        9.6400   24.6800   11.9730 C.ar  153  PHE153     -0.0003
    186  CE2        7.5700   23.5920   12.1340 C.ar  153  PHE153     -0.0003
    187  CZ         8.7820   23.8820   12.6660 C.ar  153  PHE153     -0.0000
    188  N          4.9440   22.9450    3.7230 N.3   156  HIS156     -0.1241
    189  CA         3.9890   21.9490    4.2330 C.3   156  HIS156      0.1621
    190  C          4.2610   20.5310    3.7230 C.2   156  HIS156      0.2264
    191  O          3.4560   19.6460    3.8930 O.2   156  HIS156     -0.2867
    192  CB         2.5650   22.3700    3.9480 C.3   156  HIS156      0.0745
    193  CG         2.2670   23.7760    4.3810 C.ar  156  HIS156      0.0817
    194  ND1        2.2560   24.1480    5.7070 N.ar  156  HIS156     -0.2268
    195  CD2        2.0830   24.9010    3.6580 C.ar  156  HIS156      0.1154
    196  CE1        2.0040   25.4470    5.7840 C.ar  156  HIS156      0.1986
    197  NE2        1.8820   25.9250    4.5560 N.ar  156  HIS156     -0.2212
    198  N          6.1930   16.8620    3.9230 N.3   158  LYS158     -0.1245
    199  CA         6.5190   15.9980    5.0880 C.3   158  LYS158      0.1561
    200  C          7.1750   14.7100    4.6660 C.2   158  LYS158      0.2260
    201  O          6.8440   14.1600    3.6140 O.2   158  LYS158     -0.2867
    202  CB         5.2510   15.6920    5.9180 C.3   158  LYS158      0.0271
    203  CG         4.4190   16.9120    6.2960 C.3   158  LYS158      0.0035
    204  CD         3.1440   16.5900    7.0400 C.3   158  LYS158      0.0206
    205  CE         2.3980   17.8310    7.4740 C.3   158  LYS158      0.1093
    206  NZ         2.0710   18.7120    6.2870 N.3   158  LYS158     -0.1314
    207  N         -0.7250   17.6420   -0.9250 N.3   175  ARG175     -0.1245
    208  CA        -1.1230   16.5920    0.0040 C.3   175  ARG175      0.1563
    209  C         -1.2460   15.1920   -0.6150 C.2   175  ARG175      0.2260
    210  O         -1.8910   14.3400   -0.0650 O.2   175  ARG175     -0.2867
    211  CB        -2.3940   16.9690    0.7550 C.3   175  ARG175      0.0307
    212  CG        -2.2700   18.2750    1.5070 C.3   175  ARG175      0.0489
    213  CD        -3.4620   18.4310    2.4590 C.3   175  ARG175      0.2205
    214  NE        -3.3810   19.7100    3.0980 N.pl3 175  ARG175     -0.0865
    215  CZ        -4.1800   20.7160    2.7590 C.cat 175  ARG175      0.5346
    216  NH1       -5.1070   20.4690    1.8780 N.pl3 175  ARG175      0.1354
    217  NH2       -4.0880   21.8930    3.3630 N.pl3 175  ARG175      0.1354
@<TRIPOS>BOND
     1   207   208    1
     2   209   210    2
     3   209   208    1
     4   208   211    1
     5   211   212    1
     6   212   213    1
     7   216   215    1
     8   213   214    1
     9   215   214    2
    10   215   217    1
    11   201   200    2
    12   195   193   ar
    13   195   197   ar
    14   190   191    2
    15   190   189    1
    16   188   189    1
    17   198   199    1
    18   192   189    1
    19   192   193    1
    20   193   194   ar
    21   197   196   ar
    22   200   199    1
    23   174   172   ar
    24   174   176   ar
    25   172   171   ar
    26   176   175   ar
    27   199   202    1
    28   171   170    1
    29   171   173   ar
    30   170   167    1
    31   175   173   ar
    32   194   196   ar
    33   202   203    1
    34   169   168    2
    35   134   133    1
    36   206   205    1
    37   203   204    1
    38   180   179    2
    39   179   178    1
    40   167   168    1
    41   167   166    1
    42   168   177   am
    43   204   205    1
    44   166   160   am
    45   135   133    1
    46   133   132    1
    47   177   178    1
    48   178   181    1
    49   132   129    1
    50   160   159    1
    51   160   161    2
    52   159   158    1
    53   159   162    1
    54   181   182    1
    55   164   163    2
    56   162   163    1
    57   129   130    1
    58   129   128    1
    59   163   165   am
    60   130   131    2
    61   182   183   ar
    62   182   184   ar
    63   150   149    2
    64   149   148    1
    65   156   155    1
    66   183   185   ar
    67   128   122   am
    68   151   148    1
    69   151   152    1
    70   153   152    1
    71   153   154    1
    72   184   186   ar
    73   148   147    1
    74     6     5    1
    75   155   154    2
    76   155   157    1
    77   122   123    2
    78   122   121    1
    79     4     3    2
    80   185   187   ar
    81   186   187   ar
    82     2     5    1
    83     2     3    1
    84     2     1    1
    85     3     7   am
    86   121   120    1
    87   121   124    1
    88   124   125    1
    89    24    22   ar
    90    24    25   ar
    91    14    15    1
    92    14    13    1
    93     7     8    1
    94    12    13    1
    95    12    11    1
    96    27    25   ar
    97    27    29   ar
    98   127   125    1
    99    22    21   ar
   100    25    23   ar
   101     8    11    1
   102     8     9    1
   103   125   126    1
   104    29    28   ar
   105   138   137    1
   106   138   139    2
   107   145   144    1
   108     9    16   am
   109     9    10    2
   110    21    23   ar
   111    21    20    1
   112    23    26   ar
   113   137   140    1
   114   137   136    1
   115    16    17    1
   116   140   141    1
   117    28    26   ar
   118   144   146    1
   119   144   143    2
   120    20    17    1
   121    19    18    2
   122   142   141    1
   123   142   143    1
   124    17    18    1
   125    18    30   am
   126   119   118    1
   127   117   118   ar
   128   117   115   ar
   129   111   110    2
   130   118   116   ar
   131    30    31    1
   132   115   113   ar
   133   110   109    1
   134    31    34    1
   135    31    32    1
   136    36    34    1
   137   116   114   ar
   138    41    42    1
   139    41    38    1
   140    44    42   ar
   141    37    32   am
   142    37    38    1
   143    34    35    1
   144    32    33    2
   145   113   114   ar
   146   113   112    1
   147    42    43   ar
   148   109   112    1
   149   109   108    1
   150    38    39    1
   151    40    39    2
   152    39    45   am
   153   100    99    2
   154    45    46    1
   155    99    98    1
   156   104   106   ar
   157   104   102   ar
   158    98   101    1
   159    98    97    1
   160   106   107   ar
   161   101   102    1
   162    46    49    1
   163    46    47    1
   164    88    87    2
   165   102   103   ar
   166    49    50    1
   167    47    48    2
   168    97    87   am
   169    87    86    1
   170   107   105   ar
   171    50    52   ar
   172    50    51   ar
   173    63    62   ar
   174   103   105   ar
   175    52    54   ar
   176    57    58    1
   177    51    53   ar
   178    62    61    1
   179    62    64   ar
   180    61    58    1
   181    54    55   ar
   182    86    85    1
   183    86    89    1
   184    53    55   ar
   185    58    59    1
   186    55    56    1
   187    89    90    1
   188    80    79    2
   189    59    60    2
   190    91    90   ar
   191    91    93   ar
   192    90    92   ar
   193    67    68    2
   194    67    66    1
   195    79    78    1
   196    65    66    1
   197    69    66    1
   198    69    70    1
   199    93    95   ar
   200    71    70   ar
   201    71    73   ar
   202    92    94   ar
   203    70    72   ar
   204    78    81    1
   205    78    77    1
   206    73    75   ar
   207    81    82    1
   208    95    94   ar
   209    95    96    1
   210    84    82    1
   211    72    74   ar
   212    82    83    1
   213    75    74   ar
   214    75    76    1
