@<TRIPOS>MOLECULE
tmp/3rq8A00.pdb
 198 190 0 0 0
SMALL
GASTEIGER

@<TRIPOS>ATOM
      1  N          7.2860  -13.9030  -10.6860 N.3    40  MET40      -0.1245
      2  CA         7.2740  -14.1890  -12.1290 C.3    40  MET40       0.1570
      3  C          5.9100  -13.8000  -12.7260 C.2    40  MET40       0.2261
      4  O          5.1050  -14.6500  -13.1320 O.2    40  MET40      -0.2867
      5  CB         7.5530  -15.6920  -12.3670 C.3    40  MET40       0.0387
      6  CG         8.9600  -16.1690  -12.0060 C.3    40  MET40       0.0595
      7  SD         9.0820  -17.9960  -12.1350 S.3    40  MET40      -0.1393
      8  CE         8.5260  -18.4620  -10.4690 C.3    40  MET40       0.0692
      9  N          4.9110  -19.2240  -14.8220 N.3   105  GLY105     -0.1225
     10  CA         5.2430  -18.2990  -13.7550 C.3   105  GLY105      0.1811
     11  C          4.9580  -18.7690  -12.3360 C.2   105  GLY105      0.2280
     12  O          4.9100  -17.9520  -11.4250 O.2   105  GLY105     -0.2866
     13  N          2.4360  -26.9490  -17.2870 N.3   129  ASP129     -0.1225
     14  CA         3.6260  -26.3430  -17.8510 C.3   129  ASP129      0.1805
     15  C          4.5080  -25.8090  -16.7570 C.2   129  ASP129      0.2597
     16  O          4.0740  -25.6670  -15.6030 O.2   129  ASP129     -0.2718
     17  CB         3.1930  -25.1880  -18.7540 C.3   129  ASP129      0.1424
     18  CG         4.3250  -24.6350  -19.6060 C.2   129  ASP129      0.3668
     19  OD1        5.3770  -25.3000  -19.8190 O.co2 129  ASP129     -0.2456
     20  OD2        4.1610  -23.4800  -20.0350 O.co2 129  ASP129     -0.2456
     21  N          5.7660  -25.5430  -17.0960 N.am  130  ALA130     -0.1979
     22  CA         6.6680  -24.7780  -16.2460 C.3   130  ALA130      0.1597
     23  C          6.7040  -25.2960  -14.8050 C.2   130  ALA130      0.2287
     24  O          7.0660  -26.4790  -14.5810 O.2   130  ALA130     -0.2864
     25  CB         6.3560  -23.2710  -16.3210 C.3   130  ALA130      0.0319
     26  N          9.9980  -28.1520  -22.2070 N.3   150  HIS150     -0.1227
     27  CA        11.2430  -28.0770  -22.9790 C.3   150  HIS150      0.1737
     28  C         12.1720  -29.1950  -22.4860 C.2   150  HIS150      0.2438
     29  O         11.9020  -29.8110  -21.4660 O.2   150  HIS150     -0.2733
     30  CB        11.9030  -26.7080  -22.9460 C.3   150  HIS150      0.0758
     31  CG        12.3870  -26.2810  -21.6010 C.ar  150  HIS150      0.0818
     32  ND1       13.3710  -26.9560  -20.9070 N.ar  150  HIS150     -0.2268
     33  CD2       12.0470  -25.2180  -20.8340 C.ar  150  HIS150      0.1154
     34  CE1       13.5990  -26.3360  -19.7590 C.ar  150  HIS150      0.1986
     35  NE2       12.8160  -25.2730  -19.6920 N.ar  150  HIS150     -0.2212
     36  N         13.2590  -29.4770  -23.2170 N.am  151  PRO151     -0.2718
     37  CA        14.1250  -30.6210  -22.8760 C.3   151  PRO151      0.1535
     38  C         14.6260  -30.6160  -21.4350 C.2   151  PRO151      0.2599
     39  O         14.6600  -31.6420  -20.8350 O.2   151  PRO151     -0.2715
     40  CB        15.2480  -30.5040  -23.8910 C.3   151  PRO151      0.0310
     41  CG        14.5320  -30.0250  -25.1000 C.3   151  PRO151      0.0237
     42  CD        13.5680  -28.9790  -24.5700 C.3   151  PRO151      0.0939
     43  N         14.9270  -29.4520  -20.8680 N.am  152  GLY152     -0.1941
     44  CA        15.2950  -29.3610  -19.4540 C.3   152  GLY152      0.2014
     45  C         14.2230  -29.8080  -18.4770 C.2   152  GLY152      0.2638
     46  O         14.5000  -30.4840  -17.4800 O.2   152  GLY152     -0.2714
     47  N         12.9890  -29.4370  -18.7600 N.am  153  GLU153     -0.1977
     48  CA        11.8800  -29.8810  -17.9650 C.3   153  GLU153      0.1602
     49  C         11.5970  -31.3700  -18.1730 C.2   153  GLU153      0.2287
     50  O         11.1540  -32.0220  -17.2560 O.2   153  GLU153     -0.2864
     51  CB        10.6420  -29.0640  -18.3140 C.3   153  GLU153      0.0415
     52  CG        10.7670  -27.6170  -17.8800 C.3   153  GLU153      0.1163
     53  CD         9.8300  -26.6290  -18.5300 C.2   153  GLU153      0.3649
     54  OE1        9.3530  -26.8320  -19.6770 O.co2 153  GLU153     -0.2457
     55  OE2        9.6770  -25.5600  -17.8930 O.co2 153  GLU153     -0.2457
     56  N         19.5310  -34.2390  -21.0930 N.3   162  VAL162     -0.1245
     57  CA        19.1690  -33.4620  -22.2740 C.3   162  VAL162      0.1561
     58  C         19.9670  -33.8910  -23.4900 C.2   162  VAL162      0.2260
     59  O         19.4180  -34.0140  -24.5970 O.2   162  VAL162     -0.2867
     60  CB        19.3600  -31.9180  -22.0380 C.3   162  VAL162      0.0252
     61  CG1       19.2020  -31.1410  -23.3410 C.3   162  VAL162      0.0019
     62  CG2       18.3840  -31.4020  -20.9590 C.3   162  VAL162      0.0019
     63  N         17.9620  -35.3360  -26.8330 N.3   166  GLN166     -0.1245
     64  CA        17.9910  -34.6120  -28.0960 C.3   166  GLN166      0.1566
     65  C         18.4420  -35.4680  -29.2800 C.2   166  GLN166      0.2260
     66  O         18.1700  -35.1130  -30.4120 O.2   166  GLN166     -0.2867
     67  CB        18.8420  -33.3280  -27.9730 C.3   166  GLN166      0.0367
     68  CG        18.2060  -32.1970  -27.1630 C.3   166  GLN166      0.0905
     69  CD        16.8840  -31.6650  -27.7480 C.2   166  GLN166      0.2608
     70  OE1       15.8300  -32.1440  -27.4120 O.2   166  GLN166     -0.2717
     71  NE2       16.9660  -30.6680  -28.6390 N.am  166  GLN166     -0.0878
     72  N          9.1200  -29.6000  -26.5030 N.3   187  LYS187     -0.1231
     73  CA         9.4400  -28.3790  -27.2420 C.3   187  LYS187      0.1693
     74  C         10.8440  -28.3540  -27.8610 C.2   187  LYS187      0.2593
     75  O         11.7050  -29.1990  -27.5670 O.2   187  LYS187     -0.2718
     76  CB         9.2570  -27.1970  -26.3310 C.3   187  LYS187      0.0285
     77  CG         7.8680  -26.9670  -25.9000 C.3   187  LYS187      0.0035
     78  CD         7.9440  -26.1380  -24.6170 C.3   187  LYS187      0.0206
     79  CE         6.7450  -25.3560  -24.3760 C.3   187  LYS187      0.1093
     80  NZ         6.7080  -24.9560  -22.9360 N.3   187  LYS187     -0.1314
     81  N         11.0260  -27.3830  -28.7610 N.am  188  GLY188     -0.1942
     82  CA        12.2510  -27.1640  -29.5040 C.3   188  GLY188      0.2014
     83  C         11.9350  -27.1060  -31.0050 C.2   188  GLY188      0.2639
     84  O         10.7870  -27.2850  -31.4450 O.2   188  GLY188     -0.2714
     85  N         12.9560  -26.8460  -31.7810 N.am  189  ASN189     -0.1958
     86  CA        12.8850  -27.0720  -33.2370 C.3   189  ASN189      0.1819
     87  C         12.2560  -28.4590  -33.4850 C.2   189  ASN189      0.2621
     88  O         12.6010  -29.4440  -32.7900 O.2   189  ASN189     -0.2715
     89  CB        14.2870  -26.9960  -33.8310 C.3   189  ASN189      0.1195
     90  CG        14.3180  -27.3320  -35.2910 C.2   189  ASN189      0.2630
     91  OD1       13.5470  -26.7970  -36.0700 O.2   189  ASN189     -0.2716
     92  ND2       15.1920  -28.2600  -35.6690 N.am  189  ASN189     -0.0877
     93  N         11.3060  -28.5350  -34.4120 N.am  190  GLN190     -0.1963
     94  CA        10.5740  -29.7880  -34.6750 C.3   190  GLN190      0.1733
     95  C          9.9840  -30.3530  -33.3500 C.2   190  GLN190      0.2617
     96  O         10.3230  -31.4500  -32.8920 O.2   190  GLN190     -0.2715
     97  CB        11.4770  -30.8030  -35.3980 C.3   190  GLN190      0.0408
     98  CG        11.9290  -30.2710  -36.8250 C.3   190  GLN190      0.0908
     99  CD        12.4930  -31.3170  -37.7590 C.2   190  GLN190      0.2608
    100  OE1       12.9930  -32.3580  -37.3330 O.2   190  GLN190     -0.2717
    101  NE2       12.4280  -31.0360  -39.0630 N.am  190  GLN190     -0.0878
    102  N          9.0970  -29.5730  -32.7510 N.am  191  THR191     -0.1951
    103  CA         8.4460  -29.9370  -31.4890 C.3   191  THR191      0.1897
    104  C          7.7000  -31.2600  -31.7370 C.2   191  THR191      0.2313
    105  O          7.1350  -31.4790  -32.8190 O.2   191  THR191     -0.2863
    106  CB         7.4670  -28.8420  -31.0760 C.3   191  THR191      0.1794
    107  OG1        8.2250  -27.7610  -30.5040 O.3   191  THR191     -0.2208
    108  CG2        6.3870  -29.3550  -30.0970 C.3   191  THR191      0.0378
    109  N          6.5510  -26.0000  -38.2050 N.3   205  THR205     -0.1203
    110  CA         6.6510  -24.5240  -38.2380 C.3   205  THR205      0.1994
    111  C          7.5000  -23.9420  -37.1250 C.2   205  THR205      0.2618
    112  O          7.7470  -24.5770  -36.0940 O.2   205  THR205     -0.2717
    113  CB         5.2780  -23.8600  -38.1670 C.3   205  THR205      0.1784
    114  OG1        4.6960  -24.1100  -36.8690 O.3   205  THR205     -0.2211
    115  CG2        4.3670  -24.3600  -39.2960 C.3   205  THR205      0.0376
    116  N          7.8880  -22.6900  -37.2890 N.am  206  GLY206     -0.1942
    117  CA         8.6630  -22.0290  -36.2620 C.3   206  GLY206      0.2014
    118  C         10.1090  -21.8400  -36.6600 C.2   206  GLY206      0.2639
    119  O         10.5800  -22.3890  -37.6750 O.2   206  GLY206     -0.2714
    120  N         10.8000  -21.0080  -35.8950 N.am  207  ASN207     -0.1958
    121  CA        12.2280  -20.7190  -36.1540 C.3   207  ASN207      0.1819
    122  C         12.8770  -20.1470  -34.9380 C.2   207  ASN207      0.2621
    123  O         12.2610  -20.0980  -33.8470 O.2   207  ASN207     -0.2715
    124  CB        12.4010  -19.8150  -37.3840 C.3   207  ASN207      0.1195
    125  CG        11.6430  -18.5090  -37.2520 C.2   207  ASN207      0.2630
    126  OD1       11.5660  -17.9220  -36.1500 O.2   207  ASN207     -0.2716
    127  ND2       11.0400  -18.0670  -38.3690 N.am  207  ASN207     -0.0877
    128  N         14.1410  -19.7640  -35.0660 N.am  208  GLY208     -0.1954
    129  CA        14.8930  -19.2270  -33.9300 C.3   208  GLY208      0.1869
    130  C         14.3680  -17.9460  -33.2920 C.2   208  GLY208      0.2309
    131  O         14.8080  -17.5760  -32.2000 O.2   208  GLY208     -0.2863
    132  N         11.6870  -17.7380  -31.9470 N.3   210  LEU210     -0.1231
    133  CA        11.0350  -18.2670  -30.7420 C.3   210  LEU210      0.1693
    134  C         11.9620  -18.5910  -29.5870 C.2   210  LEU210      0.2592
    135  O         11.4750  -18.8980  -28.4830 O.2   210  LEU210     -0.2718
    136  CB        10.2090  -19.5220  -31.0670 C.3   210  LEU210      0.0284
    137  CG         9.0480  -19.3240  -32.0650 C.3   210  LEU210      0.0019
    138  CD1        8.4280  -20.6630  -32.4710 C.3   210  LEU210      0.0001
    139  CD2        7.9600  -18.4030  -31.4530 C.3   210  LEU210      0.0001
    140  N         13.2770  -18.6260  -29.8500 N.am  211  ALA211     -0.1966
    141  CA        14.2830  -19.0080  -28.8590 C.3   211  ALA211      0.1728
    142  C         14.6060  -17.8320  -27.9290 C.2   211  ALA211      0.2616
    143  O         15.7270  -17.2650  -27.9440 O.2   211  ALA211     -0.2715
    144  CB        15.5850  -19.5350  -29.5670 C.3   211  ALA211      0.0334
    145  N         13.5990  -17.4690  -27.1410 N.am  212  LYS212     -0.1963
    146  CA        13.6380  -16.3180  -26.2350 C.3   212  LYS212      0.1728
    147  C         12.5520  -16.4650  -25.1870 C.2   212  LYS212      0.2617
    148  O         11.4750  -16.9560  -25.4870 O.2   212  LYS212     -0.2715
    149  CB        13.4370  -14.9910  -26.9880 C.3   212  LYS212      0.0311
    150  CG        13.8710  -13.7550  -26.1860 C.3   212  LYS212      0.0038
    151  CD        13.6850  -12.3790  -26.9070 C.3   212  LYS212      0.0206
    152  CE        14.4970  -12.2290  -28.2440 C.3   212  LYS212      0.1093
    153  NZ        14.1350  -10.9770  -29.0600 N.3   212  LYS212     -0.1314
    154  N         12.8390  -15.9920  -23.9860 N.am  213  GLY213     -0.1940
    155  CA        11.8990  -16.0520  -22.8880 C.3   213  GLY213      0.2014
    156  C         10.4930  -15.5650  -23.2430 C.2   213  GLY213      0.2639
    157  O         10.2960  -14.4940  -23.8240 O.2   213  GLY213     -0.2714
    158  N          9.5220  -16.4040  -22.8820 N.am  214  GLY214     -0.1939
    159  CA         8.1020  -16.0850  -22.8930 C.3   214  GLY214      0.2014
    160  C          7.3210  -16.7390  -24.0060 C.2   214  GLY214      0.2640
    161  O          6.0660  -16.7840  -23.9680 O.2   214  GLY214     -0.2714
    162  N          8.0020  -17.2420  -25.0230 N.am  215  THR215     -0.1936
    163  CA         7.2890  -17.8330  -26.1300 C.3   215  THR215      0.2028
    164  C          6.5320  -19.1200  -25.7530 C.2   215  THR215      0.2643
    165  O          5.4780  -19.4160  -26.3430 O.2   215  THR215     -0.2714
    166  CB         8.2520  -18.1030  -27.3010 C.3   215  THR215      0.1808
    167  OG1        9.3010  -18.9980  -26.8450 O.3   215  THR215     -0.2208
    168  CG2        8.8200  -16.7790  -27.7750 C.3   215  THR215      0.0379
    169  N          7.0580  -19.8690  -24.7730 N.am  216  GLY216     -0.1939
    170  CA         6.3720  -21.0560  -24.2870 C.3   216  GLY216      0.2014
    171  C          5.1190  -20.7410  -23.4780 C.2   216  GLY216      0.2638
    172  O          4.1400  -21.4770  -23.5840 O.2   216  GLY216     -0.2714
    173  N          5.1830  -19.6960  -22.6350 N.am  217  ASP217     -0.1971
    174  CA         4.0080  -19.2130  -21.9170 C.3   217  ASP217      0.1709
    175  C          2.8960  -18.7840  -22.8770 C.2   217  ASP217      0.2293
    176  O          1.7250  -19.1430  -22.6900 O.2   217  ASP217     -0.2864
    177  CB         4.3330  -18.0850  -20.9310 C.3   217  ASP217      0.1436
    178  CG         5.3750  -18.4690  -19.9220 C.2   217  ASP217      0.3671
    179  OD1        5.5770  -19.6780  -19.6500 O.co2 217  ASP217     -0.2456
    180  OD2        6.0600  -17.5140  -19.4860 O.co2 217  ASP217     -0.2456
    181  N          2.4630  -20.0710  -25.8490 N.3   219  LEU219     -0.1245
    182  CA         1.9330  -21.3420  -26.4360 C.3   219  LEU219      0.1561
    183  C          0.9690  -22.0150  -25.4670 C.2   219  LEU219      0.2260
    184  O         -0.0590  -22.5470  -25.8500 O.2   219  LEU219     -0.2867
    185  CB         3.0730  -22.2820  -26.8030 C.3   219  LEU219      0.0270
    186  CG         2.6560  -23.6900  -27.2650 C.3   219  LEU219      0.0019
    187  CD1        1.8700  -23.6240  -28.5740 C.3   219  LEU219      0.0001
    188  CD2        3.8960  -24.6100  -27.4180 C.3   219  LEU219      0.0001
    189  N          1.3510  -21.2640  -33.5590 N.3   244  HIS244     -0.1241
    190  CA         2.4040  -20.6160  -32.8180 C.3   244  HIS244      0.1621
    191  C          3.6870  -20.4740  -33.6510 C.2   244  HIS244      0.2264
    192  O          4.2450  -19.3710  -33.7400 O.2   244  HIS244     -0.2867
    193  CB         2.5880  -21.3820  -31.4800 C.3   244  HIS244      0.0745
    194  CG         3.6790  -20.8880  -30.5690 C.ar  244  HIS244      0.0817
    195  ND1        4.9150  -21.5010  -30.5070 N.ar  244  HIS244     -0.2268
    196  CD2        3.6850  -19.9300  -29.5960 C.ar  244  HIS244      0.1154
    197  CE1        5.6460  -20.9110  -29.5670 C.ar  244  HIS244      0.1986
    198  NE2        4.9220  -19.9660  -28.9890 N.ar  244  HIS244     -0.2212
@<TRIPOS>BOND
     1   115   113    1
     2   101    99   am
     3   127   125   am
     4   110   109    1
     5   110   113    1
     6   110   111    1
     7   113   114    1
     8    99   100    2
     9    99    98    1
    10   119   118    2
    11   124   125    1
    12   124   121    1
    13   116   111   am
    14   116   117    1
    15   125   126    2
    16   111   112    2
    17    98    97    1
    18   118   117    1
    19   118   120   am
    20   121   120    1
    21   121   122    1
    22    91    90    2
    23    92    90   am
    24    97    94    1
    25    90    89    1
    26   128   122   am
    27   128   129    1
    28   122   123    2
    29    94    93    1
    30    94    95    1
    31    93    87   am
    32   129   130    1
    33    89    86    1
    34   192   191    2
    35   191   190    1
    36   189   190    1
    37    87    86    1
    38    87    88    2
    39    95    96    2
    40    95   102   am
    41   130   131    2
    42    86    85    1
    43   105   104    2
    44   190   193    1
    45   102   103    1
    46   138   137    1
    47   137   139    1
    48   137   136    1
    49   132   133    1
    50    85    83   am
    51   104   103    1
    52   103   106    1
    53   193   194    1
    54    84    83    2
    55   106   107    1
    56   106   108    1
    57   136   133    1
    58    83    82    1
    59   133   134    1
    60   194   195   ar
    61   194   196   ar
    62   195   197   ar
    63    66    65    2
    64   140   134   am
    65   140   141    1
    66   196   198   ar
    67   134   135    2
    68   197   198   ar
    69   144   141    1
    70    82    81    1
    71    65    64    1
    72   153   152    1
    73   141   142    1
    74    81    74   am
    75    71    69   am
    76   187   186    1
    77   152   151    1
    78    64    67    1
    79    64    63    1
    80    67    68    1
    81   143   142    2
    82   142   145   am
    83    74    75    2
    84    74    73    1
    85   168   166    1
    86    69    70    2
    87    69    68    1
    88   188   186    1
    89   166   167    1
    90   166   163    1
    91   186   185    1
    92    73    72    1
    93    73    76    1
    94   145   146    1
    95   149   146    1
    96   149   150    1
    97   151   150    1
    98   185   182    1
    99   182   181    1
   100   182   183    1
   101   165   164    2
   102    76    77    1
   103   146   147    1
   104   163   164    1
   105   163   162    1
   106    77    78    1
   107   184   183    2
   108   164   169   am
   109   148   147    2
   110   147   154   am
   111    41    42    1
   112    41    40    1
   113   162   160   am
   114   169   170    1
   115    78    79    1
   116    59    58    2
   117    42    36    1
   118    79    80    1
   119   170   171    1
   120   160   161    2
   121   160   159    1
   122   154   155    1
   123    40    37    1
   124   157   156    2
   125   172   171    2
   126    58    57    1
   127   171   173   am
   128    61    60    1
   129   156   155    1
   130   156   158   am
   131    36    37    1
   132    36    28   am
   133    27    30    1
   134    27    28    1
   135    27    26    1
   136    30    31    1
   137   159   158    1
   138   175   176    2
   139   175   174    1
   140    37    38    1
   141   173   174    1
   142    28    29    2
   143    57    60    1
   144    57    56    1
   145    60    62    1
   146   174   177    1
   147    31    32   ar
   148    31    33   ar
   149    38    43   am
   150    38    39    2
   151   177   178    1
   152    32    34   ar
   153    43    44    1
   154    33    35   ar
   155    20    18   ar
   156   178   179   ar
   157   178   180   ar
   158    19    18   ar
   159    34    35   ar
   160    54    53   ar
   161    18    17    1
   162    44    45    1
   163    47    45   am
   164    47    48    1
   165    17    14    1
   166    53    55   ar
   167    53    52    1
   168    45    46    2
   169    51    48    1
   170    51    52    1
   171    49    48    1
   172    49    50    2
   173    14    13    1
   174    14    15    1
   175    21    15   am
   176    21    22    1
   177    15    16    2
   178    25    22    1
   179    22    23    1
   180     9    10    1
   181    23    24    2
   182    10    11    1
   183     4     3    2
   184     3     2    1
   185     5     2    1
   186     5     6    1
   187    11    12    2
   188     7     6    1
   189     7     8    1
   190     2     1    1
