@<TRIPOS>MOLECULE
tmp/3rqdB01.pdb
 143 141 0 0 0
SMALL
GASTEIGER

@<TRIPOS>ATOM
      1  N         -8.3550  -43.1870   19.7790 N.3    21  LYS21      -0.1245
      2  CA        -6.8990  -43.1300   19.7460 C.3    21  LYS21       0.1561
      3  C         -6.2980  -44.3180   18.9890 C.2    21  LYS21       0.2260
      4  O         -5.1680  -44.2410   18.5090 O.2    21  LYS21      -0.2867
      5  CB        -6.3430  -43.0420   21.1680 C.3    21  LYS21       0.0271
      6  CG        -6.7390  -41.7400   21.8790 C.3    21  LYS21       0.0035
      7  CD        -6.1780  -41.6700   23.2830 C.3    21  LYS21       0.0206
      8  CE        -6.3560  -40.2850   23.8730 C.3    21  LYS21       0.1093
      9  NZ        -7.7750  -39.9140   23.9630 N.3    21  LYS21      -0.1314
     10  N         -8.4250  -34.8630   29.5570 N.3    78  TYR78      -0.1227
     11  CA        -7.0070  -34.8360   29.2000 C.3    78  TYR78       0.1736
     12  C         -6.6300  -36.0100   28.2920 C.2    78  TYR78       0.2595
     13  O         -6.7770  -35.9220   27.0730 O.2    78  TYR78      -0.2718
     14  CB        -6.1260  -34.7860   30.4550 C.3    78  TYR78       0.0548
     15  CG        -6.5000  -33.6460   31.3820 C.ar   78  TYR78      -0.0200
     16  CD1       -6.1550  -32.3330   31.0750 C.ar   78  TYR78      -0.0009
     17  CD2       -7.2120  -33.8800   32.5540 C.ar   78  TYR78      -0.0009
     18  CE1       -6.5040  -31.2860   31.9100 C.ar   78  TYR78       0.0417
     19  CE2       -7.5680  -32.8320   33.4000 C.ar   78  TYR78       0.0417
     20  CZ        -7.2130  -31.5440   33.0680 C.ar   78  TYR78       0.1957
     21  OH        -7.5690  -30.5130   33.8950 O.3    78  TYR78      -0.2866
     22  N         -6.1620  -37.1050   28.8850 N.am   79  ASP79      -0.1974
     23  CA        -5.8960  -38.3250   28.1270 C.3    79  ASP79       0.1709
     24  C         -7.1130  -39.2370   28.0410 C.2    79  ASP79       0.2293
     25  O         -7.1440  -40.1390   27.2090 O.2    79  ASP79      -0.2864
     26  CB        -4.7280  -39.1120   28.7300 C.3    79  ASP79       0.1436
     27  CG        -4.9310  -39.4120   30.2020 C.2    79  ASP79       0.3671
     28  OD1       -5.7760  -38.7460   30.8230 O.co2  79  ASP79      -0.2456
     29  OD2       -4.2400  -40.2920   30.7490 O.co2  79  ASP79      -0.2456
     30  N         -6.1410  -53.0580   29.7650 N.3   119  TRP119     -0.1227
     31  CA        -6.1490  -51.6400   30.1230 C.3   119  TRP119      0.1737
     32  C         -5.8180  -51.4240   31.5980 C.2   119  TRP119      0.2595
     33  O         -6.6950  -51.1730   32.4280 O.2   119  TRP119     -0.2718
     34  CB        -7.4900  -51.0280   29.7030 C.3   119  TRP119      0.0564
     35  CG        -7.6470  -51.3090   28.2560 C.ar  119  TRP119      0.0003
     36  CD1       -8.3370  -52.3260   27.6940 C.ar  119  TRP119      0.0946
     37  CD2       -6.9700  -50.6420   27.1930 C.ar  119  TRP119      0.0152
     38  NE1       -8.1630  -52.3150   26.3290 N.ar  119  TRP119     -0.2442
     39  CE2       -7.3360  -51.2810   25.9980 C.ar  119  TRP119      0.0810
     40  CE3       -6.1180  -49.5370   27.1330 C.ar  119  TRP119      0.0012
     41  CZ2       -6.8790  -50.8640   24.7550 C.ar  119  TRP119      0.0191
     42  CZ3       -5.6600  -49.1170   25.8900 C.ar  119  TRP119      0.0001
     43  CH2       -6.0470  -49.7800   24.7220 C.ar  119  TRP119      0.0015
     44  N         -4.5140  -51.4630   31.8670 N.am  120  HIS120     -0.1961
     45  CA        -3.9480  -51.6940   33.1810 C.3   120  HIS120      0.1787
     46  C         -3.8220  -50.4820   34.0830 C.2   120  HIS120      0.2620
     47  O         -3.5610  -50.6510   35.2800 O.2   120  HIS120     -0.2715
     48  CB        -2.5650  -52.3380   33.0230 C.3   120  HIS120      0.0785
     49  CG        -1.6270  -51.5520   32.1620 C.ar  120  HIS120      0.0821
     50  ND1       -0.2650  -51.7720   32.1460 N.ar  120  HIS120     -0.2267
     51  CD2       -1.8500  -50.5360   31.2910 C.ar  120  HIS120      0.1154
     52  CE1        0.3110  -50.9250   31.3100 C.ar  120  HIS120      0.1986
     53  NE2       -0.6290  -50.1640   30.7740 N.ar  120  HIS120     -0.2212
     54  N         -4.0100  -49.2790   33.5330 N.am  121  HIS121     -0.1973
     55  CA        -3.8720  -48.0320   34.3130 C.3   121  HIS121      0.1656
     56  C         -5.1050  -47.5590   35.0960 C.2   121  HIS121      0.2291
     57  O         -4.9890  -46.7460   35.9870 O.2   121  HIS121     -0.2864
     58  CB        -3.4510  -46.8670   33.4030 C.3   121  HIS121      0.0771
     59  CG        -2.1240  -47.0630   32.7390 C.ar  121  HIS121      0.0820
     60  ND1       -0.9510  -47.2170   33.4480 N.ar  121  HIS121     -0.2267
     61  CD2       -1.7810  -47.1070   31.4290 C.ar  121  HIS121      0.1154
     62  CE1        0.0580  -47.3510   32.6040 C.ar  121  HIS121      0.1986
     63  NE2       -0.4170  -47.2850   31.3740 N.ar  121  HIS121     -0.2212
     64  N         -4.5190  -43.0130   31.6020 N.3   129  GLY129     -0.1210
     65  CA        -3.7000  -43.6160   30.5590 C.3   129  GLY129      0.1956
     66  C         -4.4760  -44.3010   29.4480 C.2   129  GLY129      0.2611
     67  O         -4.0750  -45.3660   28.9590 O.2   129  GLY129     -0.2717
     68  N         -5.5940  -43.6930   29.0540 N.am  130  PHE130     -0.1976
     69  CA        -6.4680  -44.2330   28.0040 C.3   130  PHE130      0.1639
     70  C         -7.2770  -45.4260   28.5070 C.2   130  PHE130      0.2290
     71  O         -7.9860  -46.0620   27.7340 O.2   130  PHE130     -0.2864
     72  CB        -5.7020  -44.6810   26.7420 C.3   130  PHE130      0.0560
     73  CG        -4.7440  -43.6740   26.1930 C.ar  130  PHE130     -0.0200
     74  CD1       -4.8560  -42.3300   26.5070 C.ar  130  PHE130     -0.0042
     75  CD2       -3.7450  -44.0710   25.3130 C.ar  130  PHE130     -0.0042
     76  CE1       -3.9670  -41.4080   25.9960 C.ar  130  PHE130     -0.0003
     77  CE2       -2.8520  -43.1500   24.7840 C.ar  130  PHE130     -0.0003
     78  CZ        -2.9580  -41.8180   25.1320 C.ar  130  PHE130     -0.0000
     79  N          3.7520  -54.2610   29.0300 N.3   156  ASP156     -0.1239
     80  CA         3.4590  -52.9580   28.4190 C.3   156  ASP156      0.1674
     81  C          4.6660  -52.0220   28.5910 C.2   156  ASP156      0.2266
     82  O          5.5010  -52.2640   29.4310 O.2   156  ASP156     -0.2867
     83  CB         2.2320  -52.3630   29.1180 C.3   156  ASP156      0.1410
     84  CG         1.6250  -51.2250   28.3440 C.2   156  ASP156      0.3668
     85  OD1        0.6650  -51.4610   27.5890 O.co2 156  ASP156     -0.2456
     86  OD2        2.0860  -50.0850   28.5260 O.co2 156  ASP156     -0.2456
     87  N          4.4760  -49.0740   29.8100 N.3   158  HIS158     -0.1241
     88  CA         4.2050  -48.2330   30.9850 C.3   158  HIS158      0.1621
     89  C          4.0260  -49.0670   32.2580 C.2   158  HIS158      0.2264
     90  O          3.5010  -50.1760   32.1940 O.2   158  HIS158     -0.2867
     91  CB         2.9740  -47.3420   30.7260 C.3   158  HIS158      0.0745
     92  CG         3.1330  -46.4120   29.5580 C.ar  158  HIS158      0.0817
     93  ND1        2.7690  -46.7540   28.2730 N.ar  158  HIS158     -0.2268
     94  CD2        3.6210  -45.1500   29.4810 C.ar  158  HIS158      0.1154
     95  CE1        3.0240  -45.7470   27.4570 C.ar  158  HIS158      0.1986
     96  NE2        3.5370  -44.7600   28.1670 N.ar  158  HIS158     -0.2212
     97  N          5.0990  -41.1900   32.0420 N.3   186  PHE186     -0.1241
     98  CA         3.8710  -41.6790   32.6630 C.3   186  PHE186      0.1605
     99  C          3.9620  -43.1610   33.0970 C.2   186  PHE186      0.2264
    100  O          4.4870  -43.9900   32.3580 O.2   186  PHE186     -0.2867
    101  CB         2.7260  -41.4760   31.6670 C.3   186  PHE186      0.0534
    102  CG         1.4200  -42.0960   32.0880 C.ar  186  PHE186     -0.0203
    103  CD1        1.0840  -43.3760   31.6870 C.ar  186  PHE186     -0.0042
    104  CD2        0.5160  -41.3810   32.8510 C.ar  186  PHE186     -0.0042
    105  CE1       -0.1300  -43.9400   32.0670 C.ar  186  PHE186     -0.0003
    106  CE2       -0.6930  -41.9440   33.2430 C.ar  186  PHE186     -0.0003
    107  CZ        -1.0160  -43.2220   32.8470 C.ar  186  PHE186     -0.0000
    108  N          3.4770  -51.3020   23.0110 N.3   245  ASP245     -0.1239
    109  CA         4.1010  -50.0030   22.8680 C.3   245  ASP245      0.1674
    110  C          5.6020  -50.0140   23.1980 C.2   245  ASP245      0.2266
    111  O          6.2330  -48.9570   23.2490 O.2   245  ASP245     -0.2867
    112  CB         3.3310  -48.8840   23.6010 C.3   245  ASP245      0.1410
    113  CG         2.8670  -49.2840   25.0120 C.2   245  ASP245      0.3668
    114  OD1        3.1970  -50.3810   25.5160 O.co2 245  ASP245     -0.2456
    115  OD2        2.1720  -48.4560   25.6280 O.co2 245  ASP245     -0.2456
    116  N          5.1000  -44.0260   21.1110 N.3   252  MET252     -0.1245
    117  CA         5.6340  -43.8050   22.4670 C.3   252  MET252      0.1570
    118  C          7.1710  -43.6720   22.4640 C.2   252  MET252      0.2261
    119  O          7.7730  -43.2640   23.4600 O.2   252  MET252     -0.2867
    120  CB         5.1810  -44.9300   23.4100 C.3   252  MET252      0.0387
    121  CG         3.6620  -44.9850   23.6190 C.3   252  MET252      0.0595
    122  SD         3.0890  -43.5750   24.6150 S.3   252  MET252     -0.1393
    123  CE         1.3270  -43.6100   24.2300 C.3   252  MET252      0.0692
    124  N         -3.0990  -54.4380   25.1980 N.3   281  GLY281     -0.1210
    125  CA        -2.9560  -53.2110   25.9620 C.3   281  GLY281      0.1956
    126  C         -2.5150  -52.0570   25.0830 C.2   281  GLY281      0.2612
    127  O         -3.1680  -51.7460   24.0910 O.2   281  GLY281     -0.2717
    128  N         -1.4100  -51.4170   25.4510 N.am  282  GLY282     -0.1956
    129  CA        -0.8320  -50.3830   24.6230 C.3   282  GLY282      0.1869
    130  C         -0.4410  -50.9420   23.2770 C.2   282  GLY282      0.2309
    131  O         -0.3970  -52.1600   23.0910 O.2   282  GLY282     -0.2863
    132  N          0.5110  -48.3710   19.7420 N.3   284  TYR284     -0.1241
    133  CA        -0.0520  -47.1940   19.0880 C.3   284  TYR284      0.1605
    134  C          0.3500  -47.0080   17.6260 C.2   284  TYR284      0.2264
    135  O         -0.1580  -46.1090   16.9600 O.2   284  TYR284     -0.2867
    136  CB         0.1680  -45.9520   19.9650 C.3   284  TYR284      0.0534
    137  CG        -0.4330  -46.2010   21.3250 C.ar  284  TYR284     -0.0201
    138  CD1       -1.8120  -46.1510   21.4990 C.ar  284  TYR284     -0.0009
    139  CD2        0.3620  -46.5770   22.4120 C.ar  284  TYR284     -0.0009
    140  CE1       -2.3840  -46.4230   22.7040 C.ar  284  TYR284      0.0417
    141  CE2       -0.2180  -46.8430   23.6600 C.ar  284  TYR284      0.0417
    142  CZ        -1.5940  -46.7650   23.7840 C.ar  284  TYR284      0.1957
    143  OH        -2.2010  -47.0190   24.9790 O.3   284  TYR284     -0.2866
@<TRIPOS>BOND
     1   135   134    2
     2   134   133    1
     3     4     3    2
     4     3     2    1
     5   133   132    1
     6   133   136    1
     7     2     1    1
     8     2     5    1
     9   136   137    1
    10   116   117    1
    11     5     6    1
    12   137   138   ar
    13   137   139   ar
    14   138   140   ar
    15     6     7    1
    16   139   141   ar
    17   118   117    1
    18   118   119    2
    19   117   120    1
    20   140   142   ar
    21   109   108    1
    22   109   110    1
    23   109   112    1
    24   131   130    2
    25   110   111    2
    26   130   129    1
    27     7     8    1
    28   120   121    1
    29   112   113    1
    30   121   122    1
    31   141   142   ar
    32   142   143    1
    33     8     9    1
    34   127   126    2
    35   123   122    1
    36   129   128    1
    37    43    41   ar
    38    43    42   ar
    39    41    39   ar
    40    77    78   ar
    41    77    75   ar
    42   113   114   ar
    43   113   115   ar
    44   126   128   am
    45   126   125    1
    46    78    76   ar
    47   124   125    1
    48    75    73   ar
    49    42    40   ar
    50    76    74   ar
    51    39    38   ar
    52    39    37   ar
    53    73    74   ar
    54    73    72    1
    55    38    36   ar
    56    72    69    1
    57    13    12    2
    58    40    37   ar
    59    37    35   ar
    60    25    24    2
    61    95    96   ar
    62    95    93   ar
    63    85    84   ar
    64    36    35   ar
    65    71    70    2
    66    69    70    1
    67    69    68    1
    68    24    23    1
    69    23    26    1
    70    23    22    1
    71    96    94   ar
    72    35    34    1
    73    93    92   ar
    74    12    22   am
    75    12    11    1
    76    84    86   ar
    77    84    83    1
    78    80    81    1
    79    80    79    1
    80    80    83    1
    81    81    82    2
    82    26    27    1
    83    67    66    2
    84    68    66   am
    85    11    10    1
    86    11    14    1
    87    66    65    1
    88    94    92   ar
    89    92    91    1
    90    34    31    1
    91    30    31    1
    92    87    88    1
    93    31    32    1
    94    27    29   ar
    95    27    28   ar
    96    14    15    1
    97    65    64    1
    98    91    88    1
    99    53    51   ar
   100    53    52   ar
   101    88    89    1
   102    16    15   ar
   103    16    18   ar
   104    51    49   ar
   105    52    50   ar
   106    63    61   ar
   107    63    62   ar
   108    15    17   ar
   109    61    59   ar
   110    32    44   am
   111    32    33    2
   112   101   102    1
   113   101    98    1
   114   103   105   ar
   115   103   102   ar
   116    44    45    1
   117    18    20   ar
   118    97    98    1
   119   105   107   ar
   120   102   104   ar
   121    50    49   ar
   122    49    48    1
   123    90    89    2
   124   100    99    2
   125    17    19   ar
   126    62    60   ar
   127    98    99    1
   128    59    58    1
   129    59    60   ar
   130   107   106   ar
   131   104   106   ar
   132    48    45    1
   133    20    19   ar
   134    20    21    1
   135    45    46    1
   136    58    55    1
   137    54    46   am
   138    54    55    1
   139    46    47    2
   140    55    56    1
   141    56    57    2
