@<TRIPOS>MOLECULE
tmp/3rqeC00.pdb
 144 136 0 0 0
SMALL
GASTEIGER

@<TRIPOS>ATOM
      1  N         28.7680  -10.2910   60.4610 N.3   130  LEU130     -0.1245
      2  CA        28.3510   -9.9670   61.8230 C.3   130  LEU130      0.1561
      3  C         29.0380   -8.7010   62.3330 C.2   130  LEU130      0.2260
      4  O         28.3970   -7.8040   62.8920 O.2   130  LEU130     -0.2867
      5  CB        28.7030  -11.1270   62.7510 C.3   130  LEU130      0.0270
      6  CG        27.7910  -11.4030   63.9450 C.3   130  LEU130      0.0019
      7  CD1       26.4450  -11.9700   63.4790 C.3   130  LEU130      0.0001
      8  CD2       28.4870  -12.3430   64.9440 C.3   130  LEU130      0.0001
      9  N         27.6810   -5.6620   60.4830 N.3   133  ILE133     -0.1231
     10  CA        26.4330   -5.1730   61.0460 C.3   133  ILE133      0.1692
     11  C         26.7570   -4.2050   62.1780 C.2   133  ILE133      0.2591
     12  O         26.2530   -3.0780   62.1850 O.2   133  ILE133     -0.2718
     13  CB        25.4760   -6.3130   61.4830 C.3   133  ILE133      0.0266
     14  CG1       24.7090   -6.8340   60.2660 C.3   133  ILE133      0.0019
     15  CG2       24.4660   -5.8300   62.5360 C.3   133  ILE133      0.0020
     16  CD1       23.9850   -8.1270   60.5210 C.3   133  ILE133      0.0001
     17  N         27.6270   -4.6310   63.0950 N.am  134  LYS134     -0.1980
     18  CA        28.0600   -3.7800   64.1980 C.3   134  LYS134      0.1596
     19  C         28.6500   -2.4630   63.6810 C.2   134  LYS134      0.2287
     20  O         28.1460   -1.3830   64.0030 O.2   134  LYS134     -0.2864
     21  CB        29.0550   -4.5190   65.1080 C.3   134  LYS134      0.0298
     22  CG        29.6950   -3.6350   66.2070 C.3   134  LYS134      0.0038
     23  CD        31.0370   -4.1870   66.7110 C.3   134  LYS134      0.0206
     24  CE        30.8640   -5.0950   67.9260 C.3   134  LYS134      0.1093
     25  NZ        30.3010   -4.3420   69.0910 N.3   134  LYS134     -0.1314
     26  N         28.3490   -0.9420   61.0490 N.3   136  ILE136     -0.1231
     27  CA        27.3130   -0.1400   60.4250 C.3   136  ILE136      0.1692
     28  C         26.5600    0.5830   61.5320 C.2   136  ILE136      0.2592
     29  O         26.4010    1.8040   61.4820 O.2   136  ILE136     -0.2718
     30  CB        26.3720   -1.0030   59.5280 C.3   136  ILE136      0.0266
     31  CG1       27.0450   -1.3210   58.1920 C.3   136  ILE136      0.0019
     32  CG2       25.0660   -0.2990   59.2550 C.3   136  ILE136      0.0020
     33  CD1       26.4410   -2.5190   57.4450 C.3   136  ILE136      0.0001
     34  N         26.1390   -0.1670   62.5480 N.am  137  ALA137     -0.1966
     35  CA        25.4130    0.4120   63.6730 C.3   137  ALA137      0.1728
     36  C         26.1690    1.6170   64.2320 C.2   137  ALA137      0.2616
     37  O         25.5940    2.6960   64.3920 O.2   137  ALA137     -0.2715
     38  CB        25.1940   -0.6210   64.7390 C.3   137  ALA137      0.0334
     39  N         27.4600    1.4310   64.5040 N.am  138  SER138     -0.1950
     40  CA        28.3110    2.5370   64.9050 C.3   138  SER138      0.1924
     41  C         28.1650    3.6650   63.8990 C.2   138  SER138      0.2314
     42  O         27.5660    4.6860   64.2080 O.2   138  SER138     -0.2863
     43  CB        29.7740    2.1130   65.0250 C.3   138  SER138      0.2116
     44  OG        29.9140    1.0260   65.9200 O.3   138  SER138     -0.2180
     45  N         26.1980    4.6430   61.8910 N.3   140  ILE140     -0.1231
     46  CA        24.8850    5.2820   61.9720 C.3   140  ILE140      0.1692
     47  C         24.7340    6.1250   63.2460 C.2   140  ILE140      0.2591
     48  O         24.4110    7.3110   63.1660 O.2   140  ILE140     -0.2718
     49  CB        23.7510    4.2400   61.8830 C.3   140  ILE140      0.0266
     50  CG1       23.7980    3.5380   60.5260 C.3   140  ILE140      0.0019
     51  CG2       22.3940    4.8980   62.0890 C.3   140  ILE140      0.0020
     52  CD1       22.9490    2.2920   60.4300 C.3   140  ILE140      0.0001
     53  N         24.9630    5.5040   64.4080 N.am  141  LYS141     -0.1980
     54  CA        24.9260    6.1890   65.7060 C.3   141  LYS141      0.1596
     55  C         25.9080    7.3590   65.7380 C.2   141  LYS141      0.2287
     56  O         25.5570    8.4610   66.1460 O.2   141  LYS141     -0.2864
     57  CB        25.2240    5.2070   66.8540 C.3   141  LYS141      0.0298
     58  CG        25.0930    5.8200   68.2620 C.3   141  LYS141      0.0038
     59  CD        24.5300    4.8270   69.2900 C.3   141  LYS141      0.0206
     60  CE        23.6640    5.5350   70.3370 C.3   141  LYS141      0.1093
     61  NZ        22.7560    4.5980   71.0600 N.3   141  LYS141     -0.1314
     62  N         24.5070   10.2030   63.1620 N.3   144  LEU144     -0.1231
     63  CA        23.3160   10.9280   63.6130 C.3   144  LEU144      0.1693
     64  C         23.6020   11.9180   64.7610 C.2   144  LEU144      0.2592
     65  O         22.8950   12.9210   64.9120 O.2   144  LEU144     -0.2718
     66  CB        22.1880    9.9510   63.9670 C.3   144  LEU144      0.0284
     67  CG        21.4620    9.3060   62.7760 C.3   144  LEU144      0.0019
     68  CD1       20.5140    8.2000   63.2280 C.3   144  LEU144      0.0001
     69  CD2       20.7130   10.3390   61.9320 C.3   144  LEU144      0.0001
     70  N         24.6440   11.6370   65.5470 N.am  145  ASP145     -0.1974
     71  CA        25.1720   12.5940   66.5130 C.3   145  ASP145      0.1709
     72  C         25.7440   13.8210   65.7900 C.2   145  ASP145      0.2293
     73  O         25.2760   14.9360   65.9990 O.2   145  ASP145     -0.2864
     74  CB        26.2230   11.9320   67.4160 C.3   145  ASP145      0.1436
     75  CG        25.6980   10.6720   68.1160 C.2   145  ASP145      0.3671
     76  OD1       24.4780   10.3950   68.0560 O.co2 145  ASP145     -0.2456
     77  OD2       26.5150    9.9470   68.7240 O.co2 145  ASP145     -0.2456
     78  N         16.3330    7.6240   59.0960 N.3   161  VAL161     -0.1245
     79  CA        16.1140    6.6660   60.1810 C.3   161  VAL161      0.1561
     80  C         15.1140    5.5910   59.7520 C.2   161  VAL161      0.2260
     81  O         15.2000    4.4400   60.1860 O.2   161  VAL161     -0.2867
     82  CB        15.6650    7.3810   61.4950 C.3   161  VAL161      0.0252
     83  CG1       15.2590    6.3760   62.5840 C.3   161  VAL161      0.0019
     84  CG2       16.7770    8.3000   62.0030 C.3   161  VAL161      0.0019
     85  N         17.0440    3.4880   57.5430 N.3   164  SER164     -0.1202
     86  CA        17.9160    2.8440   58.5170 C.3   164  SER164      0.2020
     87  C         17.2330    1.6150   59.1280 C.2   164  SER164      0.2618
     88  O         17.8160    0.5330   59.1980 O.2   164  SER164     -0.2717
     89  CB        18.2980    3.8490   59.6020 C.3   164  SER164      0.2103
     90  OG        19.3890    3.4020   60.3800 O.3   164  SER164     -0.2182
     91  N         15.9800    1.7840   59.5340 N.am  165  LYS165     -0.1979
     92  CA        15.1980    0.6920   60.1060 C.3   165  LYS165      0.1596
     93  C         14.9180   -0.4270   59.0980 C.2   165  LYS165      0.2287
     94  O         15.0180   -1.6190   59.4160 O.2   165  LYS165     -0.2864
     95  CB        13.8780    1.2300   60.6700 C.3   165  LYS165      0.0298
     96  CG        13.2300    0.2650   61.6430 C.3   165  LYS165      0.0038
     97  CD        11.8570    0.7150   62.0690 C.3   165  LYS165      0.0206
     98  CE        11.2330   -0.3430   62.9630 C.3   165  LYS165      0.1093
     99  NZ        12.0410   -0.5940   64.2050 N.3   165  LYS165     -0.1314
    100  N         16.6130   -1.2700   56.4780 N.3   167  PHE167     -0.1227
    101  CA        17.8230   -2.0350   56.2310 C.3   167  PHE167      0.1736
    102  C         17.9690   -3.1760   57.2450 C.2   167  PHE167      0.2596
    103  O         18.2550   -4.3120   56.8580 O.2   167  PHE167     -0.2718
    104  CB        19.0540   -1.1120   56.1930 C.3   167  PHE167      0.0547
    105  CG        20.3590   -1.8410   56.0360 C.ar  167  PHE167     -0.0202
    106  CD1       20.6460   -2.5470   54.8780 C.ar  167  PHE167     -0.0042
    107  CD2       21.3070   -1.8220   57.0580 C.ar  167  PHE167     -0.0042
    108  CE1       21.8470   -3.2230   54.7420 C.ar  167  PHE167     -0.0003
    109  CE2       22.5140   -2.5080   56.9270 C.ar  167  PHE167     -0.0003
    110  CZ        22.7790   -3.2080   55.7680 C.ar  167  PHE167     -0.0000
    111  N         17.7440   -2.8780   58.5280 N.am  168  SER168     -0.1952
    112  CA        17.7090   -3.9110   59.5790 C.3   168  SER168      0.1924
    113  C         16.6560   -4.9720   59.2850 C.2   168  SER168      0.2314
    114  O         16.9010   -6.1780   59.4210 O.2   168  SER168     -0.2863
    115  CB        17.4100   -3.3060   60.9490 C.3   168  SER168      0.2116
    116  OG        18.5120   -2.5670   61.4350 O.3   168  SER168     -0.2180
    117  N         17.7960   -7.1100   56.5870 N.3   171  LEU171     -0.1231
    118  CA        18.8560   -7.8930   57.1690 C.3   171  LEU171      0.1693
    119  C         18.2820   -9.1330   57.8390 C.2   171  LEU171      0.2591
    120  O         18.6390  -10.2670   57.4770 O.2   171  LEU171     -0.2718
    121  CB        19.6420   -7.0530   58.1710 C.3   171  LEU171      0.0284
    122  CG        20.9080   -6.3730   57.6610 C.3   171  LEU171      0.0019
    123  CD1       21.3850   -5.3180   58.6470 C.3   171  LEU171      0.0001
    124  CD2       21.9870   -7.4170   57.4130 C.3   171  LEU171      0.0001
    125  N         17.3730   -8.9070   58.7900 N.am  172  LYS172     -0.1980
    126  CA        16.6920   -9.9870   59.5170 C.3   172  LYS172      0.1596
    127  C         16.0880  -11.0720   58.6190 C.2   172  LYS172      0.2287
    128  O         16.1260  -12.2510   58.9720 O.2   172  LYS172     -0.2864
    129  CB        15.6250   -9.4180   60.4450 C.3   172  LYS172      0.0298
    130  CG        16.1990   -8.6420   61.6140 C.3   172  LYS172      0.0038
    131  CD        15.1090   -8.0570   62.4810 C.3   172  LYS172      0.0206
    132  CE        15.7150   -7.2460   63.6010 C.3   172  LYS172      0.1093
    133  NZ        14.6730   -6.8150   64.5780 N.3   172  LYS172     -0.1314
    134  N         18.9210  -13.7400   56.8330 N.3   175  PHE175     -0.1241
    135  CA        19.2610  -14.8790   57.6840 C.3   175  PHE175      0.1605
    136  C         18.1330  -15.9160   57.7610 C.2   175  PHE175      0.2264
    137  O         18.3210  -17.0190   58.2850 O.2   175  PHE175     -0.2867
    138  CB        19.6670  -14.4050   59.0750 C.3   175  PHE175      0.0534
    139  CG        20.9820  -13.6760   59.1030 C.ar  175  PHE175     -0.0203
    140  CD1       22.1620  -14.3210   58.7130 C.ar  175  PHE175     -0.0042
    141  CD2       21.0470  -12.3500   59.5320 C.ar  175  PHE175     -0.0042
    142  CE1       23.3890  -13.6520   58.7430 C.ar  175  PHE175     -0.0003
    143  CE2       22.2630  -11.6700   59.5680 C.ar  175  PHE175     -0.0003
    144  CZ        23.4390  -12.3270   59.1730 C.ar  175  PHE175     -0.0000
@<TRIPOS>BOND
     1   108   106   ar
     2   108   110   ar
     3   106   105   ar
     4   110   109   ar
     5   105   104    1
     6   105   107   ar
     7   104   101    1
     8   101   100    1
     9   101   102    1
    10   117   118    1
    11   134   135    1
    12   103   102    2
    13   109   107   ar
    14   118   119    1
    15   118   121    1
    16   102   111   am
    17   124   122    1
    18    33    31    1
    19   120   119    2
    20    85    86    1
    21   122   121    1
    22   122   123    1
    23   135   136    1
    24   135   138    1
    25   136   137    2
    26   119   125   am
    27    31    30    1
    28    86    87    1
    29    86    89    1
    30   111   112    1
    31   127   128    2
    32   127   126    1
    33   140   142   ar
    34   140   139   ar
    35   142   144   ar
    36   125   126    1
    37   138   139    1
    38    78    79    1
    39    93    94    2
    40    93    92    1
    41   139   141   ar
    42    87    88    2
    43    87    91   am
    44   144   143   ar
    45    32    30    1
    46   113   114    2
    47   113   112    1
    48   126   129    1
    49    30    27    1
    50   141   143   ar
    51    91    92    1
    52   112   115    1
    53    89    90    1
    54    80    79    1
    55    80    81    2
    56    92    95    1
    57    79    82    1
    58    14    16    1
    59    14    13    1
    60    27    26    1
    61    27    28    1
    62    52    50    1
    63   129   130    1
    64     1     2    1
    65     9    10    1
    66    50    49    1
    67    95    96    1
    68   115   116    1
    69    10    13    1
    70    10    11    1
    71    29    28    2
    72    13    15    1
    73    82    84    1
    74    82    83    1
    75    28    34   am
    76   130   131    1
    77    96    97    1
    78     2     3    1
    79     2     5    1
    80    49    46    1
    81    49    51    1
    82    45    46    1
    83    69    67    1
    84    46    47    1
    85    97    98    1
    86    11    12    2
    87    11    17   am
    88     3     4    2
    89   131   132    1
    90    34    35    1
    91     5     6    1
    92    67    68    1
    93    67    66    1
    94    98    99    1
    95    17    18    1
    96    62    63    1
    97    48    47    2
    98    47    53   am
    99     7     6    1
   100   132   133    1
   101    63    66    1
   102    63    64    1
   103    35    36    1
   104    35    38    1
   105    19    20    2
   106    19    18    1
   107    41    42    2
   108    41    40    1
   109     6     8    1
   110    18    21    1
   111    36    37    2
   112    36    39   am
   113    53    54    1
   114    39    40    1
   115    64    65    2
   116    64    70   am
   117    40    43    1
   118    43    44    1
   119    21    22    1
   120    70    71    1
   121    54    55    1
   122    54    57    1
   123    55    56    2
   124    72    73    2
   125    72    71    1
   126    22    23    1
   127    71    74    1
   128    23    24    1
   129    57    58    1
   130    74    75    1
   131    24    25    1
   132    76    75   ar
   133    75    77   ar
   134    58    59    1
   135    59    60    1
   136    60    61    1
