@<TRIPOS>MOLECULE
tmp/3rqfA00.pdb
 138 130 0 0 0
SMALL
GASTEIGER

@<TRIPOS>ATOM
      1  N        -33.4780  -22.9930   13.7040 N.3   113  LEU113     -0.1245
      2  CA       -32.9580  -23.3470   12.3810 C.3   113  LEU113      0.1561
      3  C        -33.6760  -22.5720   11.2770 C.2   113  LEU113      0.2260
      4  O        -33.0510  -22.1410   10.3050 O.2   113  LEU113     -0.2867
      5  CB       -33.0670  -24.8570   12.1300 C.3   113  LEU113      0.0270
      6  CG       -31.8180  -25.7560   12.1570 C.3   113  LEU113      0.0019
      7  CD1      -30.9190  -25.5070   10.9390 C.3   113  LEU113      0.0001
      8  CD2      -31.0190  -25.6390   13.4570 C.3   113  LEU113      0.0001
      9  N        -32.5120  -18.7440   11.6380 N.3   116  ILE116     -0.1231
     10  CA       -31.1900  -18.5320   11.0420 C.3   116  ILE116      0.1692
     11  C        -31.2840  -18.3580    9.5220 C.2   116  ILE116      0.2591
     12  O        -30.6350  -17.4780    8.9540 O.2   116  ILE116     -0.2718
     13  CB       -30.2140  -19.6780   11.4250 C.3   116  ILE116      0.0266
     14  CG1      -29.8290  -19.5590   12.9030 C.3   116  ILE116      0.0019
     15  CG2      -28.9590  -19.6740   10.5410 C.3   116  ILE116      0.0020
     16  CD1      -29.3200  -20.8410   13.5020 C.3   116  ILE116      0.0001
     17  N        -32.1050  -19.1900    8.8830 N.am  117  LYS117     -0.1980
     18  CA       -32.3480  -19.0950    7.4440 C.3   117  LYS117      0.1596
     19  C        -32.9940  -17.7620    7.0740 C.2   117  LYS117      0.2287
     20  O        -32.6740  -17.1780    6.0370 O.2   117  LYS117     -0.2864
     21  CB       -33.2230  -20.2570    6.9530 C.3   117  LYS117      0.0298
     22  CG       -32.5480  -21.6250    6.9850 C.3   117  LYS117      0.0038
     23  CD       -33.3680  -22.6860    6.2550 C.3   117  LYS117      0.0206
     24  CE       -34.5130  -23.2250    7.1070 C.3   117  LYS117      0.1093
     25  NZ       -35.2760  -24.2960    6.4040 N.3   117  LYS117     -0.1314
     26  N        -32.8650  -14.8750    8.9600 N.3   119  ILE119     -0.1231
     27  CA       -31.8650  -13.8410    9.2390 C.3   119  ILE119      0.1692
     28  C        -30.8970  -13.6880    8.0610 C.2   119  ILE119      0.2591
     29  O        -30.6150  -12.5690    7.6200 O.2   119  ILE119     -0.2718
     30  CB       -31.0680  -14.1420   10.5380 C.3   119  ILE119      0.0266
     31  CG1      -31.9810  -14.0670   11.7650 C.3   119  ILE119      0.0019
     32  CG2      -29.9060  -13.1620   10.7000 C.3   119  ILE119      0.0020
     33  CD1      -31.3990  -14.7080   13.0160 C.3   119  ILE119      0.0001
     34  N        -30.4010  -14.8190    7.5600 N.am  120  ALA120     -0.1980
     35  CA       -29.5260  -14.8430    6.3940 C.3   120  ALA120      0.1597
     36  C        -30.1880  -14.1670    5.1930 C.2   120  ALA120      0.2287
     37  O        -29.5620  -13.3660    4.4960 O.2   120  ALA120     -0.2864
     38  CB       -29.1390  -16.2760    6.0550 C.3   120  ALA120      0.0319
     39  N        -30.5980  -10.3280    5.9070 N.3   123  ILE123     -0.1231
     40  CA       -29.3150   -9.6560    5.7050 C.3   123  ILE123      0.1692
     41  C        -29.0410   -9.4550    4.2150 C.2   123  ILE123      0.2591
     42  O        -28.7220   -8.3460    3.7780 O.2   123  ILE123     -0.2718
     43  CB       -28.1450  -10.4540    6.3480 C.3   123  ILE123      0.0266
     44  CG1      -28.1570  -10.2890    7.8710 C.3   123  ILE123      0.0019
     45  CG2      -26.7870  -10.0250    5.7550 C.3   123  ILE123      0.0020
     46  CD1      -27.2380  -11.2430    8.6150 C.3   123  ILE123      0.0001
     47  N        -29.1750  -10.5390    3.4510 N.am  124  LYS124     -0.1980
     48  CA       -28.9150  -10.5390    2.0140 C.3   124  LYS124      0.1596
     49  C        -29.8040   -9.5270    1.3010 C.2   124  LYS124      0.2287
     50  O        -29.3360   -8.7860    0.4340 O.2   124  LYS124     -0.2864
     51  CB       -29.1240  -11.9470    1.4420 C.3   124  LYS124      0.0298
     52  CG       -28.6470  -12.1500    0.0040 C.3   124  LYS124      0.0038
     53  CD       -29.7500  -11.8980   -1.0370 C.3   124  LYS124      0.0206
     54  CE       -30.7560  -13.0460   -1.1130 C.3   124  LYS124      0.1093
     55  NZ       -31.7670  -12.8280   -2.1880 N.3   124  LYS124     -0.1314
     56  N        -28.6890   -6.0230    1.9960 N.3   127  LEU127     -0.1245
     57  CA       -27.5300   -5.7940    1.1410 C.3   127  LEU127      0.1561
     58  C        -27.9380   -5.4470   -0.2870 C.2   127  LEU127      0.2260
     59  O        -27.2790   -4.6420   -0.9460 O.2   127  LEU127     -0.2867
     60  CB       -26.6210   -7.0200    1.1370 C.3   127  LEU127      0.0270
     61  CG       -25.5680   -7.1020    2.2380 C.3   127  LEU127      0.0019
     62  CD1      -24.9430   -8.4900    2.2630 C.3   127  LEU127      0.0001
     63  CD2      -24.5020   -6.0290    2.0300 C.3   127  LEU127      0.0001
     64  N        -21.1550   -5.0440    6.7670 N.3   153  VAL153     -0.1245
     65  CA       -20.7100   -6.3530    6.2780 C.3   153  VAL153      0.1561
     66  C        -19.7800   -7.0310    7.2910 C.2   153  VAL153      0.2260
     67  O        -19.8560   -8.2470    7.4920 O.2   153  VAL153     -0.2867
     68  CB       -20.0590   -6.2630    4.8540 C.3   153  VAL153      0.0252
     69  CG1      -19.2640   -7.5180    4.5170 C.3   153  VAL153      0.0019
     70  CG2      -21.1250   -6.0350    3.7890 C.3   153  VAL153      0.0019
     71  N        -21.9260   -8.2920   10.1520 N.3   156  SER156     -0.1202
     72  CA       -22.7060   -9.4280    9.6510 C.3   156  SER156      0.2020
     73  C        -21.8700  -10.7110    9.6640 C.2   156  SER156      0.2618
     74  O        -22.3550  -11.7690   10.0820 O.2   156  SER156     -0.2717
     75  CB       -23.2280   -9.1570    8.2350 C.3   156  SER156      0.2103
     76  OG       -24.1370   -8.0720    8.2090 O.3   156  SER156     -0.2182
     77  N        -20.6210  -10.6150    9.2020 N.am  157  LYS157     -0.1979
     78  CA       -19.6580  -11.7090    9.3320 C.3   157  LYS157      0.1596
     79  C        -19.4760  -12.0780   10.7980 C.2   157  LYS157      0.2287
     80  O        -19.4930  -13.2540   11.1600 O.2   157  LYS157     -0.2864
     81  CB       -18.3020  -11.3230    8.7370 C.3   157  LYS157      0.0298
     82  CG       -18.1120  -11.6890    7.2750 C.3   157  LYS157      0.0038
     83  CD       -16.6740  -11.4240    6.8440 C.3   157  LYS157      0.0206
     84  CE       -16.3710  -12.0050    5.4690 C.3   157  LYS157      0.1093
     85  NZ       -17.0930  -11.2770    4.3890 N.3   157  LYS157     -0.1314
     86  N        -21.4700  -11.6890   13.2640 N.3   159  PHE159     -0.1227
     87  CA       -22.6700  -12.3700   13.7440 C.3   159  PHE159      0.1736
     88  C        -22.7310  -13.8130   13.2510 C.2   159  PHE159      0.2596
     89  O        -23.1690  -14.7090   13.9750 O.2   159  PHE159     -0.2718
     90  CB       -23.9190  -11.5930   13.3160 C.3   159  PHE159      0.0547
     91  CG       -25.2120  -12.2040   13.7780 C.ar  159  PHE159     -0.0202
     92  CD1      -25.5070  -12.3050   15.1360 C.ar  159  PHE159     -0.0042
     93  CD2      -26.1450  -12.6630   12.8520 C.ar  159  PHE159     -0.0042
     94  CE1      -26.7020  -12.8690   15.5640 C.ar  159  PHE159     -0.0003
     95  CE2      -27.3470  -13.2250   13.2720 C.ar  159  PHE159     -0.0003
     96  CZ       -27.6260  -13.3260   14.6330 C.ar  159  PHE159     -0.0000
     97  N        -22.2830  -14.0260   12.0160 N.am  160  SER160     -0.1938
     98  CA       -22.2220  -15.3620   11.4290 C.3   160  SER160      0.2055
     99  C        -21.2110  -16.2410   12.1670 C.2   160  SER160      0.2643
    100  O        -21.4890  -17.4120   12.4410 O.2   160  SER160     -0.2714
    101  CB       -21.8910  -15.2770    9.9390 C.3   160  SER160      0.2130
    102  OG       -21.9990  -16.5480    9.3220 O.3   160  SER160     -0.2179
    103  N        -20.0520  -15.6650   12.4930 N.am  161  ASP161     -0.1971
    104  CA       -19.0210  -16.3490   13.2810 C.3   161  ASP161      0.1709
    105  C        -19.5160  -16.6520   14.6940 C.2   161  ASP161      0.2293
    106  O        -19.2780  -17.7420   15.2150 O.2   161  ASP161     -0.2864
    107  CB       -17.7340  -15.5170   13.3440 C.3   161  ASP161      0.1436
    108  CG       -17.0490  -15.3810   11.9900 C.2   161  ASP161      0.3671
    109  OD1      -16.6630  -14.2470   11.6380 O.co2 161  ASP161     -0.2456
    110  OD2      -16.8860  -16.4000   11.2800 O.co2 161  ASP161     -0.2456
    111  N        -22.6230  -17.0670   15.5440 N.3   163  LEU163     -0.1231
    112  CA       -23.6300  -18.1000   15.3580 C.3   163  LEU163      0.1693
    113  C        -22.9960  -19.4770   15.1570 C.2   163  LEU163      0.2591
    114  O        -23.5680  -20.4900   15.5590 O.2   163  LEU163     -0.2718
    115  CB       -24.5120  -17.7420   14.1620 C.3   163  LEU163      0.0284
    116  CG       -25.9910  -18.1220   14.1540 C.3   163  LEU163      0.0019
    117  CD1      -26.7580  -17.4300   15.2760 C.3   163  LEU163      0.0001
    118  CD2      -26.5820  -17.7540   12.8060 C.3   163  LEU163      0.0001
    119  N        -21.8140  -19.5050   14.5420 N.am  164  LYS164     -0.1980
    120  CA       -21.0530  -20.7450   14.3810 C.3   164  LYS164      0.1596
    121  C        -20.5460  -21.2740   15.7200 C.2   164  LYS164      0.2287
    122  O        -20.5520  -22.4860   15.9510 O.2   164  LYS164     -0.2864
    123  CB       -19.8710  -20.5520   13.4220 C.3   164  LYS164      0.0298
    124  CG       -20.2520  -20.3930   11.9580 C.3   164  LYS164      0.0038
    125  CD       -19.1850  -19.6050   11.2090 C.3   164  LYS164      0.0206
    126  CE       -19.6660  -19.1580    9.8350 C.3   164  LYS164      0.1093
    127  NZ       -19.6100  -20.2600    8.8300 N.3   164  LYS164     -0.1314
    128  N        -23.1840  -23.2450   18.2340 N.3   167  PHE167     -0.1241
    129  CA       -23.4740  -24.6690   18.0690 C.3   167  PHE167      0.1605
    130  C        -22.4320  -25.5730   18.7350 C.2   167  PHE167      0.2264
    131  O        -22.7340  -26.7130   19.0870 O.2   167  PHE167     -0.2867
    132  CB       -23.6840  -25.0210   16.5920 C.3   167  PHE167      0.0534
    133  CG       -24.8020  -24.2480   15.9420 C.ar  167  PHE167     -0.0203
    134  CD1      -26.1100  -24.3530   16.4170 C.ar  167  PHE167     -0.0042
    135  CD2      -24.5500  -23.4120   14.8600 C.ar  167  PHE167     -0.0042
    136  CE1      -27.1470  -23.6350   15.8230 C.ar  167  PHE167     -0.0003
    137  CE2      -25.5820  -22.6880   14.2600 C.ar  167  PHE167     -0.0003
    138  CZ       -26.8800  -22.8020   14.7440 C.ar  167  PHE167     -0.0000
@<TRIPOS>BOND
     1    55    54    1
     2    54    53    1
     3    53    52    1
     4    59    58    2
     5    58    57    1
     6    52    51    1
     7    50    49    2
     8    60    57    1
     9    60    61    1
    10    57    56    1
    11    49    48    1
    12    51    48    1
    13    48    47    1
    14    63    61    1
    15    61    62    1
    16    47    41   am
    17    42    41    2
    18    70    68    1
    19    41    40    1
    20    85    84    1
    21    37    36    2
    22    69    68    1
    23    68    65    1
    24    36    35    1
    25    84    83    1
    26    40    39    1
    27    40    43    1
    28    45    43    1
    29    20    19    2
    30    38    35    1
    31    23    22    1
    32    23    24    1
    33    65    64    1
    34    65    66    1
    35    43    44    1
    36    35    34    1
    37    25    24    1
    38    83    82    1
    39    21    22    1
    40    21    18    1
    41    19    18    1
    42    82    81    1
    43    66    67    2
    44    18    17    1
    45    34    28   am
    46    29    28    2
    47    44    46    1
    48    28    27    1
    49    76    75    1
    50    75    72    1
    51    81    78    1
    52   127   126    1
    53    17    11   am
    54    12    11    2
    55    26    27    1
    56    77    78    1
    57    77    73   am
    58    27    30    1
    59   102   101    1
    60    78    79    1
    61    11    10    1
    62    72    73    1
    63    72    71    1
    64    73    74    2
    65   126   125    1
    66   101    98    1
    67     4     3    2
    68    30    32    1
    69    30    31    1
    70    15    13    1
    71    79    80    2
    72     7     6    1
    73    10    13    1
    74    10     9    1
    75   125   124    1
    76     3     2    1
    77   110   108   ar
    78    13    14    1
    79    98    97    1
    80    98    99    1
    81   109   108   ar
    82    31    33    1
    83   124   123    1
    84   108   107    1
    85    97    88   am
    86     5     6    1
    87     5     2    1
    88     6     8    1
    89    99   100    2
    90    99   103   am
    91     2     1    1
    92   103   104    1
    93   118   116    1
    94    93    95   ar
    95    93    91   ar
    96    14    16    1
    97    88    87    1
    98    88    89    2
    99    86    87    1
   100    95    96   ar
   101   104   107    1
   102   104   105    1
   103    90    87    1
   104    90    91    1
   105   123   120    1
   106    91    92   ar
   107   116   115    1
   108   116   117    1
   109   115   112    1
   110   137   138   ar
   111   137   135   ar
   112   120   119    1
   113   120   121    1
   114   119   113   am
   115    96    94   ar
   116   105   106    2
   117   138   136   ar
   118   135   133   ar
   119    92    94   ar
   120   113   112    1
   121   113   114    2
   122   112   111    1
   123   121   122    2
   124   136   134   ar
   125   133   134   ar
   126   133   132    1
   127   132   129    1
   128   129   128    1
   129   129   130    1
   130   130   131    2
