@<TRIPOS>MOLECULE
tmp/3rqgC00.pdb
 150 143 0 0 0
SMALL
GASTEIGER

@<TRIPOS>ATOM
      1  N         29.6650   -9.8530   60.8440 N.3   130  LEU130     -0.1231
      2  CA        29.1940   -9.4070   62.1570 C.3   130  LEU130      0.1693
      3  C         29.9380   -8.1500   62.5950 C.2   130  LEU130      0.2591
      4  O         29.3280   -7.2120   63.1070 O.2   130  LEU130     -0.2718
      5  CB        29.3470  -10.5120   63.2100 C.3   130  LEU130      0.0284
      6  CG        28.3210  -11.6500   63.2470 C.3   130  LEU130      0.0019
      7  CD1       28.7490  -12.7120   64.2460 C.3   130  LEU130      0.0001
      8  CD2       26.9240  -11.1410   63.5770 C.3   130  LEU130      0.0001
      9  N         31.2520   -8.1380   62.3730 N.am  131  GLN131     -0.1979
     10  CA        32.0710   -6.9650   62.6350 C.3   131  GLN131      0.1601
     11  C         31.6010   -5.7920   61.7940 C.2   131  GLN131      0.2287
     12  O         31.4050   -4.6970   62.3120 O.2   131  GLN131     -0.2864
     13  CB        33.5520   -7.2550   62.3650 C.3   131  GLN131      0.0394
     14  CG        34.4990   -6.0890   62.6800 C.3   131  GLN131      0.0908
     15  CD        34.4930   -5.6900   64.1440 C.2   131  GLN131      0.2608
     16  OE1       34.7110   -6.5190   65.0270 O.2   131  GLN131     -0.2717
     17  NE2       34.2480   -4.4120   64.4070 N.am  131  GLN131     -0.0878
     18  N         28.6900   -5.2270   60.5290 N.3   133  ILE133     -0.1231
     19  CA        27.4230   -4.7620   61.1000 C.3   133  ILE133      0.1692
     20  C         27.6580   -3.8730   62.3360 C.2   133  ILE133      0.2591
     21  O         27.0060   -2.8340   62.4950 O.2   133  ILE133     -0.2718
     22  CB        26.4710   -5.9490   61.4220 C.3   133  ILE133      0.0266
     23  CG1       25.9230   -6.5600   60.1290 C.3   133  ILE133      0.0019
     24  CG2       25.3010   -5.5060   62.3080 C.3   133  ILE133      0.0020
     25  CD1       25.2520   -7.9180   60.3160 C.3   133  ILE133      0.0001
     26  N         28.6020   -4.2740   63.1880 N.am  134  LYS134     -0.1980
     27  CA        29.0100   -3.4690   64.3400 C.3   134  LYS134      0.1596
     28  C         29.6040   -2.1250   63.9060 C.2   134  LYS134      0.2287
     29  O         29.2970   -1.0900   64.4980 O.2   134  LYS134     -0.2864
     30  CB        30.0040   -4.2410   65.2170 C.3   134  LYS134      0.0298
     31  CG        30.3370   -3.5620   66.5380 C.3   134  LYS134      0.0038
     32  CD        31.5660   -4.1850   67.1930 C.3   134  LYS134      0.0206
     33  CE        32.1550   -3.2710   68.2540 C.3   134  LYS134      0.1093
     34  NZ        33.5260   -3.7070   68.6370 N.3   134  LYS134     -0.1314
     35  N         29.0350   -0.5370   61.0410 N.3   136  ILE136     -0.1231
     36  CA        27.9070    0.2200   60.5250 C.3   136  ILE136      0.1692
     37  C         27.1770    0.9210   61.6790 C.2   136  ILE136      0.2591
     38  O         26.8980    2.1220   61.6000 O.2   136  ILE136     -0.2718
     39  CB        26.9520   -0.6830   59.6930 C.3   136  ILE136      0.0266
     40  CG1       27.5770   -0.9850   58.3260 C.3   136  ILE136      0.0019
     41  CG2       25.5760   -0.0300   59.5200 C.3   136  ILE136      0.0020
     42  CD1       27.0230   -2.2210   57.6220 C.3   136  ILE136      0.0001
     43  N         26.9000    0.1790   62.7520 N.am  137  ALA137     -0.1980
     44  CA        26.2300    0.7400   63.9280 C.3   137  ALA137      0.1597
     45  C         26.9750    1.9600   64.4680 C.2   137  ALA137      0.2287
     46  O         26.3860    3.0260   64.6180 O.2   137  ALA137     -0.2864
     47  CB        26.0550   -0.3130   65.0040 C.3   137  ALA137      0.0319
     48  N         26.7720    4.8920   61.8330 N.3   140  ILE140     -0.1231
     49  CA        25.4540    5.5280   61.9470 C.3   140  ILE140      0.1692
     50  C         25.3750    6.3480   63.2310 C.2   140  ILE140      0.2591
     51  O         25.0500    7.5350   63.1910 O.2   140  ILE140     -0.2718
     52  CB        24.2890    4.5000   61.9080 C.3   140  ILE140      0.0266
     53  CG1       24.2260    3.7980   60.5500 C.3   140  ILE140      0.0019
     54  CG2       22.9520    5.1820   62.2030 C.3   140  ILE140      0.0020
     55  CD1       23.2600    2.6280   60.5000 C.3   140  ILE140      0.0001
     56  N         25.6890    5.7020   64.3550 N.am  141  LYS141     -0.1980
     57  CA        25.7120    6.3340   65.6770 C.3   141  LYS141      0.1596
     58  C         26.4860    7.6520   65.6640 C.2   141  LYS141      0.2287
     59  O         25.9640    8.6840   66.0850 O.2   141  LYS141     -0.2864
     60  CB        26.3370    5.3780   66.6990 C.3   141  LYS141      0.0298
     61  CG        26.1520    5.7630   68.1760 C.3   141  LYS141      0.0038
     62  CD        27.3490    5.3190   69.0430 C.3   141  LYS141      0.0206
     63  CE        27.8070    3.8830   68.7420 C.3   141  LYS141      0.1093
     64  NZ        29.1090    3.5540   69.3880 N.3   141  LYS141     -0.1314
     65  N         24.8460   10.5100   63.3340 N.3   144  LEU144     -0.1245
     66  CA        23.6590   11.1230   63.9280 C.3   144  LEU144      0.1561
     67  C         24.0200   12.1650   64.9870 C.2   144  LEU144      0.2260
     68  O         23.3520   13.1940   65.0980 O.2   144  LEU144     -0.2867
     69  CB        22.7320   10.0560   64.5170 C.3   144  LEU144      0.0270
     70  CG        22.0050    9.1270   63.5360 C.3   144  LEU144      0.0019
     71  CD1       21.3470    7.9820   64.2900 C.3   144  LEU144      0.0001
     72  CD2       20.9760    9.8760   62.6910 C.3   144  LEU144      0.0001
     73  N         16.5790    9.4130   56.8440 N.3   169  PHE169     -0.1227
     74  CA        17.7910    8.6300   57.0980 C.3   169  PHE169      0.1736
     75  C         17.5200    7.5210   58.1150 C.2   169  PHE169      0.2595
     76  O         17.8890    6.3690   57.8860 O.2   169  PHE169     -0.2718
     77  CB        18.9270    9.5450   57.5760 C.3   169  PHE169      0.0547
     78  CG        20.1820    8.8140   57.9760 C.ar  169  PHE169     -0.0202
     79  CD1       21.1900    8.5780   57.0510 C.ar  169  PHE169     -0.0042
     80  CD2       20.3630    8.3780   59.2870 C.ar  169  PHE169     -0.0042
     81  CE1       22.3510    7.9070   57.4220 C.ar  169  PHE169     -0.0003
     82  CE2       21.5200    7.7060   59.6650 C.ar  169  PHE169     -0.0003
     83  CZ        22.5160    7.4710   58.7330 C.ar  169  PHE169     -0.0000
     84  N         16.8700    7.8800   59.2240 N.am  170  VAL170     -0.1980
     85  CA        16.4900    6.9240   60.2680 C.3   170  VAL170      0.1595
     86  C         15.5490    5.8450   59.7170 C.2   170  VAL170      0.2287
     87  O         15.7800    4.6520   59.9290 O.2   170  VAL170     -0.2864
     88  CB        15.8580    7.6350   61.5060 C.3   170  VAL170      0.0276
     89  CG1       15.2250    6.6280   62.4660 C.3   170  VAL170      0.0022
     90  CG2       16.8990    8.4720   62.2380 C.3   170  VAL170      0.0022
     91  N         17.4630    3.6890   57.6360 N.3   173  SER173     -0.1202
     92  CA        18.3860    2.9720   58.5060 C.3   173  SER173      0.2020
     93  C         17.6980    1.7910   59.2050 C.2   173  SER173      0.2618
     94  O         18.2620    0.6890   59.2720 O.2   173  SER173     -0.2717
     95  CB        18.9960    3.9260   59.5290 C.3   173  SER173      0.2103
     96  OG        20.0420    3.2970   60.2330 O.3   173  SER173     -0.2182
     97  N         16.4820    2.0210   59.7070 N.am  174  LYS174     -0.1979
     98  CA        15.6760    0.9620   60.3250 C.3   174  LYS174      0.1596
     99  C         15.2820   -0.1240   59.3210 C.2   174  LYS174      0.2287
    100  O         15.2100   -1.3030   59.6740 O.2   174  LYS174     -0.2864
    101  CB        14.4250    1.5360   61.0070 C.3   174  LYS174      0.0298
    102  CG        14.6800    2.1630   62.3820 C.3   174  LYS174      0.0038
    103  CD        13.4530    2.0910   63.2880 C.3   174  LYS174      0.0206
    104  CE        12.5710    3.3320   63.1820 C.3   174  LYS174      0.1093
    105  NZ        13.0380    4.4430   64.0610 N.3   174  LYS174     -0.1314
    106  N         17.0240   -1.0530   56.5950 N.3   176  PHE176     -0.1227
    107  CA        18.2280   -1.8510   56.3750 C.3   176  PHE176      0.1736
    108  C         18.3930   -2.9020   57.4790 C.2   176  PHE176      0.2596
    109  O         18.7370   -4.0480   57.1980 O.2   176  PHE176     -0.2718
    110  CB        19.4550   -0.9330   56.2770 C.3   176  PHE176      0.0547
    111  CG        20.7660   -1.6620   56.1390 C.ar  176  PHE176     -0.0202
    112  CD1       21.1270   -2.2600   54.9360 C.ar  176  PHE176     -0.0042
    113  CD2       21.6510   -1.7290   57.2080 C.ar  176  PHE176     -0.0042
    114  CE1       22.3330   -2.9310   54.8100 C.ar  176  PHE176     -0.0003
    115  CE2       22.8750   -2.3950   57.0850 C.ar  176  PHE176     -0.0003
    116  CZ        23.2110   -2.9980   55.8880 C.ar  176  PHE176     -0.0000
    117  N         18.1230   -2.5080   58.7230 N.am  177  SER177     -0.1952
    118  CA        18.1160   -3.4370   59.8590 C.3   177  SER177      0.1924
    119  C         17.1910   -4.6280   59.6120 C.2   177  SER177      0.2314
    120  O         17.6000   -5.7790   59.7770 O.2   177  SER177     -0.2863
    121  CB        17.7010   -2.7210   61.1460 C.3   177  SER177      0.2116
    122  OG        18.4650   -1.5450   61.3330 O.3   177  SER177     -0.2180
    123  N         18.6270   -7.0670   56.9800 N.3   180  LEU180     -0.1231
    124  CA        19.6640   -7.9290   57.5370 C.3   180  LEU180      0.1693
    125  C         19.0330   -9.1490   58.2050 C.2   180  LEU180      0.2591
    126  O         19.4160  -10.2880   57.9200 O.2   180  LEU180     -0.2718
    127  CB        20.5290   -7.1610   58.5440 C.3   180  LEU180      0.0284
    128  CG        21.5190   -6.1170   58.0210 C.3   180  LEU180      0.0019
    129  CD1       21.8090   -5.0870   59.0840 C.3   180  LEU180      0.0001
    130  CD2       22.8140   -6.7610   57.5290 C.3   180  LEU180      0.0001
    131  N         18.0560   -8.8950   59.0770 N.am  181  LYS181     -0.1980
    132  CA        17.3200   -9.9480   59.7790 C.3   181  LYS181      0.1596
    133  C         16.6460  -10.9140   58.8070 C.2   181  LYS181      0.2287
    134  O         16.6240  -12.1220   59.0430 O.2   181  LYS181     -0.2864
    135  CB        16.2800   -9.3430   60.7270 C.3   181  LYS181      0.0298
    136  CG        16.8640   -8.5100   61.8620 C.3   181  LYS181      0.0038
    137  CD        15.7620   -7.8930   62.7190 C.3   181  LYS181      0.0206
    138  CE        16.3140   -6.8700   63.7090 C.3   181  LYS181      0.1093
    139  NZ        17.1680   -7.4840   64.7740 N.3   181  LYS181     -0.1314
    140  N         19.3520  -13.2280   57.0900 N.3   184  PHE184     -0.1241
    141  CA        19.7940  -14.3050   57.9840 C.3   184  PHE184      0.1605
    142  C         18.7750  -15.4420   58.0870 C.2   184  PHE184      0.2264
    143  O         18.9650  -16.3840   58.8570 O.2   184  PHE184     -0.2867
    144  CB        20.1410  -13.7610   59.3800 C.3   184  PHE184      0.0534
    145  CG        21.4460  -13.0040   59.4390 C.ar  184  PHE184     -0.0203
    146  CD1       22.6260  -13.5710   58.9530 C.ar  184  PHE184     -0.0042
    147  CD2       21.4990  -11.7310   59.9980 C.ar  184  PHE184     -0.0042
    148  CE1       23.8360  -12.8750   59.0100 C.ar  184  PHE184     -0.0003
    149  CE2       22.7020  -11.0260   60.0610 C.ar  184  PHE184     -0.0003
    150  CZ        23.8730  -11.6000   59.5660 C.ar  184  PHE184     -0.0000
@<TRIPOS>BOND
     1   114   112   ar
     2   114   116   ar
     3   112   111   ar
     4   116   115   ar
     5   111   110    1
     6   111   113   ar
     7   110   107    1
     8   107   106    1
     9   107   108    1
    10    73    74    1
    11   123   124    1
    12    79    81   ar
    13    79    78   ar
    14   115   113   ar
    15   140   141    1
    16    74    77    1
    17    74    75    1
    18   109   108    2
    19    81    83   ar
    20   108   117   am
    21   130   128    1
    22   124   125    1
    23   124   127    1
    24    77    78    1
    25    42    40    1
    26    91    92    1
    27    76    75    2
    28   126   125    2
    29    78    80   ar
    30   141   142    1
    31   141   144    1
    32   128   127    1
    33   128   129    1
    34   142   143    2
    35    75    84   am
    36   125   131   am
    37    40    39    1
    38    92    93    1
    39    92    95    1
    40   117   118    1
    41    83    82   ar
    42   133   134    2
    43   133   132    1
    44   146   148   ar
    45   146   145   ar
    46   148   150   ar
    47   131   132    1
    48    93    94    2
    49    93    97   am
    50    84    85    1
    51    80    82   ar
    52    99   100    2
    53    99    98    1
    54   144   145    1
    55   145   147   ar
    56    41    39    1
    57    95    96    1
    58   150   149   ar
    59   119   120    2
    60   119   118    1
    61    39    36    1
    62    97    98    1
    63    86    87    2
    64    86    85    1
    65   132   135    1
    66   118   121    1
    67   147   149   ar
    68    23    25    1
    69    23    22    1
    70    85    88    1
    71    98   101    1
    72    55    53    1
    73    36    35    1
    74    36    37    1
    75    18    19    1
    76    53    52    1
    77   135   136    1
    78     1     2    1
    79   101   102    1
    80    19    22    1
    81    19    20    1
    82   121   122    1
    83    22    24    1
    84    88    90    1
    85    88    89    1
    86    38    37    2
    87    37    43   am
    88    11    12    2
    89    11    10    1
    90    48    49    1
    91   136   137    1
    92    52    49    1
    93    52    54    1
    94    49    50    1
    95     2     3    1
    96     2     5    1
    97    20    21    2
    98    20    26   am
    99    13    10    1
   100    13    14    1
   101     9     3   am
   102     9    10    1
   103   102   103    1
   104     3     4    2
   105    14    15    1
   106    72    70    1
   107   137   138    1
   108    43    44    1
   109   104   103    1
   110   104   105    1
   111    26    27    1
   112    51    50    2
   113     5     6    1
   114    50    56   am
   115     6     8    1
   116     6     7    1
   117    65    66    1
   118    70    71    1
   119    70    69    1
   120   138   139    1
   121    28    27    1
   122    28    29    2
   123    44    45    1
   124    44    47    1
   125    66    69    1
   126    66    67    1
   127    15    17   am
   128    15    16    2
   129    27    30    1
   130    56    57    1
   131    45    46    2
   132    67    68    2
   133    30    31    1
   134    58    57    1
   135    58    59    2
   136    57    60    1
   137    31    32    1
   138    60    61    1
   139    32    33    1
   140    61    62    1
   141    33    34    1
   142    63    62    1
   143    63    64    1
