@<TRIPOS>MOLECULE
tmp/3rqhA00.pdb
 187 177 0 0 0
SMALL
GASTEIGER

@<TRIPOS>ATOM
      1  N          7.2670   14.0020   10.8510 N.3    40  MET40      -0.1245
      2  CA         7.2780   14.2250   12.3220 C.3    40  MET40       0.1570
      3  C          5.8980   13.8210   12.9120 C.2    40  MET40       0.2261
      4  O          5.1040   14.6280   13.3550 O.2    40  MET40      -0.2867
      5  CB         7.5640   15.7070   12.6330 C.3    40  MET40       0.0387
      6  CG         8.9410   16.1320   12.1710 C.3    40  MET40       0.0595
      7  SD         9.0750   17.9610   12.3840 S.3    40  MET40      -0.1393
      8  CE         8.3250   18.5170   10.8110 C.3    40  MET40       0.0692
      9  N          4.8660   19.2520   14.9470 N.3   105  GLY105     -0.1225
     10  CA         5.1780   18.3020   13.8700 C.3   105  GLY105      0.1811
     11  C          4.9670   18.7530   12.4360 C.2   105  GLY105      0.2280
     12  O          4.9530   17.9190   11.5150 O.2   105  GLY105     -0.2866
     13  N          8.2430   24.1920    8.6060 N.3   108  GLN108     -0.1245
     14  CA         8.2570   25.6400    8.5560 C.3   108  GLN108      0.1566
     15  C          8.1050   26.1340    7.1350 C.2   108  GLN108      0.2260
     16  O          9.0400   26.7170    6.6100 O.2   108  GLN108     -0.2867
     17  CB         9.6130   26.1350    9.0790 C.3   108  GLN108      0.0367
     18  CG         9.8080   25.8530   10.5600 C.3   108  GLN108      0.0905
     19  CD        11.2660   25.9010   11.0310 C.2   108  GLN108      0.2608
     20  OE1       11.9660   26.8970   10.8270 O.2   108  GLN108     -0.2717
     21  NE2       11.6880   24.8460   11.7330 N.am  108  GLN108     -0.0878
     22  N          2.3690   26.9050   17.3390 N.3   129  ASP129     -0.1225
     23  CA         3.5390   26.2560   17.9010 C.3   129  ASP129      0.1805
     24  C          4.4350   25.7590   16.7800 C.2   129  ASP129      0.2597
     25  O          3.9670   25.5820   15.6360 O.2   129  ASP129     -0.2718
     26  CB         3.1030   25.0840   18.7800 C.3   129  ASP129      0.1424
     27  CG         4.2310   24.4750   19.6210 C.2   129  ASP129      0.3668
     28  OD1        5.2820   25.1360   19.8330 O.co2 129  ASP129     -0.2456
     29  OD2        4.0680   23.3040   19.9760 O.co2 129  ASP129     -0.2456
     30  N          5.6970   25.5060   17.1140 N.am  130  ALA130     -0.1979
     31  CA         6.6290   24.7480   16.2520 C.3   130  ALA130      0.1597
     32  C          6.6320   25.3080   14.8280 C.2   130  ALA130      0.2287
     33  O          6.9650   26.4740   14.6160 O.2   130  ALA130     -0.2864
     34  CB         6.2750   23.2670   16.2930 C.3   130  ALA130      0.0319
     35  N          9.9430   28.1640   22.1150 N.3   150  HIS150     -0.1241
     36  CA        11.1520   28.0780   22.9030 C.3   150  HIS150      0.1621
     37  C         12.1200   29.1670   22.4370 C.2   150  HIS150      0.2264
     38  O         11.8340   29.8600   21.4370 O.2   150  HIS150     -0.2867
     39  CB        11.7590   26.6800   22.8920 C.3   150  HIS150      0.0745
     40  CG        12.2590   26.2310   21.5730 C.ar  150  HIS150      0.0817
     41  ND1       13.1950   26.9360   20.8440 N.ar  150  HIS150     -0.2268
     42  CD2       11.9580   25.1270   20.8370 C.ar  150  HIS150      0.1154
     43  CE1       13.4820   26.2640   19.7390 C.ar  150  HIS150      0.1986
     44  NE2       12.7300   25.1770   19.6960 N.ar  150  HIS150     -0.2212
     45  N         12.9370   29.4540   18.6820 N.3   153  GLU153     -0.1245
     46  CA        11.7960   29.8930   17.8920 C.3   153  GLU153      0.1567
     47  C         11.5340   31.3920   18.1350 C.2   153  GLU153      0.2260
     48  O         11.1120   32.0830   17.2540 O.2   153  GLU153     -0.2867
     49  CB        10.5700   29.0550   18.2660 C.3   153  GLU153      0.0388
     50  CG        10.6950   27.6110   17.8150 C.3   153  GLU153      0.1160
     51  CD         9.7810   26.6180   18.4540 C.2   153  GLU153      0.3649
     52  OE1        9.2810   26.8390   19.5790 O.co2 153  GLU153     -0.2457
     53  OE2        9.6360   25.5240   17.8520 O.co2 153  GLU153     -0.2457
     54  N          9.0020   29.4920   26.5650 N.3   187  LYS187     -0.1231
     55  CA         9.3460   28.3140   27.2960 C.3   187  LYS187      0.1693
     56  C         10.7460   28.3320   27.8830 C.2   187  LYS187      0.2593
     57  O         11.6080   29.1660   27.5160 O.2   187  LYS187     -0.2718
     58  CB         9.1420   27.1370   26.3720 C.3   187  LYS187      0.0285
     59  CG         7.7200   26.8820   26.0650 C.3   187  LYS187      0.0035
     60  CD         7.7230   26.1540   24.6580 C.3   187  LYS187      0.0206
     61  CE         6.5250   25.3910   24.3840 C.3   187  LYS187      0.1093
     62  NZ         6.4500   24.8590   22.9280 N.3   187  LYS187     -0.1314
     63  N         10.9290   27.4370   28.8400 N.am  188  GLY188     -0.1942
     64  CA        12.1890   27.2650   29.5680 C.3   188  GLY188      0.2014
     65  C         11.8970   27.1250   31.0520 C.2   188  GLY188      0.2639
     66  O         10.7540   27.1970   31.4950 O.2   188  GLY188     -0.2714
     67  N         12.9370   26.9260   31.8360 N.am  189  ASN189     -0.1958
     68  CA        12.8170   27.1060   33.2850 C.3   189  ASN189      0.1819
     69  C         12.1870   28.5030   33.5300 C.2   189  ASN189      0.2621
     70  O         12.5170   29.4580   32.8290 O.2   189  ASN189     -0.2715
     71  CB        14.1910   27.0220   33.9170 C.3   189  ASN189      0.1195
     72  CG        14.1600   27.2410   35.4330 C.2   189  ASN189      0.2630
     73  OD1       13.3640   26.6390   36.1140 O.2   189  ASN189     -0.2716
     74  ND2       15.0010   28.1390   35.9400 N.am  189  ASN189     -0.0877
     75  N         11.2480   28.5870   34.4570 N.am  190  GLN190     -0.1963
     76  CA        10.4580   29.7990   34.6800 C.3   190  GLN190      0.1733
     77  C          9.8890   30.3450   33.3550 C.2   190  GLN190      0.2617
     78  O         10.1930   31.4680   32.9240 O.2   190  GLN190     -0.2715
     79  CB        11.2670   30.8260   35.4470 C.3   190  GLN190      0.0408
     80  CG        11.6280   30.2580   36.8570 C.3   190  GLN190      0.0908
     81  CD        12.2440   31.2900   37.7680 C.2   190  GLN190      0.2608
     82  OE1       12.5890   32.3900   37.3340 O.2   190  GLN190     -0.2717
     83  NE2       12.4210   30.9320   39.0440 N.am  190  GLN190     -0.0878
     84  N          9.0710   29.5060   32.7320 N.am  191  THR191     -0.1951
     85  CA         8.3220   29.8710   31.5160 C.3   191  THR191      0.1897
     86  C          7.6110   31.1920   31.7750 C.2   191  THR191      0.2313
     87  O          7.0160   31.4170   32.8840 O.2   191  THR191     -0.2863
     88  CB         7.3270   28.7690   31.1390 C.3   191  THR191      0.1794
     89  OG1        8.0670   27.6540   30.5710 O.3   191  THR191     -0.2208
     90  CG2        6.2550   29.2540   30.1440 C.3   191  THR191      0.0378
     91  N          6.4190   25.9580   38.2320 N.3   205  THR205     -0.1203
     92  CA         6.5140   24.4820   38.2660 C.3   205  THR205      0.1994
     93  C          7.4080   23.9620   37.1480 C.2   205  THR205      0.2618
     94  O          7.6860   24.6360   36.1660 O.2   205  THR205     -0.2717
     95  CB         5.1200   23.8130   38.1420 C.3   205  THR205      0.1784
     96  OG1        4.5610   24.1600   36.8810 O.3   205  THR205     -0.2211
     97  CG2        4.2060   24.2700   39.3020 C.3   205  THR205      0.0376
     98  N          7.7880   22.6910   37.3020 N.am  206  GLY206     -0.1942
     99  CA         8.5770   21.9990   36.3240 C.3   206  GLY206      0.2014
    100  C         10.0080   21.8140   36.7690 C.2   206  GLY206      0.2639
    101  O         10.4560   22.3760   37.8180 O.2   206  GLY206     -0.2714
    102  N         10.7330   21.0300   35.9900 N.am  207  ASN207     -0.1958
    103  CA        12.1400   20.7370   36.2610 C.3   207  ASN207      0.1819
    104  C         12.7860   20.1620   35.0150 C.2   207  ASN207      0.2621
    105  O         12.1660   20.1190   33.9520 O.2   207  ASN207     -0.2715
    106  CB        12.3060   19.7980   37.4640 C.3   207  ASN207      0.1195
    107  CG        11.5770   18.5000   37.2840 C.2   207  ASN207      0.2630
    108  OD1       11.5710   17.9300   36.1840 O.2   207  ASN207     -0.2716
    109  ND2       10.9400   18.0090   38.3700 N.am  207  ASN207     -0.0877
    110  N         14.0560   19.7460   35.1210 N.am  208  GLY208     -0.1954
    111  CA        14.8010   19.3190   33.9440 C.3   208  GLY208      0.1869
    112  C         14.3150   18.0370   33.3090 C.2   208  GLY208      0.2309
    113  O         14.7550   17.6750   32.1960 O.2   208  GLY208     -0.2863
    114  N         11.6490   17.8570   31.9380 N.3   210  LEU210     -0.1231
    115  CA        10.9420   18.3860   30.7650 C.3   210  LEU210      0.1693
    116  C         11.8630   18.6760   29.6090 C.2   210  LEU210      0.2592
    117  O         11.3860   18.9620   28.4940 O.2   210  LEU210     -0.2718
    118  CB        10.1590   19.6430   31.1580 C.3   210  LEU210      0.0284
    119  CG         9.0010   19.4640   32.1450 C.3   210  LEU210      0.0019
    120  CD1        8.4320   20.8130   32.5790 C.3   210  LEU210      0.0001
    121  CD2        7.8440   18.5570   31.5590 C.3   210  LEU210      0.0001
    122  N         13.1770   18.6750   29.8590 N.am  211  ALA211     -0.1966
    123  CA        14.1650   19.0600   28.8520 C.3   211  ALA211      0.1728
    124  C         14.4730   17.8930   27.9150 C.2   211  ALA211      0.2616
    125  O         15.5880   17.3440   27.8990 O.2   211  ALA211     -0.2715
    126  CB        15.4650   19.5680   29.5500 C.3   211  ALA211      0.0334
    127  N         13.4530   17.4840   27.1500 N.am  212  LYS212     -0.1963
    128  CA        13.5650   16.3430   26.2550 C.3   212  LYS212      0.1728
    129  C         12.4690   16.4830   25.2150 C.2   212  LYS212      0.2617
    130  O         11.3860   17.0290   25.5170 O.2   212  LYS212     -0.2715
    131  CB        13.3820   15.0190   27.0190 C.3   212  LYS212      0.0311
    132  CG        13.7250   13.7730   26.2030 C.3   212  LYS212      0.0038
    133  CD        13.5440   12.4500   26.9920 C.3   212  LYS212      0.0206
    134  CE        14.4570   12.3240   28.2800 C.3   212  LYS212      0.1093
    135  NZ        14.0350   11.1080   29.0870 N.3   212  LYS212     -0.1314
    136  N         12.7640   16.0010   24.0130 N.am  213  GLY213     -0.1940
    137  CA        11.7700   16.0500   22.9420 C.3   213  GLY213      0.2014
    138  C         10.3960   15.5750   23.2890 C.2   213  GLY213      0.2639
    139  O         10.2350   14.5190   23.8990 O.2   213  GLY213     -0.2714
    140  N          9.4020   16.3560   22.8420 N.am  214  GLY214     -0.1939
    141  CA         7.9950   16.0160   22.9500 C.3   214  GLY214      0.2014
    142  C          7.2300   16.7210   24.0370 C.2   214  GLY214      0.2640
    143  O          5.9920   16.7770   24.0030 O.2   214  GLY214     -0.2714
    144  N          7.9170   17.2700   25.0330 N.am  215  THR215     -0.1936
    145  CA         7.1860   17.8020   26.1740 C.3   215  THR215      0.2028
    146  C          6.4450   19.0800   25.7720 C.2   215  THR215      0.2643
    147  O          5.4050   19.3750   26.3780 O.2   215  THR215     -0.2714
    148  CB         8.0950   18.0920   27.3480 C.3   215  THR215      0.1808
    149  OG1        9.1140   19.0270   26.9690 O.3   215  THR215     -0.2208
    150  CG2        8.7660   16.7740   27.8490 C.3   215  THR215      0.0379
    151  N          6.9650   19.8110   24.7770 N.am  216  GLY216     -0.1939
    152  CA         6.2720   20.9920   24.2750 C.3   216  GLY216      0.2014
    153  C          5.0280   20.6600   23.4880 C.2   216  GLY216      0.2638
    154  O          4.0640   21.4290   23.4960 O.2   216  GLY216     -0.2714
    155  N          5.0560   19.5380   22.7440 N.am  217  ASP217     -0.1971
    156  CA         3.8870   19.0590   22.0110 C.3   217  ASP217      0.1709
    157  C          2.7570   18.7020   22.9740 C.2   217  ASP217      0.2293
    158  O          1.6030   19.0630   22.7670 O.2   217  ASP217     -0.2864
    159  CB         4.2540   17.8850   21.1120 C.3   217  ASP217      0.1436
    160  CG         5.3170   18.2250   20.0790 C.2   217  ASP217      0.3671
    161  OD1        5.4140   19.3920   19.6170 O.co2 217  ASP217     -0.2456
    162  OD2        6.1270   17.2680   19.8040 O.co2 217  ASP217     -0.2456
    163  N          2.4130   20.0100   25.9470 N.3   219  LEU219     -0.1245
    164  CA         1.9250   21.2990   26.4680 C.3   219  LEU219      0.1561
    165  C          0.9670   21.9670   25.4880 C.2   219  LEU219      0.2260
    166  O         -0.0650   22.4460   25.9050 O.2   219  LEU219     -0.2867
    167  CB         3.0580   22.2540   26.8320 C.3   219  LEU219      0.0270
    168  CG         2.5910   23.6500   27.2420 C.3   219  LEU219      0.0019
    169  CD1        1.7750   23.5800   28.5550 C.3   219  LEU219      0.0001
    170  CD2        3.8140   24.6090   27.4250 C.3   219  LEU219      0.0001
    171  N          0.1560   25.5920   31.5970 N.3   241  VAL241     -0.1245
    172  CA         1.5870   25.6540   31.8240 C.3   241  VAL241      0.1561
    173  C          1.9480   25.1680   33.2370 C.2   241  VAL241      0.2260
    174  O          2.9110   24.3790   33.4440 O.2   241  VAL241     -0.2867
    175  CB         2.1370   27.0800   31.5480 C.3   241  VAL241      0.0252
    176  CG1        3.6560   27.1200   31.8620 C.3   241  VAL241      0.0019
    177  CG2        1.8670   27.5190   30.1140 C.3   241  VAL241      0.0019
    178  N          1.2620   21.2490   33.6170 N.3   244  HIS244     -0.1241
    179  CA         2.2750   20.5430   32.8540 C.3   244  HIS244      0.1621
    180  C          3.5840   20.4060   33.6740 C.2   244  HIS244      0.2264
    181  O          4.1630   19.3120   33.8270 O.2   244  HIS244     -0.2867
    182  CB         2.4500   21.3130   31.5440 C.3   244  HIS244      0.0745
    183  CG         3.5760   20.8630   30.6550 C.ar  244  HIS244      0.0817
    184  ND1        4.8090   21.4990   30.6210 N.ar  244  HIS244     -0.2268
    185  CD2        3.5960   19.9420   29.6530 C.ar  244  HIS244      0.1154
    186  CE1        5.5540   20.9240   29.6830 C.ar  244  HIS244      0.1986
    187  NE2        4.8360   19.9900   29.0780 N.ar  244  HIS244     -0.2212
@<TRIPOS>BOND
     1    16    15    2
     2    15    14    1
     3    14    13    1
     4    14    17    1
     5    17    18    1
     6    18    19    1
     7     8     7    1
     8    20    19    2
     9     1     2    1
    10    19    21   am
    11    12    11    2
    12     6     7    1
    13     6     5    1
    14     2     5    1
    15     2     3    1
    16    11    10    1
    17     3     4    2
    18    10     9    1
    19    33    32    2
    20    32    31    1
    21    25    24    2
    22    31    34    1
    23    31    30    1
    24    24    30   am
    25    24    23    1
    26    48    47    2
    27    22    23    1
    28    50    49    1
    29    50    51    1
    30    53    51   ar
    31    46    47    1
    32    46    49    1
    33    46    45    1
    34    23    26    1
    35    51    52   ar
    36    26    27    1
    37   161   160   ar
    38    27    28   ar
    39    27    29   ar
    40    44    43   ar
    41    44    42   ar
    42    43    41   ar
    43   162   160   ar
    44   160   159    1
    45    42    40   ar
    46    41    40   ar
    47   159   156    1
    48    38    37    2
    49    40    39    1
    50   156   155    1
    51   156   157    1
    52    35    36    1
    53    37    36    1
    54   155   153   am
    55   158   157    2
    56   140   141    1
    57   140   138   am
    58    39    36    1
    59    62    61    1
    60   137   138    1
    61   137   136    1
    62   141   142    1
    63   138   139    2
    64   153   154    2
    65   153   152    1
    66   143   142    2
    67   136   129   am
    68   142   144   am
    69   152   151    1
    70    61    60    1
    71    60    59    1
    72   151   146   am
    73   144   145    1
    74   129   130    2
    75   129   128    1
    76   165   166    2
    77   165   164    1
    78   146   145    1
    79   146   147    2
    80   163   164    1
    81    59    58    1
    82   145   148    1
    83   132   133    1
    84   132   131    1
    85   128   131    1
    86   128   127    1
    87    58    55    1
    88   164   167    1
    89    54    55    1
    90   167   168    1
    91   149   148    1
    92   133   134    1
    93   127   124   am
    94   168   170    1
    95   168   169    1
    96    55    56    1
    97   148   150    1
    98    57    56    2
    99    56    63   am
   100   125   124    2
   101   124   123    1
   102   134   135    1
   103   117   116    2
   104    63    64    1
   105   123   126    1
   106   123   122    1
   107   187   185   ar
   108   187   186   ar
   109    64    65    1
   110   116   122   am
   111   116   115    1
   112   185   183   ar
   113   186   184   ar
   114   177   175    1
   115    90    88    1
   116    89    88    1
   117   184   183   ar
   118   183   182    1
   119   115   118    1
   120   115   114    1
   121    65    66    2
   122    65    67   am
   123    88    85    1
   124   118   119    1
   125    85    86    1
   126    85    84    1
   127   182   179    1
   128   175   172    1
   129   175   176    1
   130   121   119    1
   131   171   172    1
   132    86    87    2
   133   172   173    1
   134    67    68    1
   135   119   120    1
   136   113   112    2
   137    84    77   am
   138    70    69    2
   139   179   178    1
   140   179   180    1
   141    78    77    2
   142   173   174    2
   143    68    69    1
   144    68    71    1
   145   112   111    1
   146    77    76    1
   147    69    75   am
   148   180   181    2
   149    71    72    1
   150   111   110    1
   151   105   104    2
   152    75    76    1
   153    76    79    1
   154   104   110   am
   155   104   103    1
   156    72    74   am
   157    72    73    2
   158    79    80    1
   159   102   103    1
   160   102   100   am
   161    94    93    2
   162   108   107    2
   163   103   106    1
   164    99   100    1
   165    99    98    1
   166   100   101    2
   167    80    81    1
   168    96    95    1
   169    93    98   am
   170    93    92    1
   171   107   106    1
   172   107   109   am
   173    82    81    2
   174    81    83   am
   175    95    92    1
   176    95    97    1
   177    91    92    1
