@<TRIPOS>MOLECULE
tmp/3rqjA02.pdb
 189 184 0 0 0
SMALL
GASTEIGER

@<TRIPOS>ATOM
      1  N          2.7530    9.0770   34.6130 N.3    38  MET38      -0.1230
      2  CA         3.1720    8.7460   33.2550 C.3    38  MET38       0.1702
      3  C          3.0310    9.9410   32.3010 C.2    38  MET38       0.2592
      4  O          3.9470   10.1960   31.5140 O.2    38  MET38      -0.2718
      5  CB         2.4350    7.5110   32.7150 C.3    38  MET38       0.0401
      6  CG         2.8580    6.2350   33.4500 C.3    38  MET38       0.0596
      7  SD         2.7460    4.6700   32.5540 S.3    38  MET38      -0.1393
      8  CE         3.8650    4.9790   31.1890 C.3    38  MET38       0.0692
      9  N          1.9140   10.6630   32.3990 N.am   39  LEU39      -0.1980
     10  CA         1.6180   11.8270   31.5390 C.3    39  LEU39       0.1596
     11  C          1.3130   13.1000   32.3770 C.2    39  LEU39       0.2287
     12  O          0.1420   13.4190   32.6150 O.2    39  LEU39      -0.2864
     13  CB         0.4270   11.4910   30.6330 C.3    39  LEU39       0.0297
     14  CG         0.4780   10.2090   29.7800 C.3    39  LEU39       0.0022
     15  CD1       -0.9140    9.7910   29.3000 C.3    39  LEU39       0.0001
     16  CD2        1.4150   10.3790   28.6160 C.3    39  LEU39       0.0001
     17  N         14.1240    9.6570   29.8870 N.3   105  ARG105     -0.1245
     18  CA        13.6930    8.3190   30.2410 C.3   105  ARG105      0.1563
     19  C         14.5180    7.2200   29.5820 C.2   105  ARG105      0.2260
     20  O         14.2730    6.0350   29.8630 O.2   105  ARG105     -0.2867
     21  CB        12.1770    8.1580   29.9470 C.3   105  ARG105      0.0307
     22  CG        11.3320    8.9840   30.8680 C.3   105  ARG105      0.0489
     23  CD         9.8520    9.0060   30.3880 C.3   105  ARG105      0.2205
     24  NE         8.9870    9.4380   31.4770 N.pl3 105  ARG105     -0.0865
     25  CZ         7.6950    9.7070   31.3260 C.cat 105  ARG105      0.5346
     26  NH1        7.1460    9.6460   30.1130 N.pl3 105  ARG105      0.1354
     27  NH2        6.9730   10.0730   32.3700 N.pl3 105  ARG105      0.1354
     28  N          4.3180    0.8180   18.0070 N.3   169  GLN169     -0.1245
     29  CA         5.6880    0.4110   17.5680 C.3   169  GLN169      0.1566
     30  C          5.5200   -0.1700   16.1630 C.2   169  GLN169      0.2260
     31  O          4.4430   -0.6600   15.8540 O.2   169  GLN169     -0.2867
     32  CB         6.2750   -0.6880   18.4740 C.3   169  GLN169      0.0367
     33  CG         6.6810   -0.2490   19.8740 C.3   169  GLN169      0.0905
     34  CD         7.0960   -1.4410   20.7320 C.2   169  GLN169      0.2608
     35  OE1        7.9530   -2.2500   20.3390 O.2   169  GLN169     -0.2717
     36  NE2        6.4780   -1.5660   21.8980 N.am  169  GLN169     -0.0878
     37  N          4.7700   -5.1380   16.4410 N.3   172  ARG172     -0.1245
     38  CA         4.0870   -5.6120   17.6750 C.3   172  ARG172      0.1563
     39  C          3.1620   -6.7990   17.3380 C.2   172  ARG172      0.2260
     40  O          2.8720   -7.0450   16.1730 O.2   172  ARG172     -0.2867
     41  CB         3.2280   -4.5230   18.3170 C.3   172  ARG172      0.0307
     42  CG         3.9730   -3.3570   18.9070 C.3   172  ARG172      0.0489
     43  CD         3.1080   -2.6110   19.9130 C.3   172  ARG172      0.2205
     44  NE         3.2650   -3.1330   21.2660 N.pl3 172  ARG172     -0.0865
     45  CZ         2.6610   -2.6180   22.3360 C.cat 172  ARG172      0.5346
     46  NH1        1.8610   -1.5690   22.2130 N.pl3 172  ARG172      0.1354
     47  NH2        2.8660   -3.1440   23.5350 N.pl3 172  ARG172      0.1354
     48  N         13.1010   -3.1520   18.5410 N.3   256  PRO256     -0.2116
     49  CA        12.1570   -2.2640   19.2260 C.3   256  PRO256      0.1372
     50  C         12.1260   -0.9150   18.4790 C.2   256  PRO256      0.2244
     51  O         13.1600   -0.2520   18.3040 O.2   256  PRO256     -0.2868
     52  CB        12.7430   -2.1550   20.6280 C.3   256  PRO256      0.0268
     53  CG        14.2760   -2.1810   20.3620 C.3   256  PRO256      0.0207
     54  CD        14.4470   -3.1510   19.1630 C.3   256  PRO256      0.0892
     55  N          9.9680    2.5220   18.2000 N.3   258  VAL258     -0.1245
     56  CA         8.8870    3.3770   18.6860 C.3   258  VAL258      0.1561
     57  C          8.3630    4.2590   17.5770 C.2   258  VAL258      0.2260
     58  O          9.1190    4.9610   16.9450 O.2   258  VAL258     -0.2867
     59  CB         9.3460    4.2640   19.8540 C.3   258  VAL258      0.0252
     60  CG1        8.2870    5.3340   20.1670 C.3   258  VAL258      0.0019
     61  CG2        9.6550    3.3980   21.1020 C.3   258  VAL258      0.0019
     62  N          5.0290    6.1840   17.7150 N.3   260  ASN260     -0.1225
     63  CA         3.8990    7.0710   18.0590 C.3   260  ASN260      0.1785
     64  C          4.2990    8.4100   18.7020 C.2   260  ASN260      0.2597
     65  O          3.4240    9.1610   19.1680 O.2   260  ASN260     -0.2718
     66  CB         2.8720    6.3430   18.9540 C.3   260  ASN260      0.1169
     67  CG         3.4330    5.9280   20.3120 C.2   260  ASN260      0.2627
     68  OD1        2.6640    5.5240   21.1940 O.2   260  ASN260     -0.2716
     69  ND2        4.7570    6.0390   20.5170 N.am  260  ASN260     -0.0877
     70  N          5.5920    8.7200   18.7080 N.am  261  MET261     -0.1979
     71  CA         6.0520    9.9510   19.3350 C.3   261  MET261      0.1605
     72  C          6.2380   11.0940   18.3590 C.2   261  MET261      0.2287
     73  O          6.2040   10.8910   17.1440 O.2   261  MET261     -0.2864
     74  CB         7.2760    9.6900   20.2010 C.3   261  MET261      0.0413
     75  CG         6.8200    8.8850   21.4420 C.3   261  MET261      0.0598
     76  SD         8.1270    8.6190   22.5800 S.3   261  MET261     -0.1393
     77  CE         8.0360   10.0200   23.7240 C.3   261  MET261      0.0692
     78  N         11.5140    5.5450   15.3250 N.3   275  PHE275     -0.1227
     79  CA        12.9180    5.2970   15.6550 C.3   275  PHE275      0.1736
     80  C         13.1800    3.9650   16.3110 C.2   275  PHE275      0.2596
     81  O         12.2960    3.3970   16.8960 O.2   275  PHE275     -0.2718
     82  CB        13.4700    6.4170   16.5390 C.3   275  PHE275      0.0547
     83  CG        12.7600    6.6000   17.8560 C.ar  275  PHE275     -0.0202
     84  CD1       13.0480    5.7740   18.9420 C.ar  275  PHE275     -0.0042
     85  CD2       11.8520    7.6410   18.0440 C.ar  275  PHE275     -0.0042
     86  CE1       12.4510    5.9890   20.2040 C.ar  275  PHE275     -0.0003
     87  CE2       11.2230    7.8450   19.3060 C.ar  275  PHE275     -0.0003
     88  CZ        11.5230    7.0250   20.3810 C.ar  275  PHE275     -0.0000
     89  N         14.4310    3.4990   16.2980 N.am  276  SER276     -0.1938
     90  CA        14.6790    2.1530   16.7580 C.3   276  SER276      0.2055
     91  C         16.0780    2.0180   17.2900 C.2   276  SER276      0.2644
     92  O         16.9630    2.7170   16.8410 O.2   276  SER276     -0.2714
     93  CB        14.4200    1.1240   15.6390 C.3   276  SER276      0.2130
     94  OG        15.2590    1.3010   14.4810 O.3   276  SER276     -0.2179
     95  N         16.2550    1.1310   18.2780 N.am  277  GLY277     -0.1939
     96  CA        17.5880    0.8390   18.7980 C.3   277  GLY277      0.2014
     97  C         17.7310   -0.6610   18.9090 C.2   277  GLY277      0.2639
     98  O         17.5960   -1.3810   17.9330 O.2   277  GLY277     -0.2714
     99  N         17.9670   -1.1280   20.1280 N.am  278  TRP278     -0.1959
    100  CA        17.9640   -2.5590   20.4220 C.3   278  TRP278      0.1771
    101  C         17.5100   -2.7130   21.8600 C.2   278  TRP278      0.2619
    102  O         17.5320   -1.7470   22.6470 O.2   278  TRP278     -0.2715
    103  CB        19.3450   -3.1890   20.2220 C.3   278  TRP278      0.0590
    104  CG        20.4750   -2.5360   20.9470 C.ar  278  TRP278      0.0006
    105  CD1       20.8130   -2.6800   22.3010 C.ar  278  TRP278      0.0946
    106  CD2       21.4480   -1.6660   20.3850 C.ar  278  TRP278      0.0152
    107  NE1       21.9410   -1.9380   22.5720 N.ar  278  TRP278     -0.2442
    108  CE2       22.3560   -1.3190   21.4180 C.ar  278  TRP278      0.0810
    109  CE3       21.6550   -1.1390   19.0920 C.ar  278  TRP278      0.0012
    110  CZ2       23.4420   -0.4500   21.1950 C.ar  278  TRP278      0.0191
    111  CZ3       22.7400   -0.2950   18.8780 C.ar  278  TRP278      0.0001
    112  CH2       23.6150    0.0330   19.9130 C.ar  278  TRP278      0.0015
    113  N         17.1070   -3.9200   22.2080 N.am  279  TYR279     -0.1974
    114  CA        16.4110   -4.1430   23.4760 C.3   279  TYR279      0.1639
    115  C         17.3560   -4.2750   24.6540 C.2   279  TYR279      0.2290
    116  O         18.4760   -4.7670   24.5400 O.2   279  TYR279     -0.2864
    117  CB        15.6290   -5.4370   23.3960 C.3   279  TYR279      0.0560
    118  CG        14.1820   -5.3000   22.9890 C.ar  279  TYR279     -0.0198
    119  CD1       13.6900   -5.9360   21.8310 C.ar  279  TYR279     -0.0009
    120  CD2       13.3010   -4.5760   23.7760 C.ar  279  TYR279     -0.0009
    121  CE1       12.3430   -5.8410   21.4870 C.ar  279  TYR279      0.0417
    122  CE2       11.9520   -4.4860   23.4420 C.ar  279  TYR279      0.0417
    123  CZ        11.4770   -5.1210   22.3150 C.ar  279  TYR279      0.1957
    124  OH        10.1210   -5.0020   22.0150 O.3   279  TYR279     -0.2866
    125  N         12.9850   -5.4350   29.2410 N.3   283  GLU283     -0.1245
    126  CA        11.7750   -4.9560   28.5760 C.3   283  GLU283      0.1567
    127  C         10.8810   -6.1460   28.1520 C.2   283  GLU283      0.2260
    128  O          9.6590   -6.1690   28.3990 O.2   283  GLU283     -0.2867
    129  CB        12.1490   -4.0830   27.3600 C.3   283  GLU283      0.0388
    130  CG        12.9690   -2.8380   27.7000 C.3   283  GLU283      0.1160
    131  CD        13.3490   -2.0280   26.4540 C.2   283  GLU283      0.3649
    132  OE1       12.5350   -1.2040   26.0040 O.co2 283  GLU283     -0.2457
    133  OE2       14.4520   -2.1920   25.9380 O.co2 283  GLU283     -0.2457
    134  N          8.7390   -6.9770   31.5470 N.3   287  ARG287     -0.1231
    135  CA         7.5330   -6.2300   31.2250 C.3   287  ARG287      0.1694
    136  C          6.6010   -6.9710   30.2380 C.2   287  ARG287      0.2592
    137  O          5.4180   -7.1940   30.5360 O.2   287  ARG287     -0.2718
    138  CB         7.8710   -4.8070   30.7340 C.3   287  ARG287      0.0321
    139  CG         8.7870   -3.9680   31.7090 C.3   287  ARG287      0.0489
    140  CD         8.1690   -3.7250   33.1450 C.3   287  ARG287      0.2205
    141  NE         6.7600   -3.3510   33.0850 N.pl3 287  ARG287     -0.0865
    142  CZ         6.3120   -2.1320   32.7400 C.cat 287  ARG287      0.5346
    143  NH1        7.1760   -1.1370   32.4950 N.pl3 287  ARG287      0.1354
    144  NH2        4.9960   -1.9190   32.6560 N.pl3 287  ARG287      0.1354
    145  N          7.1220   -7.3210   29.0640 N.am  288  ASP288     -0.1974
    146  CA         6.2840   -7.9690   28.0340 C.3   288  ASP288      0.1709
    147  C          5.7670   -9.3300   28.4660 C.2   288  ASP288      0.2293
    148  O          4.5920   -9.6730   28.2280 O.2   288  ASP288     -0.2864
    149  CB         7.0110   -8.0630   26.6780 C.3   288  ASP288      0.1436
    150  CG         7.3560   -6.6940   26.1090 C.2   288  ASP288      0.3671
    151  OD1        6.5570   -5.7660   26.3360 O.co2 288  ASP288     -0.2456
    152  OD2        8.4320   -6.5350   25.4660 O.co2 288  ASP288     -0.2456
    153  N         -0.1030   -7.9440   30.5190 N.3   294  ARG294     -0.1245
    154  CA         0.5560   -8.3360   29.2620 C.3   294  ARG294      0.1563
    155  C          0.4530   -9.8630   29.0180 C.2   294  ARG294      0.2260
    156  O         -0.6500  -10.4170   29.1710 O.2   294  ARG294     -0.2867
    157  CB         1.9850   -7.7870   29.2010 C.3   294  ARG294      0.0307
    158  CG         2.0350   -6.2530   29.2150 C.3   294  ARG294      0.0489
    159  CD         1.4020   -5.5980   27.9650 C.3   294  ARG294      0.2205
    160  NE         2.0560   -5.9820   26.7100 N.pl3 294  ARG294     -0.0865
    161  CZ         3.3040   -5.6220   26.3750 C.cat 294  ARG294      0.5346
    162  NH1        4.0340   -4.8790   27.1980 N.pl3 294  ARG294      0.1354
    163  NH2        3.8270   -6.0050   25.2060 N.pl3 294  ARG294      0.1354
    164  N         11.9960    5.7520   35.4310 N.3   369  TRP369     -0.1241
    165  CA        12.1660    4.9810   34.1790 C.3   369  TRP369      0.1605
    166  C         13.5310    4.3700   33.9800 C.2   369  TRP369      0.2264
    167  O         13.6540    3.3240   33.3420 O.2   369  TRP369     -0.2867
    168  CB        11.9260    5.9170   32.9860 C.3   369  TRP369      0.0550
    169  CG        10.4290    6.0710   32.7790 C.ar  369  TRP369      0.0003
    170  CD1        9.5230    6.5120   33.6920 C.ar  369  TRP369      0.0946
    171  CD2        9.6940    5.7550   31.5780 C.ar  369  TRP369      0.0152
    172  NE1        8.2400    6.5020   33.1200 N.ar  369  TRP369     -0.2442
    173  CE2        8.3310    6.0530   31.8310 C.ar  369  TRP369      0.0810
    174  CE3       10.0660    5.2920   30.3110 C.ar  369  TRP369      0.0012
    175  CZ2        7.3300    5.8890   30.8580 C.ar  369  TRP369      0.0191
    176  CZ3        9.0620    5.1180   29.3240 C.ar  369  TRP369      0.0001
    177  CH2        7.7080    5.4180   29.6270 C.ar  369  TRP369      0.0015
    178  N          5.2270   12.5310   23.8670 N.3   397  TYR397     -0.1241
    179  CA         4.2050   11.5330   23.6790 C.3   397  TYR397      0.1605
    180  C          3.0330   12.2490   22.9910 C.2   397  TYR397      0.2264
    181  O          2.8340   13.4390   23.1640 O.2   397  TYR397     -0.2867
    182  CB         3.8530   10.8970   25.0500 C.3   397  TYR397      0.0534
    183  CG         2.7750    9.8200   24.9880 C.ar  397  TYR397     -0.0201
    184  CD1        3.0940    8.4840   24.6630 C.ar  397  TYR397     -0.0009
    185  CD2        1.4430   10.1300   25.2480 C.ar  397  TYR397     -0.0009
    186  CE1        2.0890    7.4840   24.6060 C.ar  397  TYR397      0.0417
    187  CE2        0.4330    9.1490   25.1910 C.ar  397  TYR397      0.0417
    188  CZ         0.7620    7.8320   24.8760 C.ar  397  TYR397      0.1957
    189  OH        -0.2390    6.8800   24.8280 O.3   397  TYR397     -0.2866
@<TRIPOS>BOND
     1    94    93    1
     2    78    79    1
     3    93    90    1
     4    79    80    1
     5    79    82    1
     6    31    30    2
     7    30    29    1
     8    40    39    2
     9    89    80   am
    10    89    90    1
    11    80    81    2
    12    37    38    1
    13    82    83    1
    14    90    91    1
    15    92    91    2
    16    58    57    2
    17    73    72    2
    18    91    95   am
    19    39    38    1
    20    29    28    1
    21    29    32    1
    22    57    56    1
    23    38    41    1
    24    62    63    1
    25    83    85   ar
    26    83    84   ar
    27    98    97    2
    28    85    87   ar
    29    63    64    1
    30    63    66    1
    31    55    56    1
    32    95    96    1
    33    51    50    2
    34    41    42    1
    35    72    71    1
    36    32    33    1
    37    50    49    1
    38    48    54    1
    39    48    49    1
    40    56    59    1
    41    64    70   am
    42    64    65    2
    43    70    71    1
    44    96    97    1
    45   111   109   ar
    46   111   112   ar
    47    42    43    1
    48    97    99   am
    49    84    86   ar
    50    66    67    1
    51   109   106   ar
    52    54    53    1
    53    49    52    1
    54    87    88   ar
    55    71    74    1
    56    59    60    1
    57    59    61    1
    58    33    34    1
    59    43    44    1
    60   112   110   ar
    61    99   100    1
    62    74    75    1
    63    86    88   ar
    64   103   100    1
    65   103   104    1
    66    67    69   am
    67    67    68    2
    68    35    34    2
    69    53    52    1
    70   106   104   ar
    71   106   108   ar
    72   100   101    1
    73    34    36   am
    74   104   105   ar
    75   110   108   ar
    76    44    45    2
    77   108   107   ar
    78    75    76    1
    79   121   119   ar
    80   121   123   ar
    81   119   118   ar
    82   101   113   am
    83   101   102    2
    84   124   123    1
    85   113   114    1
    86    46    45    1
    87   105   107   ar
    88   123   122   ar
    89    45    47    1
    90    76    77    1
    91   118   117    1
    92   118   120   ar
    93   180   181    2
    94   180   179    1
    95   117   114    1
    96   122   120   ar
    97   114   115    1
    98   179   178    1
    99   179   182    1
   100   116   115    2
   101   186   184   ar
   102   186   188   ar
   103   184   183   ar
   104   189   188    1
   105   188   187   ar
   106   183   182    1
   107   183   185   ar
   108   187   185   ar
   109   163   161    1
   110   152   150   ar
   111   133   131   ar
   112   132   131   ar
   113   150   151   ar
   114   150   149    1
   115   161   160    2
   116   161   162    1
   117   131   130    1
   118   149   146    1
   119   160   159    1
   120   129   130    1
   121   129   126    1
   122   159   158    1
   123   146   147    1
   124   146   145    1
   125   127   128    2
   126   127   126    1
   127   148   147    2
   128   126   125    1
   129    16    14    1
   130   155   156    2
   131   155   154    1
   132   145   136   am
   133   157   158    1
   134   157   154    1
   135   154   153    1
   136    15    14    1
   137   176   177   ar
   138   176   174   ar
   139    19    20    2
   140    19    18    1
   141   177   175   ar
   142    14    13    1
   143    17    18    1
   144    21    18    1
   145    21    22    1
   146    26    25    1
   147   136   137    2
   148   136   135    1
   149   174   171   ar
   150    23    22    1
   151    23    24    1
   152    13    10    1
   153   138   135    1
   154   138   139    1
   155   175   173   ar
   156     8     7    1
   157   135   134    1
   158    25    24    2
   159    25    27    1
   160     4     3    2
   161    10    11    1
   162    10     9    1
   163   171   173   ar
   164   171   169   ar
   165   139   140    1
   166   173   172   ar
   167     3     9   am
   168     3     2    1
   169    11    12    2
   170   143   142    1
   171     7     6    1
   172   144   142    1
   173     5     2    1
   174     5     6    1
   175   142   141    2
   176   169   168    1
   177   169   170   ar
   178   168   165    1
   179   141   140    1
   180   172   170   ar
   181     2     1    1
   182   167   166    2
   183   166   165    1
   184   165   164    1
