@<TRIPOS>MOLECULE
tmp/3rqoA02.pdb
 208 203 0 0 0
SMALL
GASTEIGER

@<TRIPOS>ATOM
      1  N         17.4750   11.4390   45.3240 N.3    40  VAL40      -0.1231
      2  CA        17.2780   11.6010   43.8790 C.3    40  VAL40       0.1692
      3  C         18.4360   11.0450   43.0510 C.2    40  VAL40       0.2591
      4  O         18.2300   10.2810   42.1080 O.2    40  VAL40      -0.2718
      5  CB        17.0840   13.1000   43.5590 C.3    40  VAL40       0.0266
      6  CG1       17.0920   13.3670   42.0190 C.3    40  VAL40       0.0020
      7  CG2       15.8230   13.6250   44.2690 C.3    40  VAL40       0.0020
      8  N         19.6490   11.4310   43.4310 N.am   41  LEU41      -0.1980
      9  CA        20.8730   10.9810   42.7830 C.3    41  LEU41       0.1596
     10  C         21.7170   10.3230   43.8420 C.2    41  LEU41       0.2287
     11  O         22.3230   11.0090   44.6570 O.2    41  LEU41      -0.2864
     12  CB        21.6940   12.1590   42.2310 C.3    41  LEU41       0.0297
     13  CG        21.8050   12.2930   40.7070 C.3    41  LEU41       0.0022
     14  CD1       22.5460   13.5820   40.3100 C.3    41  LEU41       0.0001
     15  CD2       22.5000   11.0410   40.0800 C.3    41  LEU41       0.0001
     16  N         10.9100    4.4350   38.3490 N.3   107  ARG107     -0.1231
     17  CA        10.2860    5.7000   38.7250 C.3   107  ARG107      0.1694
     18  C          9.1330    6.0520   37.8480 C.2   107  ARG107      0.2592
     19  O          8.4660    7.0430   38.1030 O.2   107  ARG107     -0.2718
     20  CB        11.3340    6.8090   38.7270 C.3   107  ARG107      0.0321
     21  CG        12.2070    6.7690   39.9630 C.3   107  ARG107      0.0489
     22  CD        13.4300    7.6200   39.8560 C.3   107  ARG107      0.2205
     23  NE        14.1140    7.7770   41.1490 N.pl3 107  ARG107     -0.0865
     24  CZ        15.2740    8.4170   41.3060 C.cat 107  ARG107      0.5346
     25  NH1       15.8990    8.9170   40.2430 N.pl3 107  ARG107      0.1354
     26  NH2       15.8340    8.5320   42.5110 N.pl3 107  ARG107      0.1354
     27  N          8.8790    5.2260   36.8300 N.am  108  CYS108     -0.1970
     28  CA         7.8280    5.4880   35.8530 C.3   108  CYS108      0.1712
     29  C          6.5170    4.7770   36.1800 C.2   108  CYS108      0.2296
     30  O          6.4260    3.5240   36.1460 O.2   108  CYS108     -0.2864
     31  CB         8.2650    5.0390   34.4560 C.3   108  CYS108      0.0983
     32  SG         7.0080    5.4540   33.2300 S.3   108  CYS108     -0.0798
     33  N         17.3710   19.4190   29.0640 N.3   170  SER170     -0.1202
     34  CA        16.9160   18.2440   29.7960 C.3   170  SER170      0.2020
     35  C         15.6320   17.6960   29.2070 C.2   170  SER170      0.2618
     36  O         15.3650   16.5170   29.3200 O.2   170  SER170     -0.2717
     37  CB        16.8130   18.4950   31.3000 C.3   170  SER170      0.2103
     38  OG        15.8970   19.5280   31.5430 O.3   170  SER170     -0.2182
     39  N         14.8440   18.5520   28.5640 N.am  171  GLN171     -0.1979
     40  CA        13.6880   18.0960   27.8090 C.3   171  GLN171      0.1601
     41  C         13.6780   18.7960   26.4540 C.2   171  GLN171      0.2287
     42  O         14.2620   19.8840   26.3150 O.2   171  GLN171     -0.2864
     43  CB        12.3890   18.4340   28.5370 C.3   171  GLN171      0.0394
     44  CG        12.0940   17.6710   29.8070 C.3   171  GLN171      0.0908
     45  CD        10.8970   18.2390   30.5040 C.2   171  GLN171      0.2608
     46  OE1        9.7790   18.2370   29.9480 O.2   171  GLN171     -0.2717
     47  NE2       11.1140   18.7700   31.7270 N.am  171  GLN171     -0.0878
     48  N         10.9250   23.0110   26.9500 N.3   174  ARG174     -0.1245
     49  CA        10.9770   23.6700   28.2760 C.3   174  ARG174      0.1563
     50  C         10.9040   25.1930   28.1260 C.2   174  ARG174      0.2260
     51  O         11.2770   25.7330   27.0860 O.2   174  ARG174     -0.2867
     52  CB        12.2570   23.3180   29.0320 C.3   174  ARG174      0.0307
     53  CG        12.2460   21.9200   29.5710 C.3   174  ARG174      0.0489
     54  CD        13.0220   21.8130   30.8330 C.3   174  ARG174      0.2205
     55  NE        12.2440   21.7450   32.0580 N.pl3 174  ARG174     -0.0865
     56  CZ        12.8080   21.6320   33.2650 C.cat 174  ARG174      0.5346
     57  NH1       14.1310   21.6140   33.3620 N.pl3 174  ARG174      0.1354
     58  NH2       12.0760   21.5430   34.3810 N.pl3 174  ARG174      0.1354
     59  N          5.6820   15.8270   26.9520 N.3   258  PRO258     -0.2116
     60  CA         6.7920   15.6340   27.8890 C.3   258  PRO258      0.1372
     61  C          7.8350   14.7440   27.2370 C.2   258  PRO258      0.2244
     62  O          7.5610   13.5740   26.9870 O.2   258  PRO258     -0.2868
     63  CB         6.1280   14.9280   29.0750 C.3   258  PRO258      0.0268
     64  CG         4.9580   14.1570   28.4540 C.3   258  PRO258      0.0207
     65  CD         4.6530   14.7820   27.0980 C.3   258  PRO258      0.0892
     66  N         11.7610   13.6780   27.6410 N.3   260  VAL260     -0.1245
     67  CA        13.0460   13.6990   28.3700 C.3   260  VAL260      0.1561
     68  C         14.2410   13.4880   27.4430 C.2   260  VAL260      0.2260
     69  O         14.2460   12.5410   26.6510 O.2   260  VAL260     -0.2867
     70  CB        13.0290   12.6000   29.4910 C.3   260  VAL260      0.0252
     71  CG1       14.3160   12.5010   30.2030 C.3   260  VAL260      0.0019
     72  CG2       11.9170   12.8870   30.4850 C.3   260  VAL260      0.0019
     73  N         17.9200   14.0600   28.4400 N.3   262  ASN262     -0.1225
     74  CA        19.2700   14.0390   28.9920 C.3   262  ASN262      0.1785
     75  C         19.6190   12.7090   29.6410 C.2   262  ASN262      0.2597
     76  O         20.6560   12.6130   30.2690 O.2   262  ASN262     -0.2718
     77  CB        19.4330   15.1750   30.0210 C.3   262  ASN262      0.1169
     78  CG        18.4600   15.0410   31.2230 C.2   262  ASN262      0.2627
     79  OD1       18.6500   15.7110   32.2330 O.2   262  ASN262     -0.2716
     80  ND2       17.4340   14.1960   31.1160 N.am  262  ASN262     -0.0877
     81  N         18.7390   11.7070   29.5290 N.am  263  MET263     -0.1979
     82  CA        19.0270   10.3740   30.0720 C.3   263  MET263      0.1605
     83  C         19.9090    9.5190   29.1440 C.2   263  MET263      0.2287
     84  O         19.8200    9.6010   27.9020 O.2   263  MET263     -0.2864
     85  CB        17.7310    9.6620   30.4170 C.3   263  MET263      0.0413
     86  CG        16.9250   10.5520   31.3520 C.3   263  MET263      0.0598
     87  SD        16.1050    9.8080   32.7370 S.3   263  MET263     -0.1393
     88  CE        17.4060    8.9290   33.5860 C.3   263  MET263      0.0692
     89  N         13.1190   10.4970   24.6500 N.3   277  PHE277     -0.1227
     90  CA        11.9040    9.6850   24.5920 C.3   277  PHE277      0.1736
     91  C         10.7560   10.5390   25.1180 C.2   277  PHE277      0.2596
     92  O         10.9880   11.4900   25.8570 O.2   277  PHE277     -0.2718
     93  CB        12.0770    8.4100   25.4370 C.3   277  PHE277      0.0547
     94  CG        12.4530    8.6710   26.8950 C.ar  277  PHE277     -0.0202
     95  CD1       11.4760    8.9690   27.8270 C.ar  277  PHE277     -0.0042
     96  CD2       13.8050    8.6190   27.3300 C.ar  277  PHE277     -0.0042
     97  CE1       11.7690    9.2050   29.1820 C.ar  277  PHE277     -0.0003
     98  CE2       14.1080    8.8470   28.7010 C.ar  277  PHE277     -0.0003
     99  CZ        13.0650    9.1450   29.6220 C.ar  277  PHE277     -0.0000
    100  N          9.5260   10.2000   24.7540 N.am  278  SER278     -0.1938
    101  CA         8.3890   11.0150   25.1420 C.3   278  SER278      0.2055
    102  C          7.1830   10.1200   25.3120 C.2   278  SER278      0.2644
    103  O          7.0560    9.0780   24.6440 O.2   278  SER278     -0.2714
    104  CB         8.1240   12.1110   24.0900 C.3   278  SER278      0.2130
    105  OG         7.6880   11.5400   22.8790 O.3   278  SER278     -0.2179
    106  N          6.2970   10.5310   26.2230 N.am  279  GLY279     -0.1939
    107  CA         5.0220    9.8480   26.4550 C.3   279  GLY279      0.2014
    108  C          3.9120   10.8830   26.4070 C.2   279  GLY279      0.2639
    109  O          3.7900   11.6320   25.4340 O.2   279  GLY279     -0.2714
    110  N          3.0750   10.8880   27.4340 N.am  280  TRP280     -0.1959
    111  CA         2.0850   11.9350   27.6640 C.3   280  TRP280      0.1771
    112  C          2.0990   12.2580   29.1580 C.2   280  TRP280      0.2620
    113  O          2.6370   11.4790   29.9520 O.2   280  TRP280     -0.2715
    114  CB         0.6880   11.5410   27.1780 C.3   280  TRP280      0.0590
    115  CG         0.1450   10.2390   27.6420 C.ar  280  TRP280      0.0006
    116  CD1       -0.4390    9.9520   28.8730 C.ar  280  TRP280      0.0946
    117  CD2        0.0740    9.0300   26.8750 C.ar  280  TRP280      0.0152
    118  NE1       -0.8480    8.6380   28.8950 N.ar  280  TRP280     -0.2442
    119  CE2       -0.5480    8.0540   27.6850 C.ar  280  TRP280      0.0810
    120  CE3        0.4730    8.6820   25.5800 C.ar  280  TRP280      0.0012
    121  CZ2       -0.7570    6.7360   27.2440 C.ar  280  TRP280      0.0191
    122  CZ3        0.2480    7.3730   25.1290 C.ar  280  TRP280      0.0001
    123  CH2       -0.3610    6.4170   25.9620 C.ar  280  TRP280      0.0015
    124  N          1.5260   13.4050   29.5440 N.am  281  TYR281     -0.1960
    125  CA         1.5950   13.8210   30.9440 C.3   281  TYR281      0.1771
    126  C          0.6380   13.1020   31.8740 C.2   281  TYR281      0.2619
    127  O         -0.4750   12.7280   31.5200 O.2   281  TYR281     -0.2715
    128  CB         1.3690   15.3240   31.0850 C.3   281  TYR281      0.0574
    129  CG         2.6080   16.1670   31.0260 C.ar  281  TYR281     -0.0198
    130  CD1        3.5730   16.1020   32.0500 C.ar  281  TYR281     -0.0009
    131  CD2        2.8320   17.0410   29.9500 C.ar  281  TYR281     -0.0009
    132  CE1        4.7290   16.8790   31.9910 C.ar  281  TYR281      0.0417
    133  CE2        3.9890   17.8390   29.8840 C.ar  281  TYR281      0.0417
    134  CZ         4.9210   17.7540   30.9100 C.ar  281  TYR281      0.1957
    135  OH         5.9950   18.5730   30.8950 O.3   281  TYR281     -0.2866
    136  N          1.1120   12.8920   33.0880 N.am  282  MET282     -0.1977
    137  CA         0.2130   12.7050   34.1990 C.3   282  MET282      0.1605
    138  C          0.0610   14.1000   34.7830 C.2   282  MET282      0.2287
    139  O          1.0420   14.7700   35.0580 O.2   282  MET282     -0.2864
    140  CB         0.7730   11.7610   35.2460 C.3   282  MET282      0.0413
    141  CG        -0.2460   11.6110   36.4280 C.3   282  MET282      0.0598
    142  SD         0.3340   10.3350   37.5230 S.3   282  MET282     -0.1393
    143  CE         1.4190   11.2940   38.5250 C.3   282  MET282      0.0692
    144  N          1.8690   16.3090   37.4590 N.3   285  GLU285     -0.1245
    145  CA         3.2240   16.8330   37.3020 C.3   285  GLU285      0.1567
    146  C          3.1690   18.3300   36.9200 C.2   285  GLU285      0.2260
    147  O          3.8920   19.1390   37.4730 O.2   285  GLU285     -0.2867
    148  CB         4.0510   16.0320   36.2980 C.3   285  GLU285      0.0388
    149  CG         5.5430   16.4270   36.4240 C.3   285  GLU285      0.1160
    150  CD         6.4180   15.7340   35.4060 C.2   285  GLU285      0.3649
    151  OE1        5.9190   14.7080   34.8590 O.co2 285  GLU285     -0.2457
    152  OE2        7.5720   16.2170   35.1610 O.co2 285  GLU285     -0.2457
    153  N          3.6230   19.9140   40.5950 N.3   289  ARG289     -0.1231
    154  CA         5.0610   20.1850   40.6800 C.3   289  ARG289      0.1694
    155  C          5.4010   21.4590   39.9010 C.2   289  ARG289      0.2592
    156  O          5.8590   22.4240   40.4830 O.2   289  ARG289     -0.2718
    157  CB         5.8880   18.9850   40.1940 C.3   289  ARG289      0.0321
    158  CG         5.5210   17.6520   40.9170 C.3   289  ARG289      0.0489
    159  CD         5.7820   17.6630   42.4810 C.3   289  ARG289      0.2205
    160  NE         7.0660   18.2910   42.7940 N.pl3 289  ARG289     -0.0865
    161  CZ         8.2360   17.7060   42.6500 C.cat 289  ARG289      0.5346
    162  NH1        8.2980   16.4450   42.2510 N.pl3 289  ARG289      0.1354
    163  NH2        9.3560   18.3840   42.8980 N.pl3 289  ARG289      0.1354
    164  N          5.1360   21.4860   38.5940 N.am  290  ASN290     -0.1974
    165  CA         5.6150   22.6060   37.7550 C.3   290  ASN290      0.1688
    166  C          5.0560   23.9560   38.1660 C.2   290  ASN290      0.2292
    167  O          5.7770   24.9450   38.1880 O.2   290  ASN290     -0.2864
    168  CB         5.3150   22.3500   36.2770 C.3   290  ASN290      0.1181
    169  CG         5.9810   21.1040   35.7720 C.2   290  ASN290      0.2629
    170  OD1        6.9260   20.6310   36.3710 O.2   290  ASN290     -0.2716
    171  ND2        5.4800   20.5540   34.6810 N.am  290  ASN290     -0.0877
    172  N          9.5940   26.5140   41.6600 N.3   296  ARG296     -0.1245
    173  CA         9.2050   26.5110   40.2520 C.3   296  ARG296      0.1563
    174  C          8.2860   27.7260   40.0110 C.2   296  ARG296      0.2260
    175  O          8.6060   28.8120   40.4740 O.2   296  ARG296     -0.2867
    176  CB         8.6150   25.1490   39.8100 C.3   296  ARG296      0.0307
    177  CG         9.5910   23.9500   39.9520 C.3   296  ARG296      0.0489
    178  CD        10.7310   23.9310   38.9120 C.3   296  ARG296      0.2205
    179  NE        10.2170   23.9570   37.5410 N.pl3 296  ARG296     -0.0865
    180  CZ         9.6050   22.9440   36.9430 C.cat 296  ARG296      0.5346
    181  NH1        9.4460   21.7840   37.5920 N.pl3 296  ARG296      0.1354
    182  NH2        9.1350   23.0870   35.6940 N.pl3 296  ARG296      0.1354
    183  N          8.5240    7.9980   44.1270 N.3   371  TRP371     -0.1241
    184  CA         8.2170    8.5900   42.8370 C.3   371  TRP371      0.1605
    185  C          6.8830    8.1490   42.2340 C.2   371  TRP371      0.2264
    186  O          6.3020    8.8620   41.4190 O.2   371  TRP371     -0.2867
    187  CB         9.3270    8.3110   41.8420 C.3   371  TRP371      0.0550
    188  CG        10.5630    9.1240   42.0430 C.ar  371  TRP371      0.0003
    189  CD1       11.3250    9.2230   43.1630 C.ar  371  TRP371      0.0946
    190  CD2       11.1620    9.9630   41.0650 C.ar  371  TRP371      0.0152
    191  NE1       12.4240   10.0600   42.9250 N.ar  371  TRP371     -0.2442
    192  CE2       12.3300   10.5300   41.6450 C.ar  371  TRP371      0.0810
    193  CE3       10.8360   10.2760   39.7330 C.ar  371  TRP371      0.0012
    194  CZ2       13.1570   11.4040   40.9540 C.ar  371  TRP371      0.0191
    195  CZ3       11.7100   11.1340   39.0130 C.ar  371  TRP371      0.0001
    196  CH2       12.8360   11.6890   39.6400 C.ar  371  TRP371      0.0015
    197  N         20.6040    8.6630   34.7330 N.3   399  TYR399     -0.1241
    198  CA        20.6630   10.1090   34.7000 C.3   399  TYR399      0.1605
    199  C         22.0830   10.5420   34.2820 C.2   399  TYR399      0.2264
    200  O         23.0690    9.8440   34.5330 O.2   399  TYR399     -0.2867
    201  CB        20.1340   10.7140   36.0210 C.3   399  TYR399      0.0534
    202  CG        20.2280   12.2320   36.0750 C.ar  399  TYR399     -0.0201
    203  CD1       19.1970   13.0520   35.5460 C.ar  399  TYR399     -0.0009
    204  CD2       21.3670   12.8500   36.6170 C.ar  399  TYR399     -0.0009
    205  CE1       19.3190   14.4650   35.5710 C.ar  399  TYR399      0.0417
    206  CE2       21.4950   14.2360   36.6440 C.ar  399  TYR399      0.0417
    207  CZ        20.4790   15.0360   36.1210 C.ar  399  TYR399      0.1957
    208  OH        20.6420   16.4070   36.1810 O.3   399  TYR399     -0.2866
@<TRIPOS>BOND
     1   105   104    1
     2   104   101    1
     3    90    89    1
     4    90    91    1
     5    90    93    1
     6   103   102    2
     7   100    91   am
     8   100   101    1
     9    91    92    2
    10   122   120   ar
    11   122   123   ar
    12   101   102    1
    13   102   106   am
    14   109   108    2
    15    93    94    1
    16   120   117   ar
    17   123   121   ar
    18   106   107    1
    19    42    41    2
    20   108   107    1
    21   108   110   am
    22    41    40    1
    23    69    68    2
    24   117   115   ar
    25   117   119   ar
    26    94    96   ar
    27    94    95   ar
    28    48    49    1
    29    59    65    1
    30    59    60    1
    31    62    61    2
    32    51    50    2
    33    65    64    1
    34   114   115    1
    35   114   111    1
    36    61    60    1
    37   121   119   ar
    38    96    98   ar
    39   110   111    1
    40    68    67    1
    41    66    67    1
    42   115   116   ar
    43   111   112    1
    44   119   118   ar
    45    40    43    1
    46    40    39    1
    47    95    97   ar
    48    60    63    1
    49    84    83    2
    50    50    49    1
    51    49    52    1
    52    67    70    1
    53    73    74    1
    54    64    63    1
    55    43    44    1
    56    39    35   am
    57    98    99   ar
    58   116   118   ar
    59    74    75    1
    60    74    77    1
    61    52    53    1
    62    33    34    1
    63    83    82    1
    64   112   124   am
    65   112   113    2
    66    97    99   ar
    67    35    36    2
    68    35    34    1
    69    70    71    1
    70    70    72    1
    71    81    75   am
    72    81    82    1
    73   124   125    1
    74    53    54    1
    75    75    76    2
    76    34    37    1
    77    44    45    1
    78   133   131   ar
    79   133   134   ar
    80    46    45    2
    81   131   129   ar
    82    77    78    1
    83    82    85    1
    84    85    86    1
    85    45    47   am
    86    54    55    1
    87   135   134    1
    88   134   132   ar
    89   125   128    1
    90   125   126    1
    91   129   128    1
    92   129   130   ar
    93    80    78   am
    94    78    79    2
    95    37    38    1
    96    86    87    1
    97   127   126    2
    98   126   136   am
    99   132   130   ar
   100    55    56    2
   101    87    88    1
   102   136   137    1
   103    32    31    1
   104    56    57    1
   105    56    58    1
   106   137   138    1
   107   137   140    1
   108   199   200    2
   109   199   198    1
   110    31    28    1
   111   171   169   am
   112   198   197    1
   113   198   201    1
   114   138   139    2
   115   151   150   ar
   116   152   150   ar
   117   140   141    1
   118   150   149    1
   119   203   205   ar
   120   203   202   ar
   121   205   207   ar
   122   182   180    1
   123   169   168    1
   124   169   170    2
   125    28    29    1
   126    28    27    1
   127   201   202    1
   128   202   204   ar
   129   207   208    1
   130   207   206   ar
   131    30    29    2
   132   168   165    1
   133   148   149    1
   134   148   145    1
   135   141   142    1
   136   204   206   ar
   137    27    18   am
   138   146   145    1
   139   146   147    2
   140   180   179    2
   141   180   181    1
   142   145   144    1
   143   142   143    1
   144   179   178    1
   145   165   166    1
   146   165   164    1
   147    18    19    2
   148    18    17    1
   149   166   167    2
   150    16    17    1
   151   164   155   am
   152    17    20    1
   153    20    21    1
   154   178   177    1
   155   195   196   ar
   156   195   193   ar
   157   196   194   ar
   158   193   190   ar
   159   176   177    1
   160   176   173    1
   161    22    21    1
   162    22    23    1
   163   155   156    2
   164   155   154    1
   165   174   173    1
   166   174   175    2
   167    15    13    1
   168   157   154    1
   169   157   158    1
   170    25    24    1
   171   173   172    1
   172    14    13    1
   173   153   154    1
   174    13    12    1
   175   158   159    1
   176   194   192   ar
   177   190   192   ar
   178   190   188   ar
   179    23    24    2
   180    24    26    1
   181   186   185    2
   182   192   191   ar
   183   187   188    1
   184   187   184    1
   185     6     5    1
   186   188   189   ar
   187     4     3    2
   188    12     9    1
   189   185   184    1
   190   162   161    1
   191   159   160    1
   192   161   160    2
   193   161   163    1
   194     9     8    1
   195     9    10    1
   196   184   183    1
   197   191   189   ar
   198     3     8   am
   199     3     2    1
   200     5     2    1
   201     5     7    1
   202    10    11    2
   203     2     1    1
