@<TRIPOS>MOLECULE
tmp/3rqqA00.pdb
 159 153 0 0 0
SMALL
GASTEIGER

@<TRIPOS>ATOM
      1  N        -26.8510   -2.3660  -17.4310 N.3   129  ASP129     -0.1225
      2  CA       -26.2020   -3.5410  -18.0170 C.3   129  ASP129      0.1805
      3  C        -25.6970   -4.4130  -16.8780 C.2   129  ASP129      0.2597
      4  O        -25.5300   -3.9690  -15.7260 O.2   129  ASP129     -0.2718
      5  CB       -25.0460   -3.0950  -18.9360 C.3   129  ASP129      0.1424
      6  CG       -24.4070   -4.2220  -19.7150 C.2   129  ASP129      0.3668
      7  OD1      -25.0450   -5.2570  -19.9910 O.co2 129  ASP129     -0.2456
      8  OD2      -23.2080   -4.0810  -20.0270 O.co2 129  ASP129     -0.2456
      9  N        -25.4620   -5.6790  -17.2160 N.am  130  ALA130     -0.1979
     10  CA       -24.6640   -6.5800  -16.3550 C.3   130  ALA130      0.1597
     11  C        -25.1950   -6.6370  -14.9350 C.2   130  ALA130      0.2287
     12  O        -26.3660   -6.9910  -14.7300 O.2   130  ALA130     -0.2864
     13  CB       -23.1850   -6.2020  -16.4710 C.3   130  ALA130      0.0319
     14  N        -28.0880   -9.9450  -22.1680 N.3   150  HIS150     -0.1241
     15  CA       -27.9940  -11.1970  -22.9120 C.3   150  HIS150      0.1621
     16  C        -29.1060  -12.1260  -22.4630 C.2   150  HIS150      0.2264
     17  O        -29.8260  -11.8550  -21.5000 O.2   150  HIS150     -0.2867
     18  CB       -26.6080  -11.8190  -22.8730 C.3   150  HIS150      0.0745
     19  CG       -26.1610  -12.3660  -21.5680 C.ar  150  HIS150      0.0817
     20  ND1      -26.8910  -13.2690  -20.8200 N.ar  150  HIS150     -0.2268
     21  CD2      -24.9600  -12.2520  -20.9400 C.ar  150  HIS150      0.1154
     22  CE1      -26.1850  -13.6400  -19.7560 C.ar  150  HIS150      0.1986
     23  NE2      -25.0130  -13.0290  -19.8040 N.ar  150  HIS150     -0.2212
     24  N        -29.4490  -12.9360  -18.7970 N.3   153  GLU153     -0.1245
     25  CA       -29.8480  -11.7840  -17.9980 C.3   153  GLU153      0.1567
     26  C        -31.3460  -11.4960  -18.2190 C.2   153  GLU153      0.2260
     27  O        -32.0290  -11.0580  -17.3090 O.2   153  GLU153     -0.2867
     28  CB       -29.0050  -10.5570  -18.3340 C.3   153  GLU153      0.0388
     29  CG       -27.5410  -10.7260  -17.8960 C.3   153  GLU153      0.1160
     30  CD       -26.5330   -9.8320  -18.5380 C.2   153  GLU153      0.3649
     31  OE1      -26.7630   -9.3940  -19.6730 O.co2 153  GLU153     -0.2457
     32  OE2      -25.4350   -9.6240  -17.9280 O.co2 153  GLU153     -0.2457
     33  N        -29.4780   -8.9800  -26.6420 N.3   187  LYS187     -0.1231
     34  CA       -28.2870   -9.3410  -27.3870 C.3   187  LYS187      0.1693
     35  C        -28.3500  -10.7450  -27.9870 C.2   187  LYS187      0.2593
     36  O        -29.1630  -11.6110  -27.5470 O.2   187  LYS187     -0.2718
     37  CB       -27.1230   -9.2200  -26.4540 C.3   187  LYS187      0.0285
     38  CG       -26.8540   -7.8360  -26.0540 C.3   187  LYS187      0.0035
     39  CD       -25.8970   -7.8450  -24.7370 C.3   187  LYS187      0.0206
     40  CE       -25.2710   -6.5520  -24.4830 C.3   187  LYS187      0.1093
     41  NZ       -24.7020   -6.4960  -23.0600 N.3   187  LYS187     -0.1314
     42  N        -27.5260  -10.9250  -29.0030 N.am  188  GLY188     -0.1942
     43  CA       -27.3670  -12.1820  -29.7090 C.3   188  GLY188      0.2014
     44  C        -27.1820  -11.8940  -31.1960 C.2   188  GLY188      0.2639
     45  O        -27.2010  -10.7340  -31.6390 O.2   188  GLY188     -0.2714
     46  N        -27.0550  -12.9400  -31.9730 N.am  189  ASN189     -0.1958
     47  CA       -27.1900  -12.7810  -33.4120 C.3   189  ASN189      0.1819
     48  C        -28.5760  -12.1380  -33.6240 C.2   189  ASN189      0.2621
     49  O        -29.5210  -12.4830  -32.9560 O.2   189  ASN189     -0.2715
     50  CB       -27.0990  -14.1380  -34.1000 C.3   189  ASN189      0.1195
     51  CG       -27.2960  -14.0450  -35.6210 C.2   189  ASN189      0.2630
     52  OD1      -26.6950  -13.2170  -36.2810 O.2   189  ASN189     -0.2716
     53  ND2      -28.1520  -14.9050  -36.1690 N.am  189  ASN189     -0.0877
     54  N        -28.6630  -11.1930  -34.5350 N.am  190  GLN190     -0.1963
     55  CA       -29.8180  -10.3840  -34.7750 C.3   190  GLN190      0.1733
     56  C        -30.3300   -9.8490  -33.4300 C.2   190  GLN190      0.2617
     57  O        -31.4630  -10.1380  -32.9790 O.2   190  GLN190     -0.2715
     58  CB       -30.8480  -11.1440  -35.5850 C.3   190  GLN190      0.0408
     59  CG       -30.3130  -11.5720  -36.9540 C.3   190  GLN190      0.0908
     60  CD       -31.3820  -12.1680  -37.8500 C.2   190  GLN190      0.2608
     61  OE1      -32.4780  -12.4920  -37.3880 O.2   190  GLN190     -0.2717
     62  NE2      -31.0600  -12.3600  -39.1250 N.am  190  GLN190     -0.0878
     63  N        -29.4790   -9.0310  -32.8250 N.am  191  THR191     -0.1951
     64  CA       -29.8740   -8.3280  -31.6030 C.3   191  THR191      0.1897
     65  C        -31.2080   -7.5900  -31.8410 C.2   191  THR191      0.2313
     66  O        -31.4160   -6.9700  -32.9050 O.2   191  THR191     -0.2863
     67  CB       -28.7960   -7.3200  -31.2140 C.3   191  THR191      0.1794
     68  OG1      -27.6650   -8.0400  -30.6860 O.3   191  THR191     -0.2208
     69  CG2      -29.2750   -6.2410  -30.1880 C.3   191  THR191      0.0378
     70  N        -25.9610   -6.3620  -38.3180 N.3   205  THR205     -0.1203
     71  CA       -24.4980   -6.4540  -38.3540 C.3   205  THR205      0.1994
     72  C        -23.9840   -7.3490  -37.2360 C.2   205  THR205      0.2618
     73  O        -24.6260   -7.5690  -36.2220 O.2   205  THR205     -0.2717
     74  CB       -23.8560   -5.0600  -38.2320 C.3   205  THR205      0.1784
     75  OG1      -24.2080   -4.5160  -36.9630 O.3   205  THR205     -0.2211
     76  CG2      -24.2710   -4.1220  -39.3920 C.3   205  THR205      0.0376
     77  N        -22.7240   -7.7290  -37.3620 N.am  206  GLY206     -0.1942
     78  CA       -22.0680   -8.5400  -36.4060 C.3   206  GLY206      0.2014
     79  C        -21.8870   -9.9830  -36.8400 C.2   206  GLY206      0.2639
     80  O        -22.4640  -10.4680  -37.8330 O.2   206  GLY206     -0.2714
     81  N        -21.0950  -10.6930  -36.0510 N.am  207  ASN207     -0.1958
     82  CA       -20.7900  -12.0780  -36.3040 C.3   207  ASN207      0.1819
     83  C        -20.2370  -12.7160  -35.0570 C.2   207  ASN207      0.2621
     84  O        -20.2040  -12.0830  -33.9730 O.2   207  ASN207     -0.2715
     85  CB       -19.8370  -12.2380  -37.4920 C.3   207  ASN207      0.1195
     86  CG       -18.5420  -11.5180  -37.2790 C.2   207  ASN207      0.2630
     87  OD1      -17.9600  -11.5660  -36.1940 O.2   207  ASN207     -0.2716
     88  ND2      -18.0540  -10.8220  -38.3370 N.am  207  ASN207     -0.0877
     89  N        -19.8390  -13.9890  -35.1840 N.am  208  GLY208     -0.1954
     90  CA       -19.3730  -14.7290  -34.0170 C.3   208  GLY208      0.1869
     91  C        -18.1110  -14.2390  -33.3570 C.2   208  GLY208      0.2309
     92  O        -17.7610  -14.6860  -32.2440 O.2   208  GLY208     -0.2863
     93  N        -17.9130  -11.5960  -31.9870 N.3   210  LEU210     -0.1231
     94  CA       -18.4550  -10.9090  -30.7930 C.3   210  LEU210      0.1693
     95  C        -18.7790  -11.8340  -29.6300 C.2   210  LEU210      0.2592
     96  O        -19.0120  -11.3590  -28.5120 O.2   210  LEU210     -0.2718
     97  CB       -19.6890  -10.0990  -31.1650 C.3   210  LEU210      0.0284
     98  CG       -19.5190   -8.9380  -32.1420 C.3   210  LEU210      0.0019
     99  CD1      -20.8870   -8.3820  -32.5800 C.3   210  LEU210      0.0001
    100  CD2      -18.6350   -7.8400  -31.5340 C.3   210  LEU210      0.0001
    101  N        -18.7820  -13.1450  -29.8640 N.am  211  ALA211     -0.1966
    102  CA       -19.1710  -14.1100  -28.8360 C.3   211  ALA211      0.1728
    103  C        -17.9820  -14.4050  -27.9310 C.2   211  ALA211      0.2616
    104  O        -17.4610  -15.5380  -27.9070 O.2   211  ALA211     -0.2715
    105  CB       -19.6940  -15.4070  -29.5230 C.3   211  ALA211      0.0334
    106  N        -17.5570  -13.3950  -27.1820 N.am  212  LYS212     -0.1963
    107  CA       -16.4130  -13.4860  -26.2950 C.3   212  LYS212      0.1728
    108  C        -16.5470  -12.4100  -25.2560 C.2   212  LYS212      0.2617
    109  O        -17.0900  -11.3070  -25.5370 O.2   212  LYS212     -0.2715
    110  CB       -15.1020  -13.3550  -27.0730 C.3   212  LYS212      0.0311
    111  CG       -13.8800  -13.6860  -26.2620 C.3   212  LYS212      0.0038
    112  CD       -12.5220  -13.5320  -27.0230 C.3   212  LYS212      0.0206
    113  CE       -12.4060  -14.4200  -28.2900 C.3   212  LYS212      0.1093
    114  NZ       -11.1990  -14.0540  -29.1430 N.3   212  LYS212     -0.1314
    115  N        -16.0390  -12.7050  -24.0470 N.am  213  GLY213     -0.1940
    116  CA       -16.0900  -11.7380  -22.9980 C.3   213  GLY213      0.2014
    117  C        -15.6160  -10.3490  -23.3340 C.2   213  GLY213      0.2639
    118  O        -14.5220  -10.1720  -23.9030 O.2   213  GLY213     -0.2714
    119  N        -16.4070   -9.3740  -22.9060 N.am  214  GLY214     -0.1939
    120  CA       -16.0730   -7.9710  -22.9590 C.3   214  GLY214      0.2014
    121  C        -16.7520   -7.1980  -24.0610 C.2   214  GLY214      0.2640
    122  O        -16.7900   -5.9500  -24.0220 O.2   214  GLY214     -0.2714
    123  N        -17.2690   -7.8920  -25.0710 N.am  215  THR215     -0.1936
    124  CA       -17.8250   -7.1570  -26.1790 C.3   215  THR215      0.2028
    125  C        -19.1030   -6.4110  -25.8060 C.2   215  THR215      0.2643
    126  O        -19.4330   -5.3370  -26.3870 O.2   215  THR215     -0.2714
    127  CB       -18.0890   -8.0320  -27.3940 C.3   215  THR215      0.1808
    128  OG1      -19.0280   -9.0490  -27.0450 O.3   215  THR215     -0.2208
    129  CG2      -16.7750   -8.7020  -27.9220 C.3   215  THR215      0.0379
    130  N        -19.8310   -6.8940  -24.7980 N.am  216  GLY216     -0.1939
    131  CA       -20.9900   -6.1850  -24.3320 C.3   216  GLY216      0.2014
    132  C        -20.6460   -4.9700  -23.4970 C.2   216  GLY216      0.2638
    133  O        -21.3860   -3.9880  -23.4620 O.2   216  GLY216     -0.2714
    134  N        -19.5400   -5.0170  -22.7460 N.am  217  ASP217     -0.1971
    135  CA       -19.0740   -3.8450  -22.0100 C.3   217  ASP217      0.1709
    136  C        -18.7440   -2.7380  -22.9940 C.2   217  ASP217      0.2293
    137  O        -19.0550   -1.5530  -22.7790 O.2   217  ASP217     -0.2864
    138  CB       -17.8410   -4.2240  -21.1780 C.3   217  ASP217      0.1436
    139  CG       -18.1200   -5.3090  -20.1650 C.2   217  ASP217      0.3671
    140  OD1      -19.2340   -5.3610  -19.6290 O.co2 217  ASP217     -0.2456
    141  OD2      -17.1450   -6.0930  -19.9220 O.co2 217  ASP217     -0.2456
    142  N        -20.0200   -2.3770  -26.0020 N.3   219  LEU219     -0.1245
    143  CA       -21.3200   -1.8750  -26.5030 C.3   219  LEU219      0.1561
    144  C        -21.9690   -0.8810  -25.5340 C.2   219  LEU219      0.2260
    145  O        -22.4520    0.1610  -25.9310 O.2   219  LEU219     -0.2867
    146  CB       -22.2840   -3.0210  -26.8090 C.3   219  LEU219      0.0270
    147  CG       -23.6970   -2.5750  -27.2340 C.3   219  LEU219      0.0019
    148  CD1      -23.6000   -1.8010  -28.5420 C.3   219  LEU219      0.0001
    149  CD2      -24.6190   -3.7880  -27.3860 C.3   219  LEU219      0.0001
    150  N        -21.2810   -1.2030  -33.6460 N.3   244  HIS244     -0.1241
    151  CA       -20.6010   -2.2270  -32.8950 C.3   244  HIS244      0.1621
    152  C        -20.4670   -3.5120  -33.7110 C.2   244  HIS244      0.2264
    153  O        -19.3820   -4.0900  -33.8420 O.2   244  HIS244     -0.2867
    154  CB       -21.3820   -2.4120  -31.5930 C.3   244  HIS244      0.0745
    155  CG       -20.9120   -3.5130  -30.6830 C.ar  244  HIS244      0.0817
    156  ND1      -21.5350   -4.7420  -30.6430 N.ar  244  HIS244     -0.2268
    157  CD2      -19.9550   -3.5280  -29.6990 C.ar  244  HIS244      0.1154
    158  CE1      -20.9610   -5.4750  -29.6770 C.ar  244  HIS244      0.1986
    159  NE2      -20.0070   -4.7730  -29.1010 N.ar  244  HIS244     -0.2212
@<TRIPOS>BOND
     1    76    74    1
     2    62    60   am
     3    71    70    1
     4    71    74    1
     5    71    72    1
     6    88    86   am
     7    74    75    1
     8    60    61    2
     9    60    59    1
    10    80    79    2
    11    85    86    1
    12    85    82    1
    13    77    72   am
    14    77    78    1
    15    86    87    2
    16    72    73    2
    17    59    58    1
    18    79    78    1
    19    79    81   am
    20    82    81    1
    21    82    83    1
    22    52    51    2
    23    53    51   am
    24    51    50    1
    25    58    55    1
    26    89    83   am
    27    89    90    1
    28    83    84    2
    29    55    54    1
    30    55    56    1
    31    54    48   am
    32    50    47    1
    33    90    91    1
    34   153   152    2
    35   152   151    1
    36   150   151    1
    37    48    47    1
    38    48    49    2
    39    56    57    2
    40    56    63   am
    41    47    46    1
    42    91    92    2
    43    66    65    2
    44   151   154    1
    45    63    64    1
    46    99    98    1
    47    98   100    1
    48    98    97    1
    49    93    94    1
    50    46    44   am
    51    65    64    1
    52    45    44    2
    53    64    67    1
    54   154   155    1
    55    67    68    1
    56    67    69    1
    57    44    43    1
    58    97    94    1
    59    94    95    1
    60   155   156   ar
    61   155   157   ar
    62   156   158   ar
    63   101    95   am
    64   101   102    1
    65    43    42    1
    66   157   159   ar
    67   158   159   ar
    68    95    96    2
    69   105   102    1
    70   114   113    1
    71    42    35   am
    72   102   103    1
    73   148   147    1
    74   113   112    1
    75    35    36    2
    76    35    34    1
    77   103   104    2
    78   103   106   am
    79   129   127    1
    80   127   128    1
    81   127   124    1
    82    34    33    1
    83    34    37    1
    84   149   147    1
    85   147   146    1
    86   106   107    1
    87   110   107    1
    88   110   111    1
    89   112   111    1
    90   146   143    1
    91   143   142    1
    92   143   144    1
    93    37    38    1
    94   126   125    2
    95   107   108    1
    96   124   125    1
    97   124   123    1
    98    38    39    1
    99   145   144    2
   100   125   130   am
   101   109   108    2
   102   108   115   am
   103   123   121   am
   104   130   131    1
   105    39    40    1
   106    40    41    1
   107   131   132    1
   108   121   122    2
   109   121   120    1
   110   115   116    1
   111   118   117    2
   112   132   133    2
   113   132   134   am
   114   117   116    1
   115   117   119   am
   116   136   137    2
   117   136   135    1
   118   120   119    1
   119    15    18    1
   120    15    16    1
   121    15    14    1
   122    18    19    1
   123   134   135    1
   124    16    17    2
   125   135   138    1
   126    19    21   ar
   127    19    20   ar
   128   138   139    1
   129    21    23   ar
   130    20    22   ar
   131   139   141   ar
   132   139   140   ar
   133     8     6   ar
   134     7     6   ar
   135    23    22   ar
   136     6     5    1
   137    31    30   ar
   138     5     2    1
   139    24    25    1
   140    30    32   ar
   141    30    29    1
   142    28    25    1
   143    28    29    1
   144    26    25    1
   145    26    27    2
   146     2     1    1
   147     2     3    1
   148     9     3   am
   149     9    10    1
   150     3     4    2
   151    13    10    1
   152    10    11    1
   153    11    12    2
