@<TRIPOS>MOLECULE
tmp/3rqxA00.pdb
 201 193 0 0 0
SMALL
GASTEIGER

@<TRIPOS>ATOM
      1  N         24.0520   -8.1540    8.5550 N.3   108  GLN108     -0.1245
      2  CA        25.5000   -8.1820    8.5600 C.3   108  GLN108      0.1566
      3  C         26.0160   -8.0560    7.1610 C.2   108  GLN108      0.2260
      4  O         26.6250   -8.9680    6.6350 O.2   108  GLN108     -0.2867
      5  CB        26.0340   -9.5160    9.1290 C.3   108  GLN108      0.0367
      6  CG        25.6030   -9.7760   10.5500 C.3   108  GLN108      0.0905
      7  CD        25.7020  -11.2690   10.9430 C.2   108  GLN108      0.2608
      8  OE1       26.6930  -11.9700   10.6280 O.2   108  GLN108     -0.2717
      9  NE2       24.6830  -11.7380   11.6460 N.am  108  GLN108     -0.0878
     10  N         26.8430   -2.2230   17.2110 N.3   129  ASP129     -0.1225
     11  CA        26.2390   -3.4030   17.8000 C.3   129  ASP129      0.1805
     12  C         25.6600   -4.3020   16.7340 C.2   129  ASP129      0.2597
     13  O         25.4430   -3.8760   15.6290 O.2   129  ASP129     -0.2718
     14  CB        25.0900   -2.9550   18.7170 C.3   129  ASP129      0.1424
     15  CG        24.4880   -4.0850   19.5150 C.2   129  ASP129      0.3668
     16  OD1       25.1850   -5.0540   19.7920 O.co2 129  ASP129     -0.2456
     17  OD2       23.3140   -3.9870   19.8570 O.co2 129  ASP129     -0.2456
     18  N         25.4490   -5.5550   17.0750 N.am  130  ALA130     -0.1979
     19  CA        24.7280   -6.4410   16.1880 C.3   130  ALA130      0.1597
     20  C         25.2790   -6.5350   14.7780 C.2   130  ALA130      0.2287
     21  O         26.3890   -6.9230   14.5820 O.2   130  ALA130     -0.2864
     22  CB        23.2700   -6.0720   16.1850 C.3   130  ALA130      0.0319
     23  N         27.9280   -9.7170   21.9820 N.3   150  HIS150     -0.1241
     24  CA        27.6850  -11.0090   22.6200 C.3   150  HIS150      0.1621
     25  C         28.8790  -11.9000   22.2900 C.2   150  HIS150      0.2264
     26  O         29.6030  -11.6620   21.2970 O.2   150  HIS150     -0.2867
     27  CB        26.3900  -11.5850   21.9640 C.3   150  HIS150      0.0745
     28  CG        25.9530  -12.9090   22.4490 C.ar  150  HIS150      0.0817
     29  ND1       26.4600  -14.0770   21.9280 N.ar  150  HIS150     -0.2268
     30  CD2       24.9870  -13.2810   23.3390 C.ar  150  HIS150      0.1154
     31  CE1       25.8950  -15.1160   22.5360 C.ar  150  HIS150      0.1986
     32  NE2       24.9730  -14.6630   23.3770 N.ar  150  HIS150     -0.2212
     33  N         29.1770  -14.6440   20.7420 N.3   152  GLY152     -0.1210
     34  CA        29.1780  -15.0910   19.3680 C.3   152  GLY152      0.1956
     35  C         29.6060  -14.0340   18.3660 C.2   152  GLY152      0.2611
     36  O         30.2700  -14.3300   17.4000 O.2   152  GLY152     -0.2717
     37  N         29.2470  -12.7920   18.6540 N.am  153  GLU153     -0.1979
     38  CA        29.6750  -11.6530   17.8730 C.3   153  GLU153      0.1602
     39  C         31.1820  -11.4120   18.0440 C.2   153  GLU153      0.2287
     40  O         31.8490  -11.0050   17.1380 O.2   153  GLU153     -0.2864
     41  CB        28.8360  -10.4240   18.1940 C.3   153  GLU153      0.0415
     42  CG        27.4200  -10.6180   17.7120 C.3   153  GLU153      0.1163
     43  CD        26.4110   -9.6710   18.3260 C.2   153  GLU153      0.3649
     44  OE1       26.6700   -9.1290   19.3880 O.co2 153  GLU153     -0.2457
     45  OE2       25.3640   -9.4850   17.7160 O.co2 153  GLU153     -0.2457
     46  N         33.3360  -13.7010   18.5620 N.3   155  PHE155     -0.1227
     47  CA        33.9560  -14.7210   17.7270 C.3   155  PHE155      0.1736
     48  C         33.9990  -14.2440   16.2770 C.2   155  PHE155      0.2595
     49  O         35.0040  -14.3540   15.6110 O.2   155  PHE155     -0.2718
     50  CB        33.1620  -16.0260   17.8310 C.3   155  PHE155      0.0547
     51  CG        33.5030  -17.0320   16.7800 C.ar  155  PHE155     -0.0202
     52  CD1       34.7890  -17.4740   16.6280 C.ar  155  PHE155     -0.0042
     53  CD2       32.5310  -17.5420   15.9550 C.ar  155  PHE155     -0.0042
     54  CE1       35.0970  -18.3920   15.6730 C.ar  155  PHE155     -0.0003
     55  CE2       32.8430  -18.4610   14.9970 C.ar  155  PHE155     -0.0003
     56  CZ        34.1290  -18.8840   14.8610 C.ar  155  PHE155     -0.0000
     57  N         32.9060  -13.6600   15.8150 N.am  156  ARG156     -0.1980
     58  CA        32.8370  -13.1690   14.4540 C.3   156  ARG156      0.1597
     59  C         33.8860  -12.0860   14.2250 C.2   156  ARG156      0.2287
     60  O         34.5080  -12.0350   13.1900 O.2   156  ARG156     -0.2864
     61  CB        31.4280  -12.6250   14.1780 C.3   156  ARG156      0.0334
     62  CG        31.1580  -12.1410   12.7860 C.3   156  ARG156      0.0492
     63  CD        29.6580  -12.0220   12.5680 C.3   156  ARG156      0.2205
     64  NE        29.0970  -10.7400   12.9560 N.pl3 156  ARG156     -0.0865
     65  CZ        27.9450  -10.5790   13.6010 C.cat 156  ARG156      0.5346
     66  NH1       27.2400  -11.6270   13.9970 N.pl3 156  ARG156      0.1354
     67  NH2       27.5100   -9.3650   13.8720 N.pl3 156  ARG156      0.1354
     68  N         33.9340  -19.2720   20.9650 N.3   162  VAL162     -0.1245
     69  CA        33.1740  -18.9200   22.1590 C.3   162  VAL162      0.1561
     70  C         33.6170  -19.7880   23.3560 C.2   162  VAL162      0.2260
     71  O         33.7500  -19.3000   24.4840 O.2   162  VAL162     -0.2867
     72  CB        31.6770  -19.0810   21.9130 C.3   162  VAL162      0.0252
     73  CG1       30.9140  -18.8950   23.1810 C.3   162  VAL162      0.0019
     74  CG2       31.1650  -18.0840   20.8180 C.3   162  VAL162      0.0019
     75  N         29.4980   -8.9710   26.4790 N.3   187  LYS187     -0.1231
     76  CA        28.3030   -9.3100   27.2020 C.3   187  LYS187      0.1693
     77  C         28.3070  -10.6820   27.8140 C.2   187  LYS187      0.2593
     78  O         29.1350  -11.5350   27.4740 O.2   187  LYS187     -0.2718
     79  CB        27.1120   -9.1730   26.2590 C.3   187  LYS187      0.0285
     80  CG        26.8250   -7.8410   25.8950 C.3   187  LYS187      0.0035
     81  CD        25.9050   -7.8050   24.5930 C.3   187  LYS187      0.0206
     82  CE        25.3650   -6.5130   24.4490 C.3   187  LYS187      0.1093
     83  NZ        24.8740   -6.3120   23.0330 N.3   187  LYS187     -0.1314
     84  N         27.3900  -10.8580   28.7440 N.am  188  GLY188     -0.1942
     85  CA        27.2490  -12.0660   29.5420 C.3   188  GLY188      0.2014
     86  C         27.1400  -11.7630   31.0180 C.2   188  GLY188      0.2639
     87  O         27.3160  -10.6250   31.4290 O.2   188  GLY188     -0.2714
     88  N         26.8930  -12.7790   31.8160 N.am  189  ASN189     -0.1958
     89  CA        27.1290  -12.6660   33.2480 C.3   189  ASN189      0.1819
     90  C         28.5130  -12.0350   33.4410 C.2   189  ASN189      0.2621
     91  O         29.4780  -12.4380   32.7810 O.2   189  ASN189     -0.2715
     92  CB        27.0490  -14.0510   33.8930 C.3   189  ASN189      0.1195
     93  CG        27.2970  -14.0180   35.4070 C.2   189  ASN189      0.2630
     94  OD1       26.7330  -13.2330   36.1110 O.2   189  ASN189     -0.2716
     95  ND2       28.1660  -14.8920   35.8800 N.am  189  ASN189     -0.0877
     96  N         28.6160  -11.1030   34.3580 N.am  190  GLN190     -0.1963
     97  CA        29.8440  -10.3660   34.6120 C.3   190  GLN190      0.1733
     98  C         30.3760   -9.7450   33.2970 C.2   190  GLN190      0.2617
     99  O         31.5000  -10.0360   32.8460 O.2   190  GLN190     -0.2715
    100  CB        30.8870  -11.2160   35.3060 C.3   190  GLN190      0.0408
    101  CG        30.3920  -11.5440   36.7360 C.3   190  GLN190      0.0908
    102  CD        31.4230  -12.1820   37.6290 C.2   190  GLN190      0.2608
    103  OE1       32.5200  -12.5080   37.2150 O.2   190  GLN190     -0.2717
    104  NE2       31.0400  -12.3870   38.8950 N.am  190  GLN190     -0.0878
    105  N         29.5340   -8.9340   32.6790 N.am  191  THR191     -0.1951
    106  CA        29.8940   -8.2690   31.4390 C.3   191  THR191      0.1897
    107  C         31.2150   -7.5130   31.6540 C.2   191  THR191      0.2313
    108  O         31.4460   -6.8900   32.7200 O.2   191  THR191     -0.2863
    109  CB        28.7960   -7.2600   31.0410 C.3   191  THR191      0.1794
    110  OG1       27.7100   -8.0000   30.4720 O.3   191  THR191     -0.2208
    111  CG2       29.2780   -6.1930   30.0140 C.3   191  THR191      0.0378
    112  N         25.9770   -6.3140   38.1230 N.3   205  THR205     -0.1203
    113  CA        24.5340   -6.4200   38.1770 C.3   205  THR205      0.1994
    114  C         23.9930   -7.2950   37.0510 C.2   205  THR205      0.2618
    115  O         24.6500   -7.6020   36.0810 O.2   205  THR205     -0.2717
    116  CB        23.8560   -5.0210   38.0730 C.3   205  THR205      0.1784
    117  OG1       24.1630   -4.4460   36.8220 O.3   205  THR205     -0.2211
    118  CG2       24.3710   -4.0580   39.2230 C.3   205  THR205      0.0376
    119  N         22.7340   -7.6340   37.2120 N.am  206  GLY206     -0.1942
    120  CA        22.0630   -8.4630   36.2750 C.3   206  GLY206      0.2014
    121  C         21.8930   -9.8980   36.6930 C.2   206  GLY206      0.2639
    122  O         22.4540  -10.3520   37.6970 O.2   206  GLY206     -0.2714
    123  N         21.0870  -10.6080   35.9120 N.am  207  ASN207     -0.1958
    124  CA        20.8110  -11.9970   36.1520 C.3   207  ASN207      0.1819
    125  C         20.2380  -12.6590   34.9020 C.2   207  ASN207      0.2621
    126  O         20.1670  -12.0230   33.8360 O.2   207  ASN207     -0.2715
    127  CB        19.8890  -12.1750   37.3680 C.3   207  ASN207      0.1195
    128  CG        18.5780  -11.4660   37.1900 C.2   207  ASN207      0.2630
    129  OD1       18.0030  -11.5470   36.1160 O.2   207  ASN207     -0.2716
    130  ND2       18.0670  -10.7880   38.2580 N.am  207  ASN207     -0.0877
    131  N         19.8630  -13.9350   35.0390 N.am  208  GLY208     -0.1954
    132  CA        19.4040  -14.7070   33.9210 C.3   208  GLY208      0.1869
    133  C         18.1350  -14.2110   33.2600 C.2   208  GLY208      0.2309
    134  O         17.7730  -14.6710   32.1520 O.2   208  GLY208     -0.2863
    135  N         17.8950  -11.5500   31.8960 N.3   210  LEU210     -0.1231
    136  CA        18.4170  -10.8690   30.7220 C.3   210  LEU210      0.1693
    137  C         18.7320  -11.7770   29.5470 C.2   210  LEU210      0.2592
    138  O         18.9950  -11.3040   28.4240 O.2   210  LEU210     -0.2718
    139  CB        19.6580  -10.0610   31.0800 C.3   210  LEU210      0.0284
    140  CG        19.4350   -8.8990   32.0260 C.3   210  LEU210      0.0019
    141  CD1       20.7780   -8.2830   32.4510 C.3   210  LEU210      0.0001
    142  CD2       18.4920   -7.8050   31.4110 C.3   210  LEU210      0.0001
    143  N         18.7570  -13.0870   29.7650 N.am  211  ALA211     -0.1966
    144  CA        19.1640  -14.0580   28.7430 C.3   211  ALA211      0.1728
    145  C         17.9840  -14.3700   27.8550 C.2   211  ALA211      0.2616
    146  O         17.3840  -15.4750   27.8860 O.2   211  ALA211     -0.2715
    147  CB        19.7010  -15.3440   29.4440 C.3   211  ALA211      0.0334
    148  N         17.5780  -13.3550   27.0860 N.am  212  LYS212     -0.1963
    149  CA        16.4080  -13.4440   26.2000 C.3   212  LYS212      0.1728
    150  C         16.5410  -12.3720   25.1430 C.2   212  LYS212      0.2617
    151  O         17.0770  -11.2780   25.4030 O.2   212  LYS212     -0.2715
    152  CB        15.0850  -13.3190   26.9920 C.3   212  LYS212      0.0311
    153  CG        13.8300  -13.7150   26.2150 C.3   212  LYS212      0.0038
    154  CD        12.5300  -13.5150   26.9960 C.3   212  LYS212      0.0206
    155  CE        12.4250  -14.4490   28.2210 C.3   212  LYS212      0.1093
    156  NZ        11.2340  -14.0020   29.0440 N.3   212  LYS212     -0.1314
    157  N         16.0170  -12.6970   23.9530 N.am  213  GLY213     -0.1940
    158  CA        16.0470  -11.7460   22.8780 C.3   213  GLY213      0.2014
    159  C         15.5930  -10.3710   23.2380 C.2   213  GLY213      0.2639
    160  O         14.5320  -10.1850   23.8390 O.2   213  GLY213     -0.2714
    161  N         16.3760   -9.3680   22.8170 N.am  214  GLY214     -0.1939
    162  CA        16.0250   -7.9820   22.8910 C.3   214  GLY214      0.2014
    163  C         16.7300   -7.1860   23.9510 C.2   214  GLY214      0.2640
    164  O         16.7910   -5.9400   23.8760 O.2   214  GLY214     -0.2714
    165  N         17.2470   -7.8600   24.9740 N.am  215  THR215     -0.1936
    166  CA        17.7830   -7.1180   26.0900 C.3   215  THR215      0.2028
    167  C         19.0510   -6.3500   25.7340 C.2   215  THR215      0.2643
    168  O         19.3490   -5.3150   26.3200 O.2   215  THR215     -0.2714
    169  CB        18.0610   -7.9950   27.3030 C.3   215  THR215      0.1808
    170  OG1       19.0130   -8.9900   26.9080 O.3   215  THR215     -0.2208
    171  CG2       16.7310   -8.7170   27.8260 C.3   215  THR215      0.0379
    172  N         19.7910   -6.8440   24.7550 N.am  216  GLY216     -0.1939
    173  CA        20.9480   -6.1210   24.2960 C.3   216  GLY216      0.2014
    174  C         20.6130   -4.9310   23.4400 C.2   216  GLY216      0.2638
    175  O         21.3410   -3.9400   23.4210 O.2   216  GLY216     -0.2714
    176  N         19.5360   -5.0230   22.6700 N.am  217  ASP217     -0.1971
    177  CA        19.0340   -3.8770   21.9130 C.3   217  ASP217      0.1709
    178  C         18.6830   -2.7340   22.8760 C.2   217  ASP217      0.2293
    179  O         19.0210   -1.5650   22.6680 O.2   217  ASP217     -0.2864
    180  CB        17.8360   -4.2770   21.0660 C.3   217  ASP217      0.1436
    181  CG        18.1470   -5.4010   20.0960 C.2   217  ASP217      0.3671
    182  OD1       19.2850   -5.5020   19.6080 O.co2 217  ASP217     -0.2456
    183  OD2       17.1740   -6.2000   19.8430 O.co2 217  ASP217     -0.2456
    184  N         19.9660   -2.3080   25.8570 N.3   219  LEU219     -0.1245
    185  CA        21.2430   -1.8040   26.3480 C.3   219  LEU219      0.1561
    186  C         21.9150   -0.8350   25.3920 C.2   219  LEU219      0.2260
    187  O         22.4190    0.1890   25.7920 O.2   219  LEU219     -0.2867
    188  CB        22.1960   -2.9430   26.6800 C.3   219  LEU219      0.0270
    189  CG        23.5810   -2.4930   27.1530 C.3   219  LEU219      0.0019
    190  CD1       23.5380   -1.6490   28.4610 C.3   219  LEU219      0.0001
    191  CD2       24.5200   -3.7420   27.3160 C.3   219  LEU219      0.0001
    192  N         21.2680   -1.1550   33.5380 N.3   244  HIS244     -0.1241
    193  CA        20.5980   -2.1980   32.7850 C.3   244  HIS244      0.1621
    194  C         20.4760   -3.4770   33.6130 C.2   244  HIS244      0.2264
    195  O         19.3710   -4.0660   33.7240 O.2   244  HIS244     -0.2867
    196  CB        21.3590   -2.3700   31.4570 C.3   244  HIS244      0.0745
    197  CG        20.8780   -3.4640   30.5680 C.ar  244  HIS244      0.0817
    198  ND1       21.4990   -4.6970   30.5090 N.ar  244  HIS244     -0.2268
    199  CD2       19.8780   -3.4950   29.6310 C.ar  244  HIS244      0.1154
    200  CE1       20.9070   -5.4180   29.5550 C.ar  244  HIS244      0.1986
    201  NE2       19.9340   -4.7030   29.0000 N.ar  244  HIS244     -0.2212
@<TRIPOS>BOND
     1     4     3    2
     2     3     2    1
     3     1     2    1
     4     2     5    1
     5     5     6    1
     6     6     7    1
     7     8     7    2
     8     7     9   am
     9    63    62    1
    10    63    64    1
    11    62    61    1
    12    64    65    2
    13    60    59    2
    14    65    67    1
    15    65    66    1
    16    61    58    1
    17    59    58    1
    18    58    57    1
    19    21    20    2
    20    20    19    1
    21    56    55   ar
    22    56    54   ar
    23    55    53   ar
    24    49    48    2
    25    13    12    2
    26    54    52   ar
    27    57    48   am
    28    53    51   ar
    29    22    19    1
    30    19    18    1
    31    48    47    1
    32    52    51   ar
    33    12    18   am
    34    12    11    1
    35    51    50    1
    36    40    39    2
    37    10    11    1
    38    36    35    2
    39    42    41    1
    40    42    43    1
    41    45    43   ar
    42    47    50    1
    43    47    46    1
    44    11    14    1
    45    38    39    1
    46    38    41    1
    47    38    37    1
    48    43    44   ar
    49    35    37   am
    50    35    34    1
    51    14    15    1
    52    34    33    1
    53    15    16   ar
    54    15    17   ar
    55   182   181   ar
    56   183   181   ar
    57   181   180    1
    58    74    72    1
    59    68    69    1
    60   180   177    1
    61    26    25    2
    62   177   176    1
    63   177   178    1
    64    72    69    1
    65    72    73    1
    66    29    28   ar
    67    29    31   ar
    68    27    28    1
    69    27    24    1
    70    23    24    1
    71    69    70    1
    72    25    24    1
    73    28    30   ar
    74    31    32   ar
    75   179   178    2
    76   176   174   am
    77   161   162    1
    78   161   159   am
    79   158   159    1
    80   158   157    1
    81   162   163    1
    82    83    82    1
    83   159   160    2
    84    30    32   ar
    85    70    71    2
    86   175   174    2
    87   174   173    1
    88   164   163    2
    89   163   165   am
    90   157   150   am
    91   173   172    1
    92    82    81    1
    93    81    80    1
    94   172   167   am
    95   165   166    1
    96   150   151    2
    97   150   149    1
    98   186   187    2
    99   186   185    1
   100   167   166    1
   101   167   168    2
   102   184   185    1
   103    80    79    1
   104   166   169    1
   105   149   152    1
   106   149   148    1
   107   153   152    1
   108   153   154    1
   109    79    76    1
   110   185   188    1
   111    75    76    1
   112   188   189    1
   113   170   169    1
   114   154   155    1
   115   148   145   am
   116   189   191    1
   117   189   190    1
   118    76    77    1
   119   169   171    1
   120    78    77    2
   121    77    84   am
   122   145   146    2
   123   145   144    1
   124   155   156    1
   125   138   137    2
   126   144   147    1
   127   144   143    1
   128    84    85    1
   129   201   200   ar
   130   201   199   ar
   131    85    86    1
   132   137   143   am
   133   137   136    1
   134   200   198   ar
   135   199   197   ar
   136   111   109    1
   137   110   109    1
   138   198   197   ar
   139   197   196    1
   140   136   139    1
   141   136   135    1
   142    86    87    2
   143    86    88   am
   144   109   106    1
   145   139   140    1
   146   142   140    1
   147   106   107    1
   148   106   105    1
   149   196   193    1
   150   107   108    2
   151    88    89    1
   152   140   141    1
   153   134   133    2
   154   105    98   am
   155    91    90    2
   156   193   192    1
   157   193   194    1
   158    99    98    2
   159    89    90    1
   160    89    92    1
   161   133   132    1
   162    98    97    1
   163    90    96   am
   164   194   195    2
   165   126   125    2
   166    92    93    1
   167   132   131    1
   168    96    97    1
   169    97   100    1
   170   125   131   am
   171   125   124    1
   172   100   101    1
   173    93    95   am
   174    93    94    2
   175   123   124    1
   176   123   121   am
   177   115   114    2
   178   129   128    2
   179   124   127    1
   180   120   121    1
   181   120   119    1
   182   121   122    2
   183   101   102    1
   184   117   116    1
   185   114   119   am
   186   114   113    1
   187   128   127    1
   188   128   130   am
   189   103   102    2
   190   102   104   am
   191   116   113    1
   192   116   118    1
   193   112   113    1
