@<TRIPOS>MOLECULE
tmp/3rqxA02.pdb
 112 111 0 0 0
SMALL
GASTEIGER

@<TRIPOS>ATOM
      1  N         16.8030   11.0620   17.0250 N.3    60  VAL60      -0.1245
      2  CA        16.4990   10.8020   15.6050 C.3    60  VAL60       0.1561
      3  C         16.7620    9.3080   15.3480 C.2    60  VAL60       0.2260
      4  O         17.8770    8.8120   15.5890 O.2    60  VAL60      -0.2867
      5  CB        17.3660   11.6440   14.6970 C.3    60  VAL60       0.0252
      6  CG1       17.0420   11.3480   13.2470 C.3    60  VAL60       0.0019
      7  CG2       17.1620   13.1400   15.0050 C.3    60  VAL60       0.0019
      8  N         11.8880   11.2990   16.7170 N.3    79  THR79      -0.1203
      9  CA        11.7860   11.7930   15.3260 C.3    79  THR79       0.1994
     10  C         12.5830   10.8630   14.4350 C.2    79  THR79       0.2618
     11  O         13.2630    9.9620   14.9100 O.2    79  THR79      -0.2717
     12  CB        12.2710   13.2640   15.1640 C.3    79  THR79       0.1784
     13  OG1       13.6630   13.3140   15.4430 O.3    79  THR79      -0.2211
     14  CG2       11.4610   14.1580   16.1110 C.3    79  THR79       0.0376
     15  N         12.4930   11.0930   13.1210 N.am   80  TYR80      -0.1961
     16  CA        12.9620   10.1040   12.1580 C.3    80  TYR80       0.1771
     17  C         13.8370   10.6880   11.0530 C.2    80  TYR80       0.2620
     18  O         13.6030   11.7930   10.6020 O.2    80  TYR80      -0.2715
     19  CB        11.8040    9.3120   11.5300 C.3    80  TYR80       0.0574
     20  CG        11.0050    8.6400   12.5840 C.ar   80  TYR80      -0.0198
     21  CD1       11.3910    7.4310   13.0880 C.ar   80  TYR80      -0.0009
     22  CD2        9.9140    9.2820   13.1420 C.ar   80  TYR80      -0.0009
     23  CE1       10.7310    6.8370   14.1410 C.ar   80  TYR80       0.0417
     24  CE2        9.2580    8.7250   14.2290 C.ar   80  TYR80       0.0417
     25  CZ         9.6720    7.4980   14.7290 C.ar   80  TYR80       0.1957
     26  OH         9.0490    6.9160   15.8230 O.3    80  TYR80      -0.2866
     27  N         14.7480    9.8470   10.5770 N.am   81  TRP81      -0.1960
     28  CA        15.4640   10.0250    9.3340 C.3    81  TRP81       0.1771
     29  C         15.0780    8.8330    8.5100 C.2    81  TRP81       0.2619
     30  O         15.5050    7.7160    8.7190 O.2    81  TRP81      -0.2715
     31  CB        16.9700   10.1300    9.5570 C.3    81  TRP81       0.0590
     32  CG        17.7630   10.3050    8.3040 C.ar   81  TRP81       0.0006
     33  CD1       17.3480   10.8660    7.0990 C.ar   81  TRP81       0.0946
     34  CD2       19.1410   10.0330    8.1580 C.ar   81  TRP81       0.0152
     35  NE1       18.3950   10.8900    6.2040 N.ar   81  TRP81      -0.2442
     36  CE2       19.5090   10.3970    6.8360 C.ar   81  TRP81       0.0810
     37  CE3       20.1160    9.5150    9.0090 C.ar   81  TRP81       0.0012
     38  CZ2       20.8180   10.2360    6.3610 C.ar   81  TRP81       0.0191
     39  CZ3       21.4110    9.3530    8.5290 C.ar   81  TRP81       0.0001
     40  CH2       21.7450    9.7230    7.2230 C.ar   81  TRP81       0.0015
     41  N         14.1550    9.0610    7.5960 N.am   82  ARG82      -0.1977
     42  CA        13.5630    7.9770    6.8400 C.3    82  ARG82       0.1597
     43  C         14.6100    7.2100    6.0670 C.2    82  ARG82       0.2287
     44  O         15.3400    7.8030    5.3100 O.2    82  ARG82      -0.2864
     45  CB        12.4960    8.5580    5.8990 C.3    82  ARG82       0.0334
     46  CG        11.6650    7.5560    5.1300 C.3    82  ARG82       0.0492
     47  CD        10.5020    8.3290    4.3660 C.3    82  ARG82       0.2205
     48  NE         9.5790    8.9170    5.3450 N.pl3  82  ARG82      -0.0865
     49  CZ         8.5340    8.2940    5.8900 C.cat  82  ARG82       0.5346
     50  NH1        8.1050    7.1300    5.4190 N.pl3  82  ARG82       0.1354
     51  NH2        7.8360    8.8860    6.8500 N.pl3  82  ARG82       0.1354
     52  N         20.6360    5.3490    3.8150 N.3    87  LYS87      -0.1245
     53  CA        21.1870    6.5930    3.3100 C.3    87  LYS87       0.1561
     54  C         22.6130    6.8420    3.8130 C.2    87  LYS87       0.2260
     55  O         23.4710    7.3960    3.0860 O.2    87  LYS87      -0.2867
     56  CB        20.2640    7.7670    3.6430 C.3    87  LYS87       0.0271
     57  CG        18.9300    7.7120    2.9510 C.3    87  LYS87       0.0035
     58  CD        18.0050    8.8480    3.3850 C.3    87  LYS87       0.0206
     59  CE        16.6600    8.8640    2.6220 C.3    87  LYS87       0.1093
     60  NZ        15.6520    9.7270    3.3880 N.3    87  LYS87      -0.1314
     61  N         26.3410    8.6310    2.1280 N.3    91  ALA91      -0.1231
     62  CA        27.0260    9.9460    2.2940 C.3    91  ALA91       0.1694
     63  C         27.2870   10.2400    3.7300 C.2    91  ALA91       0.2592
     64  O         26.9050    9.4750    4.5640 O.2    91  ALA91      -0.2718
     65  CB        26.2210   11.0710    1.6340 C.3    91  ALA91       0.0304
     66  N         28.0400   11.3080    3.9560 N.am   92  GLN92      -0.1966
     67  CA        28.5520   11.6250    5.2910 C.3    92  GLN92       0.1733
     68  C         27.3830   12.1700    5.9700 C.2    92  GLN92       0.2616
     69  O         26.4930   12.7460    5.3330 O.2    92  GLN92      -0.2715
     70  CB        29.6050   12.7520    5.2860 C.3    92  GLN92       0.0408
     71  CG        30.3970   12.8760    4.0170 C.3    92  GLN92       0.0908
     72  CD        31.0060   11.5730    3.6540 C.2    92  GLN92       0.2608
     73  OE1       31.4080   10.8030    4.5510 O.2    92  GLN92      -0.2717
     74  NE2       31.0500   11.2770    2.3370 N.am   92  GLN92      -0.0878
     75  N         27.3740   12.0420    7.2830 N.am   93  LEU93      -0.1963
     76  CA        26.3640   12.7160    8.0120 C.3    93  LEU93       0.1728
     77  C         26.6080   14.2270    7.9090 C.2    93  LEU93       0.2616
     78  O         27.7080   14.6940    8.1450 O.2    93  LEU93      -0.2715
     79  CB        26.3730   12.2480    9.4480 C.3    93  LEU93       0.0311
     80  CG        26.1930   10.7450    9.6130 C.3    93  LEU93       0.0022
     81  CD1       26.1560   10.3960   11.0750 C.3    93  LEU93       0.0001
     82  CD2       24.9330   10.2510    8.9030 C.3    93  LEU93       0.0001
     83  N         25.5530   14.9540    7.5590 N.am   94  GLU94      -0.1963
     84  CA        25.5630   16.4040    7.4500 C.3    94  GLU94       0.1733
     85  C         25.3200   17.0600    8.7990 C.2    94  GLU94       0.2616
     86  O         25.8800   18.1410    9.0700 O.2    94  GLU94      -0.2715
     87  CB        24.4760   16.8570    6.4650 C.3    94  GLU94       0.0429
     88  CG        24.6350   16.2760    5.0780 C.3    94  GLU94       0.1163
     89  CD        25.8140   16.8590    4.3340 C.2    94  GLU94       0.3649
     90  OE1       25.6410   17.1740    3.1330 O.co2  94  GLU94      -0.2457
     91  OE2       26.9100   17.0140    4.9330 O.co2  94  GLU94      -0.2457
     92  N         24.4990   16.4020    9.6290 N.am   95  GLU95      -0.1977
     93  CA        24.0600   16.9470   10.9190 C.3    95  GLU95       0.1602
     94  C         25.0540   16.4880   11.9840 C.2    95  GLU95       0.2287
     95  O         25.7360   15.4510   11.8110 O.2    95  GLU95      -0.2864
     96  CB        22.6410   16.4610   11.2680 C.3    95  GLU95       0.0415
     97  CG        21.4960   17.0620   10.3990 C.3    95  GLU95       0.1163
     98  CD        21.5880   16.6890    8.9140 C.2    95  GLU95       0.3649
     99  OE1       22.3540   15.7590    8.5830 O.co2  95  GLU95      -0.2457
    100  OE2       20.8950   17.3170    8.0690 O.co2  95  GLU95      -0.2457
    101  N         25.5870   15.2530   15.7610 N.3    97  TYR97      -0.1241
    102  CA        24.9270   14.5420   16.8250 C.3    97  TYR97       0.1605
    103  C         25.8520   14.4680   18.0100 C.2    97  TYR97       0.2264
    104  O         27.0740   14.5260   17.8780 O.2    97  TYR97      -0.2867
    105  CB        24.5980   13.1300   16.3410 C.3    97  TYR97       0.0534
    106  CG        23.5670   13.1730   15.2470 C.ar   97  TYR97      -0.0201
    107  CD1       22.2080   13.3670   15.5580 C.ar   97  TYR97      -0.0009
    108  CD2       23.9000   12.9570   13.9380 C.ar   97  TYR97      -0.0009
    109  CE1       21.2320   13.4180   14.6320 C.ar   97  TYR97       0.0417
    110  CE2       22.9240   13.0200   12.9830 C.ar   97  TYR97       0.0417
    111  CZ        21.5970   13.2460   13.3290 C.ar   97  TYR97       0.1957
    112  OH        20.5930   13.3020   12.3610 O.3    97  TYR97      -0.2866
@<TRIPOS>BOND
     1    65    62    1
     2    61    62    1
     3    62    63    1
     4    74    72   am
     5    59    58    1
     6    59    60    1
     7    57    58    1
     8    57    56    1
     9    55    54    2
    10    90    89   ar
    11    53    56    1
    12    53    54    1
    13    53    52    1
    14    72    71    1
    15    72    73    2
    16    63    66   am
    17    63    64    2
    18    66    67    1
    19    71    70    1
    20    89    91   ar
    21    89    88    1
    22    47    46    1
    23    47    48    1
    24    88    87    1
    25    46    45    1
    26    70    67    1
    27    67    68    1
    28    44    43    2
    29    69    68    2
    30    48    49    2
    31    50    49    1
    32    49    51    1
    33    45    42    1
    34    68    75   am
    35    43    42    1
    36    35    36   ar
    37    35    33   ar
    38    38    36   ar
    39    38    40   ar
    40    87    84    1
    41    36    34   ar
    42    42    41    1
    43    33    32   ar
    44    40    39   ar
    45    75    76    1
    46    84    83    1
    47    84    85    1
    48    83    77   am
    49    41    29   am
    50    77    76    1
    51    77    78    2
    52    76    79    1
    53   100    98   ar
    54    34    32   ar
    55    34    37   ar
    56    32    31    1
    57    29    30    2
    58    29    28    1
    59    39    37   ar
    60    99    98   ar
    61    85    86    2
    62    85    92   am
    63    82    80    1
    64    98    97    1
    65    28    31    1
    66    28    27    1
    67    79    80    1
    68    80    81    1
    69    92    93    1
    70    97    96    1
    71    27    17   am
    72    18    17    2
    73    93    96    1
    74    93    94    1
    75    17    16    1
    76    19    16    1
    77    19    20    1
    78    95    94    2
    79    16    15    1
    80   112   111    1
    81    20    21   ar
    82    20    22   ar
    83   110   111   ar
    84   110   108   ar
    85    21    23   ar
    86    15    10   am
    87    22    24   ar
    88     6     5    1
    89   111   109   ar
    90   108   106   ar
    91    23    25   ar
    92    24    25   ar
    93    10    11    2
    94    10     9    1
    95   109   107   ar
    96     5     7    1
    97     5     2    1
    98    25    26    1
    99    12     9    1
   100    12    13    1
   101    12    14    1
   102   106   107   ar
   103   106   105    1
   104     9     8    1
   105     3     4    2
   106     3     2    1
   107     2     1    1
   108   101   102    1
   109   105   102    1
   110   102   103    1
   111   104   103    2
