@<TRIPOS>MOLECULE
tmp/3rqxA01.pdb
 76 76 0 0 0
SMALL
GASTEIGER

@<TRIPOS>ATOM
      1  N         41.1540  -15.0480   37.8280 N.3     1  ALA1       -0.1231
      2  CA        41.0090  -13.7810   37.0740 C.3     1  ALA1        0.1694
      3  C         42.3160  -13.0250   36.8960 C.2     1  ALA1        0.2592
      4  O         43.3990  -13.5260   37.2090 O.2     1  ALA1       -0.2718
      5  CB        39.9870  -12.8880   37.7610 C.3     1  ALA1        0.0304
      6  N         42.1770  -11.8070   36.3770 N.am    2  MET2       -0.1965
      7  CA        43.2160  -10.7680   36.3150 C.3     2  MET2        0.1736
      8  C         42.9130   -9.6650   37.3570 C.2     2  MET2        0.2616
      9  O         43.3600   -8.5010   37.2330 O.2     2  MET2       -0.2715
     10  CB        43.1290  -10.0720   34.9560 C.3     2  MET2        0.0427
     11  CG        43.9970  -10.6020   33.8330 C.3     2  MET2        0.0599
     12  SD        43.8140   -9.3880   32.5240 S.3     2  MET2       -0.1393
     13  CE        42.0380   -9.1700   32.5220 C.3     2  MET2        0.0692
     14  N         42.0890   -9.9770   38.3210 N.am    3  ASN3       -0.1958
     15  CA        41.5690   -8.9810   39.2400 C.3     3  ASN3        0.1819
     16  C         41.0600   -7.6950   38.5970 C.2     3  ASN3        0.2621
     17  O         41.4100   -6.6020   39.0160 O.2     3  ASN3       -0.2715
     18  CB        42.5850   -8.6600   40.3080 C.3     3  ASN3        0.1195
     19  CG        42.5630   -9.7110   41.4200 C.2     3  ASN3        0.2630
     20  OD1       41.4620  -10.1320   41.7810 O.2     3  ASN3       -0.2716
     21  ND2       43.7030  -10.1530   41.8950 N.am    3  ASN3       -0.0877
     22  N         40.1050   -7.8410   37.7120 N.am    4  VAL4       -0.1964
     23  CA        39.4700   -6.7240   37.1520 C.3     4  VAL4        0.1712
     24  C         38.4290   -6.2330   38.1970 C.2     4  VAL4        0.2458
     25  O         37.5960   -7.0230   38.6520 O.2     4  VAL4       -0.2730
     26  CB        38.7560   -7.1140   35.8420 C.3     4  VAL4        0.0289
     27  CG1       37.9990   -5.9590   35.2460 C.3     4  VAL4        0.0023
     28  CG2       39.7940   -7.6170   34.8180 C.3     4  VAL4        0.0023
     29  N         38.4050   -4.9260   38.4700 N.am    5  PRO5       -0.2727
     30  CA        37.4750   -4.4210   39.5010 C.3     5  PRO5        0.1402
     31  C         36.0320   -4.3420   38.9490 C.2     5  PRO5        0.2269
     32  O         35.8430   -4.1300   37.7440 O.2     5  PRO5       -0.2865
     33  CB        38.0440   -3.0150   39.8060 C.3     5  PRO5        0.0296
     34  CG        38.6120   -2.6150   38.5380 C.3     5  PRO5        0.0237
     35  CD        39.2990   -3.8710   37.9950 C.3     5  PRO5        0.0939
     36  N         40.1830   -7.3540   26.9250 N.3   174  LYS174     -0.1245
     37  CA        41.2440   -6.3580   27.0570 C.3   174  LYS174      0.1561
     38  C         42.1990   -6.3680   25.8660 C.2   174  LYS174      0.2260
     39  O         42.5530   -5.3070   25.3550 O.2   174  LYS174     -0.2867
     40  CB        42.0230   -6.5790   28.3460 C.3   174  LYS174      0.0271
     41  CG        41.3620   -6.0690   29.5920 C.3   174  LYS174      0.0035
     42  CD        42.2460   -6.2670   30.8800 C.3   174  LYS174      0.0206
     43  CE        43.7180   -6.0820   30.6640 C.3   174  LYS174      0.1093
     44  NZ        44.2560   -4.6730   30.4800 N.3   174  LYS174     -0.1314
     45  N         43.4100    0.6460   28.2460 N.3   198  GLY198     -0.1210
     46  CA        43.7590   -0.4300   29.1730 C.3   198  GLY198      0.1956
     47  C         42.9650   -0.4990   30.4750 C.2   198  GLY198      0.2612
     48  O         43.0670   -1.4700   31.2350 O.2   198  GLY198     -0.2717
     49  N         42.1570    0.5290   30.7650 N.am  199  ASP199     -0.1959
     50  CA        41.2260    0.4100   31.8790 C.3   199  ASP199      0.1840
     51  C         40.2420   -0.7400   31.5700 C.2   199  ASP199      0.2622
     52  O         39.8630   -0.9820   30.4230 O.2   199  ASP199     -0.2715
     53  CB        40.4310    1.6850   32.0900 C.3   199  ASP199      0.1450
     54  CG        41.2160    2.8220   32.6900 C.2   199  ASP199      0.3671
     55  OD1       42.4100    2.6660   32.9620 O.co2 199  ASP199     -0.2456
     56  OD2       40.5880    3.8980   32.8580 O.co2 199  ASP199     -0.2456
     57  N         39.8150   -1.4470   32.6050 N.am  200  CYS200     -0.1954
     58  CA        38.8210   -2.4930   32.4330 C.3   200  CYS200      0.1843
     59  C         38.0840   -2.7070   33.7330 C.2   200  CYS200      0.2625
     60  O         38.6640   -2.6130   34.8100 O.2   200  CYS200     -0.2714
     61  CB        39.5210   -3.7440   31.9840 C.3   200  CYS200      0.0997
     62  SG        38.5340   -5.0960   31.3700 S.3   200  CYS200     -0.0797
     63  N         36.7750   -2.9580   33.5970 N.am  201  TRP201     -0.1974
     64  CA        35.8910   -3.2180   34.7040 C.3   201  TRP201      0.1640
     65  C         34.9940   -4.4020   34.3970 C.2   201  TRP201      0.2290
     66  O         34.7690   -4.7890   33.2370 O.2   201  TRP201     -0.2864
     67  CB        34.9880   -2.0080   34.9340 C.3   201  TRP201      0.0576
     68  CG        35.7320   -0.7380   35.2770 C.ar  201  TRP201      0.0006
     69  CD1       36.3140    0.1390   34.4080 C.ar  201  TRP201      0.0946
     70  CD2       35.9950   -0.2430   36.5770 C.ar  201  TRP201      0.0152
     71  NE1       36.8840    1.1470   35.0860 N.ar  201  TRP201     -0.2442
     72  CE2       36.7170    0.9460   36.4240 C.ar  201  TRP201      0.0810
     73  CE3       35.6710   -0.6790   37.8430 C.ar  201  TRP201      0.0012
     74  CZ2       37.1100    1.7140   37.5180 C.ar  201  TRP201      0.0191
     75  CZ3       36.0430    0.0650   38.9280 C.ar  201  TRP201      0.0001
     76  CH2       36.7580    1.2610   38.7540 C.ar  201  TRP201      0.0015
@<TRIPOS>BOND
     1    39    38    2
     2    38    37    1
     3    36    37    1
     4    37    40    1
     5    45    46    1
     6    40    41    1
     7    46    47    1
     8    41    42    1
     9    52    51    2
    10    47    49   am
    11    47    48    2
    12    44    43    1
    13    43    42    1
    14    49    50    1
    15    62    61    1
    16    51    50    1
    17    51    57   am
    18    50    53    1
    19    61    58    1
    20    53    54    1
    21    58    57    1
    22    58    59    1
    23    13    12    1
    24    12    11    1
    25    54    56   ar
    26    54    55   ar
    27    66    65    2
    28    63    59   am
    29    63    64    1
    30    59    60    2
    31    11    10    1
    32    65    64    1
    33    69    71   ar
    34    69    68   ar
    35    64    67    1
    36    28    26    1
    37    67    68    1
    38    10     7    1
    39    71    72   ar
    40    27    26    1
    41    68    70   ar
    42    26    23    1
    43     7     6    1
    44     7     8    1
    45     6     3   am
    46    72    70   ar
    47    72    74   ar
    48    70    73   ar
    49     3     2    1
    50     3     4    2
    51     2     5    1
    52     2     1    1
    53    23    22    1
    54    23    24    1
    55     9     8    2
    56     8    14   am
    57    74    76   ar
    58    22    16   am
    59    32    31    2
    60    73    75   ar
    61    35    29    1
    62    35    34    1
    63    24    29   am
    64    24    25    2
    65    14    15    1
    66    29    30    1
    67    34    33    1
    68    16    17    2
    69    16    15    1
    70    76    75   ar
    71    31    30    1
    72    15    18    1
    73    30    33    1
    74    18    19    1
    75    19    20    2
    76    19    21   am
