@<TRIPOS>MOLECULE
tmp/3rr3C03.pdb
 173 166 0 0 0
SMALL
GASTEIGER

@<TRIPOS>ATOM
      1  N         67.5660  -63.2760   12.7640 N.3    82  MET82      -0.1245
      2  CA        67.2910  -62.1760   11.8530 C.3    82  MET82       0.1570
      3  C         66.1960  -61.2990   12.4530 C.2    82  MET82       0.2261
      4  O         66.3090  -60.0700   12.4770 O.2    82  MET82      -0.2867
      5  CB        66.8810  -62.7030   10.4700 C.3    82  MET82       0.0387
      6  CG        66.8410  -61.6430    9.3770 C.3    82  MET82       0.0595
      7  SD        68.4430  -60.8590    9.1840 S.3    82  MET82      -0.1393
      8  CE        68.0710  -59.3940    8.2250 C.3    82  MET82       0.0692
      9  N         67.7380  -59.0880   14.9800 N.3    85  VAL85      -0.1245
     10  CA        68.5360  -57.9880   14.4270 C.3    85  VAL85       0.1561
     11  C         67.6210  -56.8770   13.8930 C.2    85  VAL85       0.2260
     12  O         67.8250  -55.6910   14.1770 O.2    85  VAL85      -0.2867
     13  CB        69.6510  -58.4410   13.4090 C.3    85  VAL85       0.0252
     14  CG1       69.6760  -59.9420   13.2550 C.3    85  VAL85       0.0019
     15  CG2       69.5060  -57.7470   12.0690 C.3    85  VAL85       0.0019
     16  N         67.4680  -53.2190   15.9690 N.3    89  ARG89      -0.1245
     17  CA        68.0670  -52.1030   15.2490 C.3    89  ARG89       0.1563
     18  C         67.0470  -51.0000   15.1110 C.2    89  ARG89       0.2260
     19  O         67.3490  -49.8250   15.3210 O.2    89  ARG89      -0.2867
     20  CB        68.5160  -52.5250   13.8540 C.3    89  ARG89       0.0307
     21  CG        69.7750  -53.3380   13.8280 C.3    89  ARG89       0.0489
     22  CD        70.9330  -52.5600   14.4060 C.3    89  ARG89       0.2205
     23  NE        72.1930  -53.2760   14.2320 N.pl3  89  ARG89      -0.0865
     24  CZ        73.3420  -52.9260   14.8000 C.cat  89  ARG89       0.5346
     25  NH1       73.3990  -51.8650   15.5920 N.pl3  89  ARG89       0.1354
     26  NH2       74.4360  -53.6410   14.5700 N.pl3  89  ARG89       0.1354
     27  N         74.6290  -57.3900   -0.4720 N.3   317  TYR317     -0.1227
     28  CA        75.3420  -56.1430   -0.2180 C.3   317  TYR317      0.1736
     29  C         75.6220  -56.0110    1.2700 C.2   317  TYR317      0.2595
     30  O         76.7610  -56.0450    1.6910 O.2   317  TYR317     -0.2718
     31  CB        74.4860  -54.9960   -0.7280 C.3   317  TYR317      0.0548
     32  CG        74.9660  -53.5830   -0.5140 C.ar  317  TYR317     -0.0200
     33  CD1       74.5010  -52.8380    0.5510 C.ar  317  TYR317     -0.0009
     34  CD2       75.8120  -52.9650   -1.4200 C.ar  317  TYR317     -0.0009
     35  CE1       74.8880  -51.5300    0.7410 C.ar  317  TYR317      0.0417
     36  CE2       76.2070  -51.6460   -1.2440 C.ar  317  TYR317      0.0417
     37  CZ        75.7300  -50.9350   -0.1540 C.ar  317  TYR317      0.1957
     38  OH        76.0930  -49.6240    0.0640 O.3   317  TYR317     -0.2866
     39  N         74.5820  -55.8840    2.0740 N.am  318  VAL318     -0.1980
     40  CA        74.7700  -55.7850    3.5160 C.3   318  VAL318      0.1595
     41  C         75.5380  -57.0150    3.9990 C.2   318  VAL318      0.2287
     42  O         76.4920  -56.8950    4.7700 O.2   318  VAL318     -0.2864
     43  CB        73.4120  -55.6140    4.2800 C.3   318  VAL318      0.0276
     44  CG1       73.6020  -55.7320    5.7780 C.3   318  VAL318      0.0022
     45  CG2       72.7680  -54.2860    3.9370 C.3   318  VAL318      0.0022
     46  N         79.1880  -56.3610    3.4310 N.3   321  LEU321     -0.1231
     47  CA        79.8470  -55.2820    4.1330 C.3   321  LEU321      0.1693
     48  C         79.8470  -55.5280    5.6290 C.2   321  LEU321      0.2592
     49  O         80.6120  -54.9060    6.3580 O.2   321  LEU321     -0.2718
     50  CB        79.2570  -53.9240    3.7770 C.3   321  LEU321      0.0284
     51  CG        77.8850  -53.5210    4.3000 C.3   321  LEU321      0.0019
     52  CD1       77.9200  -53.1540    5.7750 C.3   321  LEU321      0.0001
     53  CD2       77.4020  -52.3400    3.4820 C.3   321  LEU321      0.0001
     54  N         79.0150  -56.4560    6.0820 N.am  322  SER322     -0.1952
     55  CA        78.9070  -56.7360    7.5120 C.3   322  SER322      0.1924
     56  C         80.0620  -57.5800    7.9890 C.2   322  SER322      0.2314
     57  O         80.5840  -57.3710    9.0860 O.2   322  SER322     -0.2863
     58  CB        77.6270  -57.5050    7.8060 C.3   322  SER322      0.2116
     59  OG        77.7280  -58.8430    7.3360 O.3   322  SER322     -0.2180
     60  N         79.7060  -60.7140    8.6120 N.3   324  TYR324     -0.1241
     61  CA        79.1370  -61.7410    9.4700 C.3   324  TYR324      0.1605
     62  C         79.1980  -63.0910    8.7930 C.2   324  TYR324      0.2264
     63  O         79.1110  -63.1860    7.5690 O.2   324  TYR324     -0.2867
     64  CB        77.6750  -61.4260    9.7910 C.3   324  TYR324      0.0534
     65  CG        77.4590  -60.1390   10.5680 C.ar  324  TYR324     -0.0201
     66  CD1       78.5300  -59.3440   10.9470 C.ar  324  TYR324     -0.0009
     67  CD2       76.1780  -59.7280   10.9300 C.ar  324  TYR324     -0.0009
     68  CE1       78.3370  -58.1780   11.6490 C.ar  324  TYR324      0.0417
     69  CE2       75.9780  -58.5630   11.6420 C.ar  324  TYR324      0.0417
     70  CZ        77.0620  -57.7910   11.9930 C.ar  324  TYR324      0.1957
     71  OH        76.8690  -56.6220   12.6900 O.3   324  TYR324     -0.2866
     72  N         72.2620  -63.4560    6.7980 N.3   328  LEU328     -0.1245
     73  CA        71.1310  -62.5320    6.8940 C.3   328  LEU328      0.1561
     74  C         69.9580  -62.9670    6.0170 C.2   328  LEU328      0.2260
     75  O         70.1480  -63.6790    5.0260 O.2   328  LEU328     -0.2867
     76  CB        71.5690  -61.1290    6.4910 C.3   328  LEU328      0.0270
     77  CG        72.6220  -60.4760    7.3720 C.3   328  LEU328      0.0019
     78  CD1       73.0990  -59.1740    6.7420 C.3   328  LEU328      0.0001
     79  CD2       72.0390  -60.2410    8.7560 C.3   328  LEU328      0.0001
     80  N         72.2020  -40.0880    7.9110 N.3   350  PHE350     -0.1241
     81  CA        72.4040  -41.2910    7.1030 C.3   350  PHE350      0.1605
     82  C         73.1300  -40.8960    5.8340 C.2   350  PHE350      0.2264
     83  O         74.0930  -41.5460    5.4240 O.2   350  PHE350     -0.2867
     84  CB        71.0790  -41.9560    6.7480 C.3   350  PHE350      0.0534
     85  CG        71.2160  -43.3640    6.2140 C.ar  350  PHE350     -0.0203
     86  CD1       72.2230  -44.2050    6.6580 C.ar  350  PHE350     -0.0042
     87  CD2       70.3160  -43.8490    5.2700 C.ar  350  PHE350     -0.0042
     88  CE1       72.3290  -45.5080    6.1710 C.ar  350  PHE350     -0.0003
     89  CE2       70.4100  -45.1430    4.7820 C.ar  350  PHE350     -0.0003
     90  CZ        71.4140  -45.9760    5.2320 C.ar  350  PHE350     -0.0000
     91  N         76.8660  -40.0640    6.7870 N.3   353  LEU353     -0.1231
     92  CA        77.7100  -41.2300    7.0240 C.3   353  LEU353      0.1693
     93  C         77.9870  -42.0650    5.7510 C.2   353  LEU353      0.2592
     94  O         78.9950  -42.7680    5.6570 O.2   353  LEU353     -0.2718
     95  CB        77.1300  -42.1000    8.1420 C.3   353  LEU353      0.0284
     96  CG        75.9510  -43.0370    7.8450 C.3   353  LEU353      0.0019
     97  CD1       76.3770  -44.3060    7.0900 C.3   353  LEU353      0.0001
     98  CD2       75.2860  -43.4220    9.1420 C.3   353  LEU353      0.0001
     99  N         77.0980  -41.9790    4.7740 N.am  354  TYR354     -0.1976
    100  CA        77.1870  -42.8070    3.5690 C.3   354  TYR354      0.1639
    101  C         78.0990  -42.2100    2.4950 C.2   354  TYR354      0.2290
    102  O         78.1700  -42.7200    1.3900 O.2   354  TYR354     -0.2864
    103  CB        75.7840  -43.0500    2.9710 C.3   354  TYR354      0.0560
    104  CG        75.4520  -44.5030    2.6600 C.ar  354  TYR354     -0.0198
    105  CD1       76.2100  -45.2390    1.7670 C.ar  354  TYR354     -0.0009
    106  CD2       74.3650  -45.1290    3.2450 C.ar  354  TYR354     -0.0009
    107  CE1       75.9090  -46.5550    1.4780 C.ar  354  TYR354      0.0417
    108  CE2       74.0550  -46.4550    2.9550 C.ar  354  TYR354      0.0417
    109  CZ        74.8350  -47.1570    2.0720 C.ar  354  TYR354      0.1957
    110  OH        74.5480  -48.4710    1.7790 O.3   354  TYR354     -0.2866
    111  N         81.0130  -42.5400    1.1280 N.3   356  TRP356     -0.1241
    112  CA        82.0730  -43.5370    1.1230 C.3   356  TRP356      0.1605
    113  C         83.0760  -43.3780   -0.0130 C.2   356  TRP356      0.2264
    114  O         83.4440  -44.3580   -0.6590 O.2   356  TRP356     -0.2867
    115  CB        81.4410  -44.9120    1.0030 C.3   356  TRP356      0.0550
    116  CG        80.6980  -45.3260    2.2090 C.ar  356  TRP356      0.0003
    117  CD1       80.6530  -44.6820    3.4170 C.ar  356  TRP356      0.0946
    118  CD2       79.8890  -46.4950    2.3410 C.ar  356  TRP356      0.0152
    119  NE1       79.8620  -45.3860    4.2890 N.ar  356  TRP356     -0.2442
    120  CE2       79.3850  -46.5050    3.6540 C.ar  356  TRP356      0.0810
    121  CE3       79.5510  -47.5410    1.4760 C.ar  356  TRP356      0.0012
    122  CZ2       78.5630  -47.5230    4.1240 C.ar  356  TRP356      0.0191
    123  CZ3       78.7310  -48.5440    1.9430 C.ar  356  TRP356      0.0001
    124  CH2       78.2510  -48.5350    3.2560 C.ar  356  TRP356      0.0015
    125  N         84.9900  -50.6360    7.8460 N.3   487  PHE487     -0.1241
    126  CA        84.3910  -49.5900    8.6640 C.3   487  PHE487      0.1605
    127  C         84.7410  -49.8030   10.1260 C.2   487  PHE487      0.2264
    128  O         84.9990  -50.9310   10.5500 O.2   487  PHE487     -0.2867
    129  CB        82.8550  -49.6660    8.6040 C.3   487  PHE487      0.0534
    130  CG        82.2760  -49.5030    7.2390 C.ar  487  PHE487     -0.0203
    131  CD1       82.7240  -48.5020    6.3900 C.ar  487  PHE487     -0.0042
    132  CD2       81.2680  -50.3530    6.8060 C.ar  487  PHE487     -0.0042
    133  CE1       82.1770  -48.3570    5.1260 C.ar  487  PHE487     -0.0003
    134  CE2       80.7230  -50.2170    5.5480 C.ar  487  PHE487     -0.0003
    135  CZ        81.1790  -49.2200    4.7050 C.ar  487  PHE487     -0.0000
    136  N         80.3980  -46.1570   12.2160 N.3   491  MET491     -0.1230
    137  CA        79.7680  -46.3280   10.9050 C.3   491  MET491      0.1702
    138  C         78.6970  -47.3930   10.9410 C.2   491  MET491      0.2592
    139  O         77.6000  -47.1890   10.4560 O.2   491  MET491     -0.2718
    140  CB        80.7900  -46.6980    9.8320 C.3   491  MET491      0.0401
    141  CG        80.2130  -46.7420    8.4290 C.3   491  MET491      0.0596
    142  SD        79.8440  -45.0860    7.8010 S.3   491  MET491     -0.1393
    143  CE        81.4910  -44.5310    7.3360 C.3   491  MET491      0.0692
    144  N         79.0060  -48.5370   11.5210 N.am  492  VAL492     -0.1980
    145  CA        78.0730  -49.6500   11.4880 C.3   492  VAL492      0.1595
    146  C         76.9320  -49.4920   12.4820 C.2   492  VAL492      0.2287
    147  O         75.8460  -50.0000   12.2620 O.2   492  VAL492     -0.2864
    148  CB        78.8040  -50.9900   11.7180 C.3   492  VAL492      0.0276
    149  CG1       77.8530  -52.0760   12.2140 C.3   492  VAL492      0.0022
    150  CG2       79.4830  -51.4160   10.4420 C.3   492  VAL492      0.0022
    151  N         74.6960  -46.7180   10.9540 N.3   495  GLY495     -0.1210
    152  CA        74.2390  -47.1160    9.6400 C.3   495  GLY495      0.1956
    153  C         73.1490  -48.1660    9.6290 C.2   495  GLY495      0.2611
    154  O         72.1190  -47.9660    8.9930 O.2   495  GLY495     -0.2717
    155  N         73.3700  -49.2810   10.3220 N.am  496  ALA496     -0.1979
    156  CA        72.4280  -50.3930   10.2740 C.3   496  ALA496      0.1597
    157  C         70.9960  -49.9730   10.5870 C.2   496  ALA496      0.2287
    158  O         70.0620  -50.3360    9.8520 O.2   496  ALA496     -0.2864
    159  CB        72.8610  -51.5140   11.1790 C.3   496  ALA496      0.0319
    160  N         69.6520  -48.0230    7.7920 N.3   499  SER499     -0.1202
    161  CA        69.5760  -48.8620    6.6110 C.3   499  SER499      0.2020
    162  C         68.4230  -49.8650    6.6600 C.2   499  SER499      0.2618
    163  O         67.7480  -50.0810    5.6530 O.2   499  SER499     -0.2717
    164  CB        70.8890  -49.6050    6.4010 C.3   499  SER499      0.2103
    165  OG        70.9590  -50.1380    5.0880 O.3   499  SER499     -0.2182
    166  N         68.2030  -50.4900    7.8140 N.am  500  LEU500     -0.1979
    167  CA        67.1930  -51.5330    7.9030 C.3   500  LEU500      0.1596
    168  C         65.7680  -50.9770    7.9610 C.2   500  LEU500      0.2287
    169  O         64.8260  -51.5910    7.4380 O.2   500  LEU500     -0.2864
    170  CB        67.4820  -52.4550    9.0750 C.3   500  LEU500      0.0297
    171  CG        68.7300  -53.2840    8.8180 C.3   500  LEU500      0.0022
    172  CD1       69.2650  -53.8750   10.1150 C.3   500  LEU500      0.0001
    173  CD2       68.4600  -54.3650    7.7620 C.3   500  LEU500      0.0001
@<TRIPOS>BOND
     1    34    36   ar
     2    34    32   ar
     3    36    37   ar
     4    31    32    1
     5    31    28    1
     6   114   113    2
     7    32    33   ar
     8    27    28    1
     9    28    29    1
    10    37    38    1
    11    37    35   ar
    12   113   112    1
    13    33    35   ar
    14   115   112    1
    15   115   116    1
    16   112   111    1
    17    29    30    2
    18    29    39   am
    19   102   101    2
    20   121   123   ar
    21   121   118   ar
    22   107   105   ar
    23   107   109   ar
    24   105   104   ar
    25   110   109    1
    26   123   124   ar
    27   109   108   ar
    28    39    40    1
    29   116   118   ar
    30   116   117   ar
    31   118   120   ar
    32   101   100    1
    33   104   103    1
    34   104   106   ar
    35   108   106   ar
    36   103   100    1
    37   124   122   ar
    38   117   119   ar
    39    46    47    1
    40    53    51    1
    41    40    41    1
    42    40    43    1
    43   100    99    1
    44   120   122   ar
    45   120   119   ar
    46    50    47    1
    47    50    51    1
    48    45    43    1
    49    41    42    2
    50    47    48    1
    51    43    44    1
    52    51    52    1
    53   135   133   ar
    54   135   134   ar
    55    99    93   am
    56    89    90   ar
    57    89    87   ar
    58    75    74    2
    59   165   164    1
    60   133   131   ar
    61    90    88   ar
    62    87    85   ar
    63    83    82    2
    64   134   132   ar
    65    48    54   am
    66    48    49    2
    67   163   162    2
    68    94    93    2
    69    93    92    1
    70    82    81    1
    71    74    73    1
    72    54    55    1
    73    88    86   ar
    74    85    86   ar
    75    85    84    1
    76   131   130   ar
    77   164   161    1
    78    76    73    1
    79    76    77    1
    80   161   162    1
    81   161   160    1
    82   162   166   am
    83    78    77    1
    84    84    81    1
    85    91    92    1
    86    72    73    1
    87   132   130   ar
    88    92    95    1
    89    97    96    1
    90    81    80    1
    91   130   129    1
    92   143   142    1
    93    59    58    1
    94    77    79    1
    95   169   168    2
    96    55    58    1
    97    55    56    1
    98    63    62    2
    99   173   171    1
   100   142   141    1
   101   166   167    1
   102    96    95    1
   103    96    98    1
   104   125   126    1
   105   167   168    1
   106   167   170    1
   107    56    57    2
   108     8     7    1
   109   141   140    1
   110   129   126    1
   111    60    61    1
   112   126   127    1
   113    62    61    1
   114   171   170    1
   115   171   172    1
   116   154   153    2
   117     7     6    1
   118     6     5    1
   119    61    64    1
   120   153   152    1
   121   153   155   am
   122   152   151    1
   123    64    65    1
   124   140   137    1
   125   158   157    2
   126   127   128    2
   127   156   155    1
   128   156   157    1
   129   156   159    1
   130   150   148    1
   131   139   138    2
   132     5     2    1
   133    65    67   ar
   134    65    66   ar
   135   137   138    1
   136   137   136    1
   137    67    69   ar
   138   138   144   am
   139    66    68   ar
   140   145   144    1
   141   145   148    1
   142   145   146    1
   143    69    70   ar
   144    68    70   ar
   145   148   149    1
   146     2     3    1
   147     2     1    1
   148    70    71    1
   149    15    13    1
   150   147   146    2
   151     3     4    2
   152    14    13    1
   153    13    10    1
   154    21    20    1
   155    21    22    1
   156    20    17    1
   157    11    12    2
   158    11    10    1
   159    23    22    1
   160    23    24    2
   161    10     9    1
   162    26    24    1
   163    24    25    1
   164    18    17    1
   165    18    19    2
   166    17    16    1
