@<TRIPOS>MOLECULE
tmp/3rrbA01.pdb
 139 132 0 0 0
SMALL
GASTEIGER

@<TRIPOS>ATOM
      1  N          3.1150   26.4340   46.5040 N.3   342  ASP342     -0.1239
      2  CA         1.8610   26.0120   45.8670 C.3   342  ASP342      0.1674
      3  C          0.7870   25.7460   46.9310 C.2   342  ASP342      0.2266
      4  O          1.0800   25.6100   48.1140 O.2   342  ASP342     -0.2867
      5  CB         2.0490   24.7360   45.0140 C.3   342  ASP342      0.1410
      6  CG         0.7690   24.3660   44.1540 C.2   342  ASP342      0.3668
      7  OD1       -0.0320   25.3090   43.8270 O.co2 342  ASP342     -0.2456
      8  OD2        0.5600   23.1390   43.8130 O.co2 342  ASP342     -0.2456
      9  N         -3.8870   29.3290   41.7620 N.3   366  HIS366     -0.1241
     10  CA        -5.0880   29.5980   40.9750 C.3   366  HIS366      0.1621
     11  C         -5.8070   30.8570   41.5480 C.2   366  HIS366      0.2264
     12  O         -5.4240   31.3580   42.6210 O.2   366  HIS366     -0.2867
     13  CB        -6.0130   28.3460   40.8510 C.3   366  HIS366      0.0745
     14  CG        -6.6500   27.9120   42.1290 C.ar  366  HIS366      0.0817
     15  ND1       -7.4950   28.7350   42.8490 N.ar  366  HIS366     -0.2268
     16  CD2       -6.5400   26.7610   42.8380 C.ar  366  HIS366      0.1154
     17  CE1       -7.8950   28.0960   43.9430 C.ar  366  HIS366      0.1986
     18  NE2       -7.3380   26.8950   43.9570 N.ar  366  HIS366     -0.2212
     19  N         -6.9010   31.0370   45.2870 N.3   369  GLU369     -0.1245
     20  CA        -5.7400   31.2650   46.1290 C.3   369  GLU369      0.1567
     21  C         -5.1480   32.6740   45.9480 C.2   369  GLU369      0.2260
     22  O         -4.6740   33.2710   46.9100 O.2   369  GLU369     -0.2867
     23  CB        -4.6630   30.1970   45.8750 C.3   369  GLU369      0.0388
     24  CG        -5.1040   28.8090   46.2890 C.3   369  GLU369      0.1160
     25  CD        -4.3770   27.6650   45.5500 C.2   369  GLU369      0.3649
     26  OE1       -3.7250   27.9240   44.5270 O.co2 369  GLU369     -0.2457
     27  OE2       -4.4590   26.5020   45.9980 O.co2 369  GLU369     -0.2457
     28  N         -2.5690   30.5110   37.5570 N.3   402  LYS402     -0.1231
     29  CA        -3.1070   29.4000   36.7760 C.3   402  LYS402      0.1693
     30  C         -4.5260   29.6870   36.2460 C.2   402  LYS402      0.2593
     31  O         -5.3150   30.3550   36.9320 O.2   402  LYS402     -0.2718
     32  CB        -3.0960   28.1540   37.6440 C.3   402  LYS402      0.0285
     33  CG        -1.6960   27.8160   38.1030 C.3   402  LYS402      0.0035
     34  CD        -1.5400   26.4470   38.7010 C.3   402  LYS402      0.0206
     35  CE        -1.9080   26.3520   40.1590 C.3   402  LYS402      0.1093
     36  NZ        -1.2020   25.1940   40.7300 N.3   402  LYS402     -0.1314
     37  N         -4.8010   29.2690   35.0100 N.am  403  SER403     -0.1938
     38  CA        -6.1160   29.3220   34.3990 C.3   403  SER403      0.2055
     39  C         -5.9790   28.7940   32.9780 C.2   403  SER403      0.2642
     40  O         -4.8810   28.3970   32.5350 O.2   403  SER403     -0.2714
     41  CB        -6.6430   30.7590   34.3600 C.3   403  SER403      0.2130
     42  OG        -7.2710   31.1810   35.5490 O.3   403  SER403     -0.2179
     43  N         -7.0630   28.8290   32.2190 N.am  404  ALA404     -0.1977
     44  CA        -7.0320   28.2310   30.9050 C.3   404  ALA404      0.1597
     45  C         -5.9850   28.9630   30.0730 C.2   404  ALA404      0.2287
     46  O         -5.2430   28.3080   29.3580 O.2   404  ALA404     -0.2864
     47  CB        -8.4210   28.1330   30.2510 C.3   404  ALA404      0.0319
     48  N         -2.6650   30.8070   31.3080 N.3   406  THR406     -0.1218
     49  CA        -1.8650   31.0610   32.4890 C.3   406  THR406      0.1862
     50  C         -0.9110   32.2340   32.2210 C.2   406  THR406      0.2287
     51  O         -0.3430   32.3770   31.1130 O.2   406  THR406     -0.2866
     52  CB        -1.1150   29.7640   32.8670 C.3   406  THR406      0.1770
     53  OG1       -2.0830   28.8190   33.3750 O.3   406  THR406     -0.2211
     54  CG2        0.0090   30.0120   33.8730 C.3   406  THR406      0.0375
     55  N         -1.4910   26.5930   25.8760 N.3   419  THR419     -0.1203
     56  CA        -1.6390   25.1750   25.7020 C.3   419  THR419      0.1994
     57  C         -2.5450   24.6260   26.7920 C.2   419  THR419      0.2618
     58  O         -2.8130   25.2950   27.8070 O.2   419  THR419     -0.2717
     59  CB        -0.2630   24.4570   25.7210 C.3   419  THR419      0.1784
     60  OG1        0.3590   24.6640   26.9990 O.3   419  THR419     -0.2211
     61  CG2        0.6140   25.0040   24.6330 C.3   419  THR419      0.0376
     62  N         -3.0020   23.3920   26.5970 N.am  420  GLY420     -0.1942
     63  CA        -3.8490   22.7380   27.5800 C.3   420  GLY420      0.2014
     64  C         -5.2750   22.6010   27.1270 C.2   420  GLY420      0.2639
     65  O         -5.6360   23.0640   26.0280 O.2   420  GLY420     -0.2714
     66  N         -6.0860   21.9200   27.9500 N.am  421  ASN421     -0.1958
     67  CA        -7.5150   21.7670   27.6170 C.3   421  ASN421      0.1819
     68  C         -8.2280   21.4550   28.8870 C.2   421  ASN421      0.2621
     69  O         -7.5850   21.4260   29.9140 O.2   421  ASN421     -0.2715
     70  CB        -7.7380   20.6820   26.5550 C.3   421  ASN421      0.1195
     71  CG        -7.2750   19.3100   27.0050 C.2   421  ASN421      0.2630
     72  OD1       -7.4000   18.9310   28.1840 O.2   421  ASN421     -0.2716
     73  ND2       -6.7850   18.5250   26.0510 N.am  421  ASN421     -0.0877
     74  N         -9.5370   21.1900   28.8240 N.am  422  THR422     -0.1951
     75  CA       -10.3430   21.0560   30.0500 C.3   422  THR422      0.1897
     76  C        -10.0270   19.7810   30.8540 C.2   422  THR422      0.2313
     77  O        -10.5050   19.6170   31.9830 O.2   422  THR422     -0.2863
     78  CB       -11.8360   21.0920   29.7820 C.3   422  THR422      0.1794
     79  OG1      -12.2210   19.8420   29.1830 O.3   422  THR422     -0.2208
     80  CG2      -12.2030   22.3030   28.9130 C.3   422  THR422      0.0378
     81  N         -7.3330   19.2160   32.2840 N.3   424  LEU424     -0.1231
     82  CA        -6.5300   19.6510   33.4160 C.3   424  LEU424      0.1693
     83  C         -7.4260   20.2540   34.5200 C.2   424  LEU424      0.2593
     84  O         -6.9560   20.6450   35.5960 O.2   424  LEU424     -0.2718
     85  CB        -5.5070   20.6750   32.9120 C.3   424  LEU424      0.0284
     86  CG        -4.3960   20.2280   31.9450 C.3   424  LEU424      0.0019
     87  CD1       -3.6020   21.4220   31.4220 C.3   424  LEU424      0.0001
     88  CD2       -3.4780   19.2130   32.6420 C.3   424  LEU424      0.0001
     89  N         -8.7270   20.3450   34.2550 N.am  425  SER425     -0.1938
     90  CA        -9.6850   20.9030   35.2250 C.3   425  SER425      0.2055
     91  C        -10.1280   19.8270   36.1840 C.2   425  SER425      0.2643
     92  O        -11.3070   19.4710   36.2420 O.2   425  SER425     -0.2714
     93  CB       -10.8850   21.4480   34.4880 C.3   425  SER425      0.2130
     94  OG       -10.4440   22.4040   33.5560 O.3   425  SER425     -0.2179
     95  N         -9.1770   19.3100   36.9420 N.am  426  LYS426     -0.1963
     96  CA        -9.3960   18.1090   37.7170 C.3   426  LYS426      0.1728
     97  C         -8.3160   18.2040   38.7620 C.2   426  LYS426      0.2617
     98  O         -7.1840   18.5370   38.4280 O.2   426  LYS426     -0.2715
     99  CB        -9.1870   16.8780   36.8130 C.3   426  LYS426      0.0311
    100  CG       -10.0930   15.7400   37.0660 C.3   426  LYS426      0.0038
    101  CD        -9.9230   14.5600   36.0630 C.3   426  LYS426      0.0206
    102  CE       -10.9860   14.4670   34.9350 C.3   426  LYS426      0.1093
    103  NZ       -10.5740   15.1250   33.5930 N.3   426  LYS426     -0.1314
    104  N         -8.6150   17.8570   39.9950 N.am  427  GLY427     -0.1940
    105  CA        -7.6210   17.9550   41.0310 C.3   427  GLY427      0.2014
    106  C         -6.4170   17.0860   40.7520 C.2   427  GLY427      0.2639
    107  O         -6.5200   16.0050   40.2120 O.2   427  GLY427     -0.2714
    108  N         -5.2600   17.5980   41.1280 N.am  428  GLY428     -0.1939
    109  CA        -3.9940   16.9350   40.9410 C.3   428  GLY428      0.2014
    110  C         -3.2020   17.3950   39.7400 C.2   428  GLY428      0.2640
    111  O         -2.0110   17.1890   39.6960 O.2   428  GLY428     -0.2714
    112  N         -3.8320   18.0570   38.7870 N.am  429  SER429     -0.1935
    113  CA        -3.0720   18.5880   37.6710 C.3   429  SER429      0.2055
    114  C         -2.1280   19.6730   38.1510 C.2   429  SER429      0.2643
    115  O         -1.0200   19.8020   37.6780 O.2   429  SER429     -0.2714
    116  CB        -3.9450   19.0140   36.4970 C.3   429  SER429      0.2130
    117  OG        -4.9310   19.9280   36.8650 O.3   429  SER429     -0.2179
    118  N         -2.5930   20.4520   39.1060 N.am  430  GLY430     -0.1954
    119  CA        -1.7910   21.4870   39.7040 C.3   430  GLY430      0.1869
    120  C         -0.5860   20.9200   40.4050 C.2   430  GLY430      0.2309
    121  O          0.4700   21.5010   40.3700 O.2   430  GLY430     -0.2863
    122  N          2.2170   20.1880   37.9990 N.3   433  LEU433     -0.1245
    123  CA         2.9170   21.4140   37.5540 C.3   433  LEU433      0.1561
    124  C          3.9760   21.8880   38.5370 C.2   433  LEU433      0.2260
    125  O          5.0900   22.2570   38.1310 O.2   433  LEU433     -0.2867
    126  CB         1.9550   22.5650   37.3070 C.3   433  LEU433      0.0270
    127  CG         2.5760   23.8600   36.7680 C.3   433  LEU433      0.0019
    128  CD1        3.0830   23.6460   35.3370 C.3   433  LEU433      0.0001
    129  CD2        1.5200   24.9400   36.8180 C.3   433  LEU433      0.0001
    130  N          3.2130   21.1930   30.3350 N.3   458  HIS458     -0.1241
    131  CA         2.0940   20.6810   31.1470 C.3   458  HIS458      0.1621
    132  C          0.8240   20.7240   30.3310 C.2   458  HIS458      0.2264
    133  O          0.1410   19.7340   30.2550 O.2   458  HIS458     -0.2867
    134  CB         2.0130   21.5410   32.3720 C.3   458  HIS458      0.0745
    135  CG         0.8760   21.2500   33.2690 C.ar  458  HIS458      0.0817
    136  ND1       -0.2320   22.0740   33.3430 N.ar  458  HIS458     -0.2268
    137  CD2        0.7450   20.3390   34.2650 C.ar  458  HIS458      0.1154
    138  CE1       -1.0220   21.6320   34.3030 C.ar  458  HIS458      0.1986
    139  NE2       -0.4550   20.5860   34.8780 N.ar  458  HIS458     -0.2212
@<TRIPOS>BOND
     1    61    59    1
     2    56    59    1
     3    56    55    1
     4    56    57    1
     5    59    60    1
     6    65    64    2
     7    73    71   am
     8    70    71    1
     9    70    67    1
    10    62    57   am
    11    62    63    1
    12    57    58    2
    13    71    72    2
    14    64    63    1
    15    64    66   am
    16    67    66    1
    17    67    68    1
    18    74    68   am
    19    74    75    1
    20    68    69    2
    21    80    78    1
    22    79    78    1
    23    46    45    2
    24    78    75    1
    25    75    76    1
    26    45    44    1
    27    47    44    1
    28   133   132    2
    29   132   131    1
    30   130   131    1
    31    76    77    2
    32    44    43    1
    33    51    50    2
    34   131   134    1
    35    48    49    1
    36    87    86    1
    37    86    88    1
    38    86    85    1
    39    43    39   am
    40    50    49    1
    41    81    82    1
    42   134   135    1
    43    49    52    1
    44    40    39    2
    45    52    53    1
    46    52    54    1
    47    85    82    1
    48    39    38    1
    49   135   136   ar
    50   135   137   ar
    51   136   138   ar
    52    82    83    1
    53    94    93    1
    54   103   102    1
    55    89    83   am
    56    89    90    1
    57   137   139   ar
    58   138   139   ar
    59    41    38    1
    60    41    42    1
    61    38    37    1
    62    93    90    1
    63    83    84    2
    64   102   101    1
    65    37    30   am
    66    90    91    1
    67   128   127    1
    68   101   100    1
    69    91    92    2
    70    91    95   am
    71    30    29    1
    72    30    31    2
    73   116   117    1
    74   116   113    1
    75   127   129    1
    76   127   126    1
    77    29    28    1
    78    29    32    1
    79    99   100    1
    80    99    96    1
    81    95    96    1
    82   126   123    1
    83   123   122    1
    84   123   124    1
    85    32    33    1
    86   113   114    1
    87   113   112    1
    88   115   114    2
    89    96    97    1
    90    33    34    1
    91   125   124    2
    92   114   118   am
    93    98    97    2
    94    34    35    1
    95    97   104   am
    96   112   110   am
    97   118   119    1
    98   111   110    2
    99   119   120    1
   100   110   109    1
   101   104   105    1
   102    35    36    1
   103   107   106    2
   104   121   120    2
   105   106   105    1
   106   106   108   am
   107    13    10    1
   108    13    14    1
   109   109   108    1
   110    10    11    1
   111    10     9    1
   112    11    12    2
   113    14    16   ar
   114    14    15   ar
   115    16    18   ar
   116    15    17   ar
   117     8     6   ar
   118     7     6   ar
   119    17    18   ar
   120     6     5    1
   121    26    25   ar
   122     5     2    1
   123    19    20    1
   124    25    27   ar
   125    25    24    1
   126     2     1    1
   127     2     3    1
   128    23    20    1
   129    23    24    1
   130    21    20    1
   131    21    22    2
   132     3     4    2
