@<TRIPOS>MOLECULE
tmp/3rreA02.pdb
 151 147 0 0 0
SMALL
GASTEIGER

@<TRIPOS>ATOM
      1  N         -0.8060  -50.6140  -19.2210 N.3     2  LYS2       -0.1245
      2  CA        -1.2480  -51.9130  -18.6980 C.3     2  LYS2        0.1561
      3  C         -0.0350  -52.8620  -18.5720 C.2     2  LYS2        0.2260
      4  O          0.0850  -53.5950  -17.5840 O.2     2  LYS2       -0.2867
      5  CB        -2.3540  -52.5100  -19.5680 C.3     2  LYS2        0.0271
      6  CG        -3.5530  -53.0110  -18.7890 C.3     2  LYS2        0.0035
      7  CD        -3.2160  -54.2360  -17.9230 C.3     2  LYS2        0.0206
      8  CE        -4.4850  -55.0050  -17.5840 C.3     2  LYS2        0.1093
      9  NZ        -5.2000  -55.3970  -18.8160 N.3     2  LYS2       -0.1314
     10  N        -17.0880  -53.5290  -11.1030 N.3    49  GLY49      -0.1210
     11  CA       -16.4700  -54.7740  -10.7200 C.3    49  GLY49       0.1956
     12  C        -14.9850  -54.9610  -10.9790 C.2    49  GLY49       0.2612
     13  O        -14.4090  -55.9350  -10.5030 O.2    49  GLY49      -0.2717
     14  N        -14.3520  -54.0530  -11.7090 N.am   50  GLY50      -0.1942
     15  CA       -12.9560  -54.2080  -12.0570 C.3    50  GLY50       0.2014
     16  C        -12.0170  -53.4680  -11.1460 C.2    50  GLY50       0.2639
     17  O        -12.3850  -53.0210  -10.0440 O.2    50  GLY50      -0.2714
     18  N        -10.7910  -53.2900  -11.6070 N.am   51  ASN51      -0.1958
     19  CA        -9.8410  -52.6160  -10.7640 C.3    51  ASN51       0.1819
     20  C        -10.0830  -51.1120  -10.6430 C.2    51  ASN51       0.2621
     21  O         -9.6080  -50.4930   -9.7140 O.2    51  ASN51      -0.2715
     22  CB        -8.4280  -52.8690  -11.2600 C.3    51  ASN51       0.1195
     23  CG        -7.9580  -54.3470  -11.0410 C.2    51  ASN51       0.2630
     24  OD1       -8.5270  -55.1720  -10.2450 O.2    51  ASN51      -0.2716
     25  ND2       -6.9430  -54.6950  -11.8180 N.am   51  ASN51      -0.0877
     26  N        -10.7930  -50.5100  -11.5930 N.am   52  ASN52      -0.1972
     27  CA       -11.2050  -49.1400  -11.4020 C.3    52  ASN52       0.1688
     28  C        -12.1170  -49.0810  -10.1570 C.2    52  ASN52       0.2292
     29  O        -11.9360  -48.2280   -9.2580 O.2    52  ASN52      -0.2864
     30  CB       -11.9190  -48.5880  -12.6480 C.3    52  ASN52       0.1181
     31  CG       -11.9220  -47.0910  -12.7030 C.2    52  ASN52       0.2629
     32  OD1      -12.9890  -46.4520  -12.6770 O.2    52  ASN52      -0.2716
     33  ND2      -10.7570  -46.5210  -12.9150 N.am   52  ASN52      -0.0877
     34  N        -21.2730  -57.0900  -11.4920 N.3    77  LYS77      -0.1231
     35  CA       -21.8630  -58.3800  -11.1280 C.3    77  LYS77       0.1693
     36  C        -20.8690  -59.4790  -10.7960 C.2    77  LYS77       0.2591
     37  O        -21.2420  -60.6640  -10.8050 O.2    77  LYS77      -0.2718
     38  CB       -22.8360  -58.8880  -12.2170 C.3    77  LYS77       0.0285
     39  CG       -22.4110  -58.6740  -13.6750 C.3    77  LYS77       0.0035
     40  CD       -21.2880  -59.6210  -14.1540 C.3    77  LYS77       0.0206
     41  CE       -21.4420  -59.9030  -15.6600 C.3    77  LYS77       0.1093
     42  NZ       -20.1820  -60.3800  -16.2910 N.3    77  LYS77      -0.1314
     43  N        -19.6290  -59.1050  -10.5650 N.am   78  LYS78      -0.1980
     44  CA       -18.5660  -59.9730  -10.0810 C.3    78  LYS78       0.1596
     45  C        -17.3840  -59.0170   -9.8470 C.2    78  LYS78       0.2287
     46  O        -17.3820  -57.9040  -10.3640 O.2    78  LYS78      -0.2864
     47  CB       -18.1860  -61.0870  -11.0560 C.3    78  LYS78       0.0298
     48  CG       -17.2190  -60.6800  -12.1860 C.3    78  LYS78       0.0038
     49  CD       -17.3240  -61.6520  -13.3850 C.3    78  LYS78       0.0206
     50  CE       -16.1610  -61.4910  -14.3900 C.3    78  LYS78       0.1093
     51  NZ       -16.4270  -62.2460  -15.6830 N.3    78  LYS78      -0.1314
     52  N        -13.0900  -58.3830   -9.4950 N.3    80  THR80      -0.1218
     53  CA       -11.7370  -58.8660   -9.6520 C.3    80  THR80       0.1862
     54  C        -11.1730  -59.1130   -8.2350 C.2    80  THR80       0.2287
     55  O        -11.7170  -58.6100   -7.2530 O.2    80  THR80      -0.2866
     56  CB       -10.8310  -57.8610  -10.3630 C.3    80  THR80       0.1770
     57  OG1      -10.7950  -56.6450   -9.6090 O.3    80  THR80      -0.2211
     58  CG2      -11.3040  -57.5600  -11.7730 C.3    80  THR80       0.0375
     59  N        -16.4660  -46.3930  -12.0150 N.3   116  ILE116     -0.1231
     60  CA       -17.2420  -47.4190  -12.7160 C.3   116  ILE116      0.1692
     61  C        -16.3470  -48.1730  -13.7160 C.2   116  ILE116      0.2592
     62  O        -16.0800  -49.3640  -13.5370 O.2   116  ILE116     -0.2718
     63  CB       -18.4660  -46.8100  -13.4490 C.3   116  ILE116      0.0266
     64  CG1      -19.3310  -46.0320  -12.4610 C.3   116  ILE116      0.0019
     65  CG2      -19.2770  -47.9600  -14.1240 C.3   116  ILE116      0.0020
     66  CD1      -20.5210  -45.2140  -13.1200 C.3   116  ILE116      0.0001
     67  N        -15.8680  -47.4750  -14.7400 N.am  117  PHE117     -0.1962
     68  CA       -14.9100  -48.0380  -15.7240 C.3   117  PHE117      0.1771
     69  C        -13.6470  -47.1840  -15.8680 C.2   117  PHE117      0.2620
     70  O        -13.7030  -45.9490  -15.9770 O.2   117  PHE117     -0.2715
     71  CB       -15.5320  -48.1260  -17.1330 C.3   117  PHE117      0.0574
     72  CG       -16.8520  -48.8420  -17.1900 C.ar  117  PHE117     -0.0200
     73  CD1      -16.9660  -50.1640  -16.7710 C.ar  117  PHE117     -0.0042
     74  CD2      -17.9890  -48.2020  -17.6770 C.ar  117  PHE117     -0.0042
     75  CE1      -18.1900  -50.8370  -16.8510 C.ar  117  PHE117     -0.0003
     76  CE2      -19.2230  -48.8620  -17.7340 C.ar  117  PHE117     -0.0003
     77  CZ       -19.3170  -50.1740  -17.3160 C.ar  117  PHE117     -0.0000
     78  N        -12.4960  -47.8440  -15.9220 N.am  118  GLY118     -0.1940
     79  CA       -11.2530  -47.1590  -16.2870 C.3   118  GLY118      0.2014
     80  C        -10.7650  -47.5570  -17.6890 C.2   118  GLY118      0.2640
     81  O        -11.5070  -47.4430  -18.6760 O.2   118  GLY118     -0.2714
     82  N         -9.5300  -48.0460  -17.7730 N.am  119  THR119     -0.1936
     83  CA        -8.9460  -48.4220  -19.0580 C.3   119  THR119      0.2028
     84  C         -9.4820  -49.7760  -19.5240 C.2   119  THR119      0.2643
     85  O         -9.1830  -50.1980  -20.6170 O.2   119  THR119     -0.2714
     86  CB        -7.4180  -48.4770  -18.9810 C.3   119  THR119      0.1808
     87  OG1       -7.0470  -49.4940  -18.0450 O.3   119  THR119     -0.2208
     88  CG2       -6.8470  -47.1360  -18.5440 C.3   119  THR119      0.0379
     89  N        -10.2880  -50.4390  -18.6940 N.am  120  GLY120     -0.1939
     90  CA       -10.8570  -51.7380  -19.0060 C.3   120  GLY120      0.2014
     91  C        -12.1760  -51.6480  -19.7650 C.2   120  GLY120      0.2639
     92  O        -12.7760  -52.6810  -20.0910 O.2   120  GLY120     -0.2714
     93  N        -12.6320  -50.4300  -20.0370 N.am  121  LEU121     -0.1963
     94  CA       -13.8220  -50.1910  -20.8600 C.3   121  LEU121      0.1728
     95  C        -13.6880  -50.8520  -22.2070 C.2   121  LEU121      0.2616
     96  O        -12.6820  -50.6930  -22.8500 O.2   121  LEU121     -0.2715
     97  CB       -13.9920  -48.6940  -21.0920 C.3   121  LEU121      0.0311
     98  CG       -15.1690  -48.2510  -21.9670 C.3   121  LEU121      0.0022
     99  CD1      -16.4740  -48.5080  -21.3220 C.3   121  LEU121      0.0001
    100  CD2      -15.0010  -46.7580  -22.3270 C.3   121  LEU121      0.0001
    101  N        -14.7140  -51.6010  -22.6100 N.am  122  ARG122     -0.1963
    102  CA       -14.7650  -52.2540  -23.9020 C.3   122  ARG122      0.1729
    103  C        -16.1950  -52.1300  -24.4510 C.2   122  ARG122      0.2617
    104  O        -17.1550  -52.6570  -23.8470 O.2   122  ARG122     -0.2715
    105  CB       -14.3750  -53.7370  -23.7830 C.3   122  ARG122      0.0348
    106  CG       -12.9320  -53.9580  -23.3110 C.3   122  ARG122      0.0492
    107  CD       -11.8770  -53.5510  -24.3980 C.3   122  ARG122      0.2205
    108  NE       -10.5270  -53.8780  -23.9050 N.pl3 122  ARG122     -0.0865
    109  CZ        -9.7700  -53.0970  -23.1210 C.cat 122  ARG122      0.5346
    110  NH1      -10.1830  -51.8860  -22.7370 N.pl3 122  ARG122      0.1354
    111  NH2       -8.5740  -53.5310  -22.7280 N.pl3 122  ARG122      0.1354
    112  N        -16.3370  -51.3950  -25.5480 N.am  123  GLY123     -0.1940
    113  CA       -17.6230  -51.2520  -26.1520 C.3   123  GLY123      0.2014
    114  C        -18.4810  -50.1500  -25.5710 C.2   123  GLY123      0.2639
    115  O        -18.1800  -49.5420  -24.4940 O.2   123  GLY123     -0.2714
    116  N        -19.5620  -49.9010  -26.3060 N.am  124  GLU124     -0.1963
    117  CA       -20.5610  -48.8920  -25.9590 C.3   124  GLU124      0.1733
    118  C        -21.1490  -49.1980  -24.5750 C.2   124  GLU124      0.2616
    119  O        -21.3330  -50.3510  -24.2270 O.2   124  GLU124     -0.2715
    120  CB       -21.7060  -48.8900  -26.9850 C.3   124  GLU124      0.0429
    121  CG       -21.2730  -48.7250  -28.4380 C.3   124  GLU124      0.1163
    122  CD       -20.9280  -47.2880  -28.8030 C.2   124  GLU124      0.3649
    123  OE1      -19.7420  -46.9830  -29.0380 O.co2 124  GLU124     -0.2457
    124  OE2      -21.8500  -46.4580  -28.8860 O.co2 124  GLU124     -0.2457
    125  N        -21.3810  -48.1490  -23.7930 N.am  125  ILE125     -0.1963
    126  CA       -22.0560  -48.2610  -22.4960 C.3   125  ILE125      0.1727
    127  C        -23.5640  -48.2230  -22.7510 C.2   125  ILE125      0.2616
    128  O        -24.0610  -47.3290  -23.4140 O.2   125  ILE125     -0.2715
    129  CB       -21.6610  -47.1150  -21.5300 C.3   125  ILE125      0.0290
    130  CG1      -20.1790  -47.2150  -21.1690 C.3   125  ILE125      0.0022
    131  CG2      -22.5370  -47.1170  -20.2570 C.3   125  ILE125      0.0023
    132  CD1      -19.6570  -46.0580  -20.2030 C.3   125  ILE125      0.0001
    133  N        -24.2760  -49.2060  -22.2260 N.am  126  THR126     -0.1951
    134  CA       -25.7300  -49.2490  -22.3180 C.3   126  THR126      0.1897
    135  C        -26.3710  -49.6020  -20.9740 C.2   126  THR126      0.2313
    136  O        -25.6830  -49.8830  -19.9750 O.2   126  THR126     -0.2863
    137  CB       -26.1600  -50.3430  -23.3230 C.3   126  THR126      0.1794
    138  OG1      -25.3210  -51.4940  -23.1130 O.3   126  THR126     -0.2208
    139  CG2      -26.0640  -49.8450  -24.7530 C.3   126  THR126      0.0378
    140  N        -25.9860  -48.8450  -16.8040 N.3   129  TYR129     -0.1241
    141  CA       -24.7270  -48.1020  -16.7040 C.3   129  TYR129      0.1605
    142  C        -24.9050  -46.7370  -17.3550 C.2   129  TYR129      0.2264
    143  O        -24.5860  -45.7120  -16.7510 O.2   129  TYR129     -0.2867
    144  CB       -23.5460  -48.8330  -17.3380 C.3   129  TYR129      0.0534
    145  CG       -23.0130  -50.0210  -16.5800 C.ar  129  TYR129     -0.0201
    146  CD1      -22.2930  -49.8610  -15.3990 C.ar  129  TYR129     -0.0009
    147  CD2      -23.1910  -51.3160  -17.0630 C.ar  129  TYR129     -0.0009
    148  CE1      -21.7730  -50.9550  -14.7260 C.ar  129  TYR129      0.0417
    149  CE2      -22.6840  -52.4200  -16.3880 C.ar  129  TYR129      0.0417
    150  CZ       -21.9680  -52.2250  -15.2200 C.ar  129  TYR129      0.1957
    151  OH       -21.4560  -53.3320  -14.5620 O.3   129  TYR129     -0.2866
@<TRIPOS>BOND
     1   123   122   ar
     2   124   122   ar
     3   122   121    1
     4   121   120    1
     5   120   117    1
     6   116   117    1
     7   116   114   am
     8   113   114    1
     9   113   112    1
    10   117   118    1
    11   114   115    2
    12   112   103   am
    13   139   137    1
    14   118   119    2
    15   118   125   am
    16   103   102    1
    17   103   104    2
    18   107   108    1
    19   107   106    1
    20   108   109    2
    21   102   105    1
    22   102   101    1
    23   125   126    1
    24   105   106    1
    25   128   127    2
    26   137   138    1
    27   137   134    1
    28   109   110    1
    29   109   111    1
    30    96    95    2
    31   127   126    1
    32   127   133   am
    33   101    95   am
    34   126   129    1
    35   100    98    1
    36   134   133    1
    37   134   135    1
    38    95    94    1
    39    98    99    1
    40    98    97    1
    41   129   130    1
    42   129   131    1
    43   130   132    1
    44    97    94    1
    45   135   136    2
    46    94    93    1
    47    85    84    2
    48    92    91    2
    49    93    91   am
    50    91    90    1
    51     5     6    1
    52     5     2    1
    53    84    83    1
    54    84    89   am
    55     1     2    1
    56    83    86    1
    57    83    82    1
    58    90    89    1
    59    86    88    1
    60    86    87    1
    61     9     8    1
    62     6     7    1
    63     2     3    1
    64    81    80    2
    65     3     4    2
    66     7     8    1
    67    82    80   am
    68    76    74   ar
    69    76    77   ar
    70    80    79    1
    71    74    72   ar
    72   142   143    2
    73   142   141    1
    74   144   141    1
    75   144   145    1
    76    77    75   ar
    77    72    71    1
    78    72    73   ar
    79    71    68    1
    80   147   145   ar
    81   147   149   ar
    82    75    73   ar
    83   140   141    1
    84   145   146   ar
    85   149   150   ar
    86    42    41    1
    87    79    78    1
    88    70    69    2
    89    78    69   am
    90    69    68    1
    91    68    67    1
    92    51    50    1
    93    41    40    1
    94   146   148   ar
    95   150   148   ar
    96   150   151    1
    97    67    61   am
    98    50    49    1
    99    40    39    1
   100    65    63    1
   101    61    62    2
   102    61    60    1
   103    39    38    1
   104    63    60    1
   105    63    64    1
   106    49    48    1
   107    66    64    1
   108    33    31   am
   109    60    59    1
   110    31    32    2
   111    31    30    1
   112    30    27    1
   113    38    35    1
   114    48    47    1
   115    15    14    1
   116    15    16    1
   117    25    23   am
   118    58    56    1
   119    14    12   am
   120    18    16   am
   121    18    19    1
   122    26    27    1
   123    26    20   am
   124    34    35    1
   125    27    28    1
   126    22    23    1
   127    22    19    1
   128    16    17    2
   129    35    36    1
   130    10    11    1
   131    47    44    1
   132    23    24    2
   133    12    11    1
   134    12    13    2
   135    37    36    2
   136    36    43   am
   137    19    20    1
   138    20    21    2
   139    43    44    1
   140    46    45    2
   141    56    53    1
   142    56    57    1
   143    28    29    2
   144    44    45    1
   145    53    52    1
   146    53    54    1
   147    54    55    2
