@<TRIPOS>MOLECULE
tmp/3rrfA02.pdb
 159 151 0 0 0
SMALL
GASTEIGER

@<TRIPOS>ATOM
      1  N          3.0500  -26.4110  -46.5910 N.3   342  ASP342     -0.1225
      2  CA         1.7960  -26.0300  -45.9600 C.3   342  ASP342      0.1805
      3  C          0.7030  -25.7490  -47.0120 C.2   342  ASP342      0.2597
      4  O          0.9910  -25.4530  -48.2000 O.2   342  ASP342     -0.2718
      5  CB         2.0500  -24.7640  -45.1030 C.3   342  ASP342      0.1424
      6  CG         0.8580  -24.3590  -44.2300 C.2   342  ASP342      0.3668
      7  OD1        0.0330  -25.2730  -43.8450 O.co2 342  ASP342     -0.2456
      8  OD2        0.7640  -23.1010  -43.8800 O.co2 342  ASP342     -0.2456
      9  N         -0.5400  -25.8360  -46.5440 N.am  343  ALA343     -0.1979
     10  CA        -1.6950  -25.2360  -47.1930 C.3   343  ALA343      0.1597
     11  C         -1.7890  -25.6910  -48.6500 C.2   343  ALA343      0.2287
     12  O         -1.8320  -26.9010  -48.9370 O.2   343  ALA343     -0.2864
     13  CB        -1.6630  -23.6660  -47.0660 C.3   343  ALA343      0.0319
     14  N         -4.0410  -29.1930  -41.7340 N.3   366  HIS366     -0.1241
     15  CA        -5.2230  -29.4340  -40.8860 C.3   366  HIS366      0.1621
     16  C         -5.9310  -30.7170  -41.3770 C.2   366  HIS366      0.2264
     17  O         -5.5550  -31.2740  -42.4140 O.2   366  HIS366     -0.2867
     18  CB        -6.1810  -28.2120  -40.7700 C.3   366  HIS366      0.0745
     19  CG        -6.7810  -27.7390  -42.0630 C.ar  366  HIS366      0.0817
     20  ND1       -7.6980  -28.4910  -42.7700 N.ar  366  HIS366     -0.2268
     21  CD2       -6.6220  -26.5830  -42.7610 C.ar  366  HIS366      0.1154
     22  CE1       -8.0570  -27.8360  -43.8690 C.ar  366  HIS366      0.1986
     23  NE2       -7.4110  -26.6790  -43.9000 N.ar  366  HIS366     -0.2212
     24  N         -6.9630  -31.0050  -45.0900 N.3   369  GLU369     -0.1245
     25  CA        -5.8240  -31.1970  -45.9840 C.3   369  GLU369      0.1567
     26  C         -5.2310  -32.6060  -45.8900 C.2   369  GLU369      0.2260
     27  O         -4.8260  -33.1640  -46.8900 O.2   369  GLU369     -0.2867
     28  CB        -4.7260  -30.1370  -45.6580 C.3   369  GLU369      0.0388
     29  CG        -5.1620  -28.7410  -46.1190 C.3   369  GLU369      0.1160
     30  CD        -4.4400  -27.5730  -45.4220 C.2   369  GLU369      0.3649
     31  OE1       -3.7460  -27.7640  -44.4080 O.co2 369  GLU369     -0.2457
     32  OE2       -4.5760  -26.4470  -45.9040 O.co2 369  GLU369     -0.2457
     33  N         -2.6230  -30.5130  -37.3810 N.3   402  LYS402     -0.1231
     34  CA        -3.1600  -29.4100  -36.5890 C.3   402  LYS402      0.1693
     35  C         -4.5940  -29.6700  -36.1450 C.2   402  LYS402      0.2593
     36  O         -5.3870  -30.2110  -36.9120 O.2   402  LYS402     -0.2718
     37  CB        -3.0940  -28.1390  -37.4430 C.3   402  LYS402      0.0285
     38  CG        -1.6570  -27.8070  -37.7620 C.3   402  LYS402      0.0035
     39  CD        -1.3780  -26.4890  -38.4670 C.3   402  LYS402      0.0206
     40  CE        -2.1210  -26.3070  -39.7060 C.3   402  LYS402      0.1093
     41  NZ        -1.3530  -25.4480  -40.6850 N.3   402  LYS402     -0.1314
     42  N         -4.8990  -29.3640  -34.8970 N.am  403  SER403     -0.1938
     43  CA        -6.2590  -29.3740  -34.3750 C.3   403  SER403      0.2055
     44  C         -6.1000  -28.8620  -32.9700 C.2   403  SER403      0.2642
     45  O         -4.9880  -28.5130  -32.5820 O.2   403  SER403     -0.2714
     46  CB        -6.8870  -30.7840  -34.3740 C.3   403  SER403      0.2130
     47  OG        -7.2830  -31.1670  -35.6910 O.3   403  SER403     -0.2179
     48  N         -7.1920  -28.8410  -32.2050 N.am  404  ALA404     -0.1977
     49  CA        -7.1480  -28.2690  -30.8730 C.3   404  ALA404      0.1597
     50  C         -6.0550  -28.9650  -30.0530 C.2   404  ALA404      0.2287
     51  O         -5.3740  -28.3130  -29.2740 O.2   404  ALA404     -0.2864
     52  CB        -8.5140  -28.3550  -30.1950 C.3   404  ALA404      0.0319
     53  N         -2.6960  -30.8010  -31.2070 N.3   406  THR406     -0.1218
     54  CA        -1.9080  -31.0070  -32.3850 C.3   406  THR406      0.1862
     55  C         -0.9770  -32.1860  -32.1470 C.2   406  THR406      0.2287
     56  O         -0.4240  -32.3620  -31.0520 O.2   406  THR406     -0.2866
     57  CB        -1.1390  -29.6740  -32.7540 C.3   406  THR406      0.1770
     58  OG1       -2.1160  -28.7200  -33.2030 O.3   406  THR406     -0.2211
     59  CG2       -0.0450  -29.8910  -33.8780 C.3   406  THR406      0.0375
     60  N         -1.4720  -26.5670  -25.8140 N.3   419  THR419     -0.1203
     61  CA        -1.5980  -25.1330  -25.6270 C.3   419  THR419      0.1994
     62  C         -2.5000  -24.5870  -26.7040 C.2   419  THR419      0.2618
     63  O         -2.7220  -25.2200  -27.7170 O.2   419  THR419     -0.2717
     64  CB        -0.2230  -24.3920  -25.7200 C.3   419  THR419      0.1784
     65  OG1        0.2910  -24.5180  -27.0720 O.3   419  THR419     -0.2211
     66  CG2        0.7450  -24.9600  -24.6630 C.3   419  THR419      0.0376
     67  N         -3.0330  -23.3950  -26.4980 N.am  420  GLY420     -0.1942
     68  CA        -3.8630  -22.7490  -27.5320 C.3   420  GLY420      0.2014
     69  C         -5.2860  -22.5680  -27.0590 C.2   420  GLY420      0.2639
     70  O         -5.6460  -22.9590  -25.9350 O.2   420  GLY420     -0.2714
     71  N         -6.0770  -21.8830  -27.8700 N.am  421  ASN421     -0.1958
     72  CA        -7.5020  -21.7240  -27.5760 C.3   421  ASN421      0.1819
     73  C         -8.2060  -21.4530  -28.9130 C.2   421  ASN421      0.2621
     74  O         -7.5530  -21.5170  -29.9860 O.2   421  ASN421     -0.2715
     75  CB        -7.7520  -20.6220  -26.4930 C.3   421  ASN421      0.1195
     76  CG        -7.2450  -19.2630  -26.9230 C.2   421  ASN421      0.2630
     77  OD1       -7.3340  -18.9120  -28.0880 O.2   421  ASN421     -0.2716
     78  ND2       -6.7070  -18.4870  -25.9850 N.am  421  ASN421     -0.0877
     79  N         -9.5140  -21.1710  -28.8500 N.am  422  THR422     -0.1951
     80  CA       -10.2990  -20.9920  -30.0680 C.3   422  THR422      0.1897
     81  C        -10.0330  -19.6970  -30.8470 C.2   422  THR422      0.2313
     82  O        -10.5340  -19.5390  -31.9840 O.2   422  THR422     -0.2863
     83  CB       -11.7900  -21.0970  -29.8340 C.3   422  THR422      0.1794
     84  OG1      -12.2680  -19.8920  -29.1850 O.3   422  THR422     -0.2208
     85  CG2      -12.1020  -22.3860  -29.0360 C.3   422  THR422      0.0378
     86  N         -7.3590  -19.1960  -32.2650 N.3   424  LEU424     -0.1231
     87  CA        -6.5560  -19.6910  -33.3970 C.3   424  LEU424      0.1693
     88  C         -7.4190  -20.3240  -34.4930 C.2   424  LEU424      0.2593
     89  O         -6.9280  -20.6310  -35.5520 O.2   424  LEU424     -0.2718
     90  CB        -5.5550  -20.7310  -32.8810 C.3   424  LEU424      0.0284
     91  CG        -4.4560  -20.2750  -31.8970 C.3   424  LEU424      0.0019
     92  CD1       -3.6580  -21.5020  -31.4050 C.3   424  LEU424      0.0001
     93  CD2       -3.5750  -19.2420  -32.5890 C.3   424  LEU424      0.0001
     94  N         -8.7080  -20.5450  -34.2160 N.am  425  SER425     -0.1938
     95  CA        -9.6700  -21.0950  -35.1690 C.3   425  SER425      0.2055
     96  C        -10.1440  -19.9760  -36.0990 C.2   425  SER425      0.2643
     97  O        -11.3400  -19.5950  -36.1210 O.2   425  SER425     -0.2714
     98  CB       -10.8650  -21.6690  -34.4110 C.3   425  SER425      0.2130
     99  OG       -10.4370  -22.7460  -33.5530 O.3   425  SER425     -0.2179
    100  N         -9.2080  -19.4520  -36.8650 N.am  426  LYS426     -0.1963
    101  CA        -9.4490  -18.2750  -37.7120 C.3   426  LYS426      0.1728
    102  C         -8.3220  -18.1880  -38.7650 C.2   426  LYS426      0.2617
    103  O         -7.1260  -18.4330  -38.4580 O.2   426  LYS426     -0.2715
    104  CB        -9.3670  -17.0470  -36.7860 C.3   426  LYS426      0.0311
    105  CG       -10.0980  -15.8220  -37.2170 C.3   426  LYS426      0.0038
    106  CD        -9.8590  -14.5930  -36.2850 C.3   426  LYS426      0.0206
    107  CE       -10.9780  -14.3370  -35.2270 C.3   426  LYS426      0.1093
    108  NZ       -10.7700  -15.1130  -33.9480 N.3   426  LYS426     -0.1314
    109  N         -8.6840  -17.8350  -39.9890 N.am  427  GLY427     -0.1940
    110  CA        -7.7200  -17.6560  -41.0410 C.3   427  GLY427      0.2014
    111  C         -6.5010  -16.8420  -40.6340 C.2   427  GLY427      0.2639
    112  O         -6.5980  -15.7880  -40.0330 O.2   427  GLY427     -0.2714
    113  N         -5.3390  -17.3470  -41.0090 N.am  428  GLY428     -0.1939
    114  CA        -4.0660  -16.6750  -40.7810 C.3   428  GLY428      0.2014
    115  C         -3.2090  -17.3520  -39.7290 C.2   428  GLY428      0.2640
    116  O         -1.9840  -17.2480  -39.7660 O.2   428  GLY428     -0.2714
    117  N         -3.8510  -18.0910  -38.8350 N.am  429  SER429     -0.1935
    118  CA        -3.1810  -18.7630  -37.7000 C.3   429  SER429      0.2055
    119  C         -2.1390  -19.7420  -38.1750 C.2   429  SER429      0.2644
    120  O         -1.0250  -19.8020  -37.6410 O.2   429  SER429     -0.2714
    121  CB        -4.2300  -19.5670  -36.8710 C.3   429  SER429      0.2130
    122  OG        -5.0420  -18.5790  -36.2610 O.3   429  SER429     -0.2179
    123  N         -2.5520  -20.5470  -39.1230 N.am  430  GLY430     -0.1939
    124  CA        -1.7100  -21.5650  -39.7230 C.3   430  GLY430      0.2014
    125  C         -0.5080  -20.9560  -40.4240 C.2   430  GLY430      0.2638
    126  O          0.5870  -21.4960  -40.3860 O.2   430  GLY430     -0.2714
    127  N         -0.7200  -19.8450  -41.0970 N.am  431  ASP431     -0.1971
    128  CA         0.3350  -19.1870  -41.8320 C.3   431  ASP431      0.1709
    129  C          1.4430  -18.7650  -40.8580 C.2   431  ASP431      0.2293
    130  O          2.6030  -18.9350  -41.1340 O.2   431  ASP431     -0.2864
    131  CB        -0.1860  -17.9400  -42.5400 C.3   431  ASP431      0.1436
    132  CG        -1.2360  -18.2390  -43.6100 C.2   431  ASP431      0.3671
    133  OD1       -1.2930  -19.3840  -44.1160 O.co2 431  ASP431     -0.2456
    134  OD2       -1.9870  -17.2900  -43.9560 O.co2 431  ASP431     -0.2456
    135  N          2.1770  -20.1980  -37.9470 N.3   433  LEU433     -0.1245
    136  CA         2.8970  -21.3680  -37.4460 C.3   433  LEU433      0.1561
    137  C          3.9290  -21.8430  -38.4870 C.2   433  LEU433      0.2260
    138  O          5.0310  -22.2870  -38.1490 O.2   433  LEU433     -0.2867
    139  CB         1.9120  -22.5190  -37.1820 C.3   433  LEU433      0.0270
    140  CG         2.5440  -23.8210  -36.7250 C.3   433  LEU433      0.0019
    141  CD1        3.0720  -23.6920  -35.2900 C.3   433  LEU433      0.0001
    142  CD2        1.5080  -24.9590  -36.8140 C.3   433  LEU433      0.0001
    143  N          4.6800  -25.4280  -32.2000 N.3   455  VAL455     -0.1245
    144  CA         3.2680  -25.6530  -31.8840 C.3   455  VAL455      0.1561
    145  C          2.9400  -25.2140  -30.4600 C.2   455  VAL455      0.2260
    146  O          1.8770  -24.5970  -30.2160 O.2   455  VAL455     -0.2867
    147  CB         2.8080  -27.1200  -32.1340 C.3   455  VAL455      0.0252
    148  CG1        2.9020  -27.4550  -33.6190 C.3   455  VAL455      0.0019
    149  CG2        3.5310  -28.1480  -31.1710 C.3   455  VAL455      0.0019
    150  N          3.1420  -21.2340  -30.2770 N.3   458  HIS458     -0.1241
    151  CA         2.0270  -20.6770  -31.0810 C.3   458  HIS458      0.1621
    152  C          0.7360  -20.7000  -30.2760 C.2   458  HIS458      0.2264
    153  O          0.0110  -19.7080  -30.2190 O.2   458  HIS458     -0.2867
    154  CB         1.9230  -21.5310  -32.3250 C.3   458  HIS458      0.0745
    155  CG         0.8050  -21.2080  -33.2520 C.ar  458  HIS458      0.0817
    156  ND1       -0.3090  -22.0110  -33.3490 N.ar  458  HIS458     -0.2268
    157  CD2        0.7010  -20.2970  -34.2480 C.ar  458  HIS458      0.1154
    158  CE1       -1.0630  -21.5860  -34.3440 C.ar  458  HIS458      0.1986
    159  NE2       -0.4820  -20.5410  -34.8990 N.ar  458  HIS458     -0.2212
@<TRIPOS>BOND
     1    12    11    2
     2    11    10    1
     3     4     3    2
     4    10    13    1
     5    10     9    1
     6     3     9   am
     7     3     2    1
     8    27    26    2
     9     1     2    1
    10    29    28    1
    11    29    30    1
    12    25    26    1
    13    25    28    1
    14    25    24    1
    15     2     5    1
    16    32    30   ar
    17    30    31   ar
    18     5     6    1
    19     6     8   ar
    20     6     7   ar
    21   133   132   ar
    22   134   132   ar
    23    23    22   ar
    24    23    21   ar
    25    22    20   ar
    26   132   131    1
    27    20    19   ar
    28    21    19   ar
    29   131   128    1
    30    17    16    2
    31    19    18    1
    32   128   127    1
    33   128   129    1
    34    14    15    1
    35    16    15    1
    36   130   129    2
    37   127   125   am
    38   110   111    1
    39   110   109    1
    40   113   114    1
    41   113   111   am
    42    15    18    1
    43   114   115    1
    44    41    40    1
    45   111   112    2
    46   125   126    2
    47   125   124    1
    48   109   102   am
    49   116   115    2
    50   115   117   am
    51   124   123    1
    52    40    39    1
    53   123   119   am
    54   117   118    1
    55   102   103    2
    56   102   101    1
    57   137   138    2
    58   137   136    1
    59    39    38    1
    60   119   118    1
    61   119   120    2
    62   135   136    1
    63    38    37    1
    64   101   100    1
    65   101   104    1
    66   118   121    1
    67   136   139    1
    68    37    34    1
    69    33    34    1
    70   105   104    1
    71   105   106    1
    72   139   140    1
    73    36    35    2
    74   121   122    1
    75   100    96   am
    76   142   140    1
    77   140   141    1
    78    34    35    1
    79   106   107    1
    80    35    42   am
    81    97    96    2
    82    96    95    1
    83    47    46    1
    84    89    88    2
    85   107   108    1
    86    95    98    1
    87    95    94    1
    88   159   158   ar
    89   159   157   ar
    90    42    43    1
    91    88    94   am
    92    88    87    1
    93    98    99    1
    94    43    46    1
    95    43    44    1
    96   158   156   ar
    97   157   155   ar
    98    59    57    1
    99   148   147    1
   100    87    90    1
   101    87    86    1
   102   156   155   ar
   103   155   154    1
   104    58    57    1
   105    44    45    2
   106    44    48   am
   107    90    91    1
   108    57    54    1
   109    93    91    1
   110    54    55    1
   111    54    53    1
   112   154   151    1
   113    48    49    1
   114   143   144    1
   115    55    56    2
   116   147   144    1
   117   147   149    1
   118    82    81    2
   119    91    92    1
   120   144   145    1
   121   151   150    1
   122   151   152    1
   123    49    52    1
   124    49    50    1
   125    81    80    1
   126   145   146    2
   127   152   153    2
   128    80    83    1
   129    80    79    1
   130    50    51    2
   131    74    73    2
   132    83    84    1
   133    83    85    1
   134    73    79   am
   135    73    72    1
   136    77    76    2
   137    71    72    1
   138    71    69   am
   139    63    62    2
   140    72    75    1
   141    68    69    1
   142    68    67    1
   143    65    64    1
   144    69    70    2
   145    76    75    1
   146    76    78   am
   147    62    67   am
   148    62    61    1
   149    60    61    1
   150    64    61    1
   151    64    66    1
