@<TRIPOS>MOLECULE
tmp/3rrkA00.pdb
 83 79 0 0 0
SMALL
GASTEIGER

@<TRIPOS>ATOM
      1  N         35.2330   31.1240   64.6450 N.3   113  GLU113     -0.1231
      2  CA        35.6460   32.1290   65.6280 C.3   113  GLU113      0.1699
      3  C         37.1590   32.1530   65.7980 C.2   113  GLU113      0.2592
      4  O         37.7790   33.2040   65.8850 O.2   113  GLU113     -0.2718
      5  CB        35.0260   31.8480   66.9940 C.3   113  GLU113      0.0402
      6  CG        33.5760   32.2210   67.1290 C.3   113  GLU113      0.1161
      7  CD        33.1800   32.4140   68.5760 C.2   113  GLU113      0.3649
      8  OE1       33.9880   33.0070   69.3290 O.co2 113  GLU113     -0.2457
      9  OE2       32.0740   31.9680   68.9610 O.co2 113  GLU113     -0.2457
     10  N         37.7420   30.9710   65.8560 N.am  114  LEU114     -0.1966
     11  CA        39.1730   30.8370   65.9950 C.3   114  LEU114      0.1728
     12  C         39.9340   31.2050   64.7230 C.2   114  LEU114      0.2616
     13  O         40.8370   32.0360   64.7610 O.2   114  LEU114     -0.2715
     14  CB        39.4950   29.4050   66.4120 C.3   114  LEU114      0.0311
     15  CG        39.2860   29.1820   67.9060 C.3   114  LEU114      0.0022
     16  CD1       39.4070   27.7160   68.2460 C.3   114  LEU114      0.0001
     17  CD2       40.2940   29.9950   68.6680 C.3   114  LEU114      0.0001
     18  N         39.5610   30.5860   63.5990 N.am  115  PHE115     -0.1974
     19  CA        40.2980   30.7430   62.3450 C.3   115  PHE115      0.1639
     20  C         39.7620   31.7960   61.3560 C.2   115  PHE115      0.2290
     21  O         40.3720   32.0540   60.3230 O.2   115  PHE115     -0.2864
     22  CB        40.4050   29.3990   61.6540 C.3   115  PHE115      0.0560
     23  CG        41.0470   28.3510   62.4840 C.ar  115  PHE115     -0.0200
     24  CD1       42.3920   28.0660   62.3440 C.ar  115  PHE115     -0.0042
     25  CD2       40.3060   27.6420   63.4160 C.ar  115  PHE115     -0.0042
     26  CE1       42.9920   27.0840   63.1260 C.ar  115  PHE115     -0.0003
     27  CE2       40.9000   26.6630   64.2040 C.ar  115  PHE115     -0.0003
     28  CZ        42.2470   26.3860   64.0590 C.ar  115  PHE115     -0.0000
     29  N         42.0720   34.8920   60.3660 N.3   118  ALA118     -0.1245
     30  CA        43.2920   34.3410   59.7950 C.3   118  ALA118      0.1562
     31  C         43.0550   33.8880   58.3580 C.2   118  ALA118      0.2260
     32  O         43.8350   34.2050   57.4610 O.2   118  ALA118     -0.2867
     33  CB        43.7970   33.1920   60.6340 C.3   118  ALA118      0.0290
     34  N         51.6610   30.9160   61.0770 N.3   141  LEU141     -0.1245
     35  CA        51.6180   32.0100   62.0380 C.3   141  LEU141      0.1561
     36  C         52.9840   32.3100   62.6400 C.2   141  LEU141      0.2260
     37  O         53.8190   31.4230   62.8290 O.2   141  LEU141     -0.2867
     38  CB        50.6190   31.7140   63.1520 C.3   141  LEU141      0.0270
     39  CG        49.1380   31.5750   62.8200 C.3   141  LEU141      0.0019
     40  CD1       48.3780   31.2330   64.1010 C.3   141  LEU141      0.0001
     41  CD2       48.5950   32.8440   62.1950 C.3   141  LEU141      0.0001
     42  N         47.5990   40.0230   62.8940 N.3   170  LEU170     -0.1231
     43  CA        46.4530   39.5000   63.6090 C.3   170  LEU170      0.1693
     44  C         46.4030   40.2570   64.9260 C.2   170  LEU170      0.2592
     45  O         47.2290   41.1370   65.1650 O.2   170  LEU170     -0.2718
     46  CB        46.6190   38.0020   63.8380 C.3   170  LEU170      0.0284
     47  CG        45.6240   37.1080   63.1040 C.3   170  LEU170      0.0019
     48  CD1       45.1730   37.7380   61.8120 C.3   170  LEU170      0.0001
     49  CD2       46.2310   35.7400   62.8610 C.3   170  LEU170      0.0001
     50  N         45.4420   39.9290   65.7800 N.am  171  GLU171     -0.1966
     51  CA        45.3270   40.6240   67.0530 C.3   171  GLU171      0.1733
     52  C         46.6370   40.5640   67.8480 C.2   171  GLU171      0.2616
     53  O         47.0590   41.5570   68.4360 O.2   171  GLU171     -0.2715
     54  CB        44.1420   40.0870   67.8620 C.3   171  GLU171      0.0429
     55  CG        42.7740   40.5160   67.3160 C.3   171  GLU171      0.1163
     56  CD        41.6020   40.0340   68.1690 C.2   171  GLU171      0.3649
     57  OE1       41.7340   38.9870   68.8390 O.co2 171  GLU171     -0.2457
     58  OE2       40.5430   40.7030   68.1700 O.co2 171  GLU171     -0.2457
     59  N         47.2880   39.4060   67.8450 N.am  172  ASN172     -0.1958
     60  CA        48.5670   39.2440   68.5300 C.3   172  ASN172      0.1819
     61  C         49.6750   38.7810   67.5960 C.2   172  ASN172      0.2621
     62  O         50.7400   39.3860   67.5210 O.2   172  ASN172     -0.2715
     63  CB        48.4360   38.2570   69.6880 C.3   172  ASN172      0.1195
     64  CG        48.1560   38.9430   71.0100 C.2   172  ASN172      0.2630
     65  OD1       48.0740   40.1710   71.0860 O.2   172  ASN172     -0.2716
     66  ND2       47.9890   38.1500   72.0590 N.am  172  ASN172     -0.0877
     67  N         49.4140   37.6950   66.8860 N.am  173  GLN173     -0.1977
     68  CA        50.3760   37.1320   65.9550 C.3   173  GLN173      0.1601
     69  C         50.2690   37.7830   64.5800 C.2   173  GLN173      0.2287
     70  O         49.5300   38.7520   64.3840 O.2   173  GLN173     -0.2864
     71  CB        50.1530   35.6230   65.8230 C.3   173  GLN173      0.0394
     72  CG        50.2000   34.8650   67.1440 C.3   173  GLN173      0.0908
     73  CD        49.9820   33.3730   66.9740 C.2   173  GLN173      0.2608
     74  OE1       50.8450   32.6590   66.4550 O.2   173  GLN173     -0.2717
     75  NE2       48.8200   32.8930   67.4090 N.am  173  GLN173     -0.0878
     76  N         50.0020   26.4150   59.0120 N.3   200  LEU200     -0.1245
     77  CA        48.7740   26.5390   59.7710 C.3   200  LEU200      0.1561
     78  C         47.7410   25.6260   59.1250 C.2   200  LEU200      0.2260
     79  O         47.4500   25.7450   57.9340 O.2   200  LEU200     -0.2867
     80  CB        48.2920   27.9920   59.7760 C.3   200  LEU200      0.0270
     81  CG        46.8740   28.2980   60.2620 C.3   200  LEU200      0.0019
     82  CD1       46.6210   27.7130   61.6520 C.3   200  LEU200      0.0001
     83  CD2       46.6190   29.8040   60.2420 C.3   200  LEU200      0.0001
@<TRIPOS>BOND
     1    32    31    2
     2    79    78    2
     3    31    30    1
     4    76    77    1
     5    78    77    1
     6    77    80    1
     7    80    81    1
     8    30    29    1
     9    30    33    1
    10    83    81    1
    11    81    82    1
    12    21    20    2
    13    34    35    1
    14    20    19    1
    15    22    19    1
    16    22    23    1
    17    48    47    1
    18    35    36    1
    19    35    38    1
    20    41    39    1
    21    24    23   ar
    22    24    26   ar
    23    19    18    1
    24    23    25   ar
    25    36    37    2
    26    39    38    1
    27    39    40    1
    28    49    47    1
    29    42    43    1
    30    47    46    1
    31    26    28   ar
    32    25    27   ar
    33    18    12   am
    34    43    46    1
    35    43    44    1
    36    28    27   ar
    37    70    69    2
    38    69    68    1
    39     1     2    1
    40    12    13    2
    41    12    11    1
    42    44    45    2
    43    44    50   am
    44     2     3    1
    45     2     5    1
    46    50    51    1
    47     3    10   am
    48     3     4    2
    49    71    68    1
    50    71    72    1
    51    10    11    1
    52    68    67    1
    53    11    14    1
    54    14    15    1
    55    74    73    2
    56    67    61   am
    57    73    72    1
    58    73    75   am
    59     5     6    1
    60    51    52    1
    61    51    54    1
    62     6     7    1
    63    55    54    1
    64    55    56    1
    65    62    61    2
    66    61    60    1
    67    59    52   am
    68    59    60    1
    69    52    53    2
    70    15    16    1
    71    15    17    1
    72    56    58   ar
    73    56    57   ar
    74    60    63    1
    75     7     9   ar
    76     7     8   ar
    77    63    64    1
    78    64    65    2
    79    64    66   am
