@<TRIPOS>MOLECULE
tmp/3rroA00.pdb
 85 80 0 0 0
SMALL
GASTEIGER

@<TRIPOS>ATOM
      1  N        -22.0990   11.8030  -21.1160 N.3    95  ASP95      -0.1225
      2  CA       -22.6940   12.6940  -20.1350 C.3    95  ASP95       0.1805
      3  C        -23.3490   13.8830  -20.8320 C.2    95  ASP95       0.2598
      4  O        -22.9010   14.3450  -21.9030 O.2    95  ASP95      -0.2718
      5  CB       -21.6170   13.2210  -19.1830 C.3    95  ASP95       0.1424
      6  CG       -20.9970   12.1340  -18.2970 C.2    95  ASP95       0.3668
      7  OD1      -21.5560   11.0150  -18.1180 O.co2  95  ASP95      -0.2456
      8  OD2      -19.9150   12.4400  -17.7510 O.co2  95  ASP95      -0.2456
      9  N        -24.4390   14.3300  -20.2350 N.am   96  ASN96      -0.1960
     10  CA       -25.0980   15.5840  -20.5870 C.3    96  ASN96       0.1819
     11  C        -26.3060   15.7370  -19.6680 C.2    96  ASN96       0.2621
     12  O        -26.9080   14.7470  -19.2600 O.2    96  ASN96      -0.2715
     13  CB       -25.5740   15.6180  -22.0410 C.3    96  ASN96       0.1195
     14  CG       -24.6430   16.4090  -22.9650 C.2    96  ASN96       0.2630
     15  OD1      -24.1050   17.4470  -22.5780 O.2    96  ASN96      -0.2716
     16  ND2      -24.4510   15.9080  -24.2070 N.am   96  ASN96      -0.0877
     17  N        -26.6520   16.9840  -19.3640 N.am   97  LEU97      -0.1977
     18  CA       -27.9250   17.2850  -18.7250 C.3    97  LEU97       0.1596
     19  C        -29.0190   16.8330  -19.7030 C.2    97  LEU97       0.2287
     20  O        -28.8130   16.8500  -20.9350 O.2    97  LEU97      -0.2864
     21  CB       -28.0390   18.7820  -18.4370 C.3    97  LEU97       0.0297
     22  CG       -26.9490   19.4110  -17.5610 C.3    97  LEU97       0.0022
     23  CD1      -27.0530   20.9630  -17.6060 C.3    97  LEU97       0.0001
     24  CD2      -27.0420   18.8680  -16.1530 C.3    97  LEU97       0.0001
     25  N        -26.8980   10.7580  -10.4790 N.3   148  ASN148     -0.1225
     26  CA       -26.0260   11.9220  -10.5830 C.3   148  ASN148      0.1785
     27  C        -26.5040   12.8520  -11.6990 C.2   148  ASN148      0.2597
     28  O        -26.7670   12.4070  -12.8250 O.2   148  ASN148     -0.2718
     29  CB       -24.5900   11.4680  -10.8530 C.3   148  ASN148      0.1169
     30  CG       -23.5800   12.5780  -10.7290 C.2   148  ASN148      0.2627
     31  OD1      -23.7300   13.4840   -9.9070 O.2   148  ASN148     -0.2716
     32  ND2      -22.5300   12.5200  -11.5510 N.am  148  ASN148     -0.0877
     33  N        -26.5800   14.1380  -11.3980 N.am  149  ALA149     -0.1966
     34  CA       -26.9270   15.1340  -12.4130 C.3   149  ALA149      0.1728
     35  C        -25.9680   15.0610  -13.5890 C.2   149  ALA149      0.2617
     36  O        -24.7610   14.8790  -13.4100 O.2   149  ALA149     -0.2715
     37  CB       -26.9460   16.5290  -11.8340 C.3   149  ALA149      0.0334
     38  N        -26.5040   15.1870  -14.7970 N.am  150  GLY150     -0.1940
     39  CA       -25.6840   15.1140  -16.0150 C.3   150  GLY150      0.2014
     40  C        -25.3430   13.6940  -16.4580 C.2   150  GLY150      0.2638
     41  O        -24.5860   13.5000  -17.4320 O.2   150  GLY150     -0.2714
     42  N        -25.8720   12.6990  -15.7450 N.am  151  GLN151     -0.1977
     43  CA       -25.5920   11.2980  -16.0370 C.3   151  GLN151      0.1601
     44  C        -26.8350   10.4110  -15.9490 C.2   151  GLN151      0.2287
     45  O        -26.7360    9.2160  -15.6180 O.2   151  GLN151     -0.2864
     46  CB       -24.5010   10.7800  -15.0910 C.3   151  GLN151      0.0394
     47  CG       -23.1390   11.4090  -15.3040 C.3   151  GLN151      0.0908
     48  CD       -22.0340   10.5940  -14.6650 C.2   151  GLN151      0.2608
     49  OE1      -22.0440   10.3760  -13.4530 O.2   151  GLN151     -0.2717
     50  NE2      -21.0810   10.1280  -15.4780 N.am  151  GLN151     -0.0878
     51  N        -15.6180    6.7840   -6.8180 N.3   186  PHE186     -0.1241
     52  CA       -14.6630    7.6060   -7.5780 C.3   186  PHE186      0.1605
     53  C        -13.3030    6.9350   -7.5000 C.2   186  PHE186      0.2264
     54  O        -12.6290    6.9990   -6.4750 O.2   186  PHE186     -0.2867
     55  CB       -14.6590    8.9840   -6.8990 C.3   186  PHE186      0.0534
     56  CG       -14.0550   10.1050   -7.6990 C.ar  186  PHE186     -0.0203
     57  CD1      -14.2930   10.2510   -9.0690 C.ar  186  PHE186     -0.0042
     58  CD2      -13.2920   11.0730   -7.0470 C.ar  186  PHE186     -0.0042
     59  CE1      -13.7650   11.3320   -9.7650 C.ar  186  PHE186     -0.0003
     60  CE2      -12.7690   12.1460   -7.7370 C.ar  186  PHE186     -0.0003
     61  CZ       -13.0010   12.2710   -9.1080 C.ar  186  PHE186     -0.0000
     62  N         -9.4210   15.1550  -15.0450 N.3   195  LEU195     -0.1245
     63  CA       -10.1830   16.1950  -14.3480 C.3   195  LEU195      0.1561
     64  C         -9.2300   17.2690  -13.7990 C.2   195  LEU195      0.2260
     65  O         -8.0830   16.9730  -13.4430 O.2   195  LEU195     -0.2867
     66  CB       -11.0350   15.6120  -13.2130 C.3   195  LEU195      0.0270
     67  CG       -12.2040   14.6760  -13.5610 C.3   195  LEU195      0.0019
     68  CD1      -12.8430   14.1550  -12.2790 C.3   195  LEU195      0.0001
     69  CD2      -13.2560   15.3540  -14.4280 C.3   195  LEU195      0.0001
     70  N        -12.5880   20.2060   -9.9950 N.3   199  GLN199     -0.1245
     71  CA       -13.4780   19.0620  -10.1820 C.3   199  GLN199      0.1566
     72  C        -13.1370   17.9000   -9.2200 C.2   199  GLN199      0.2260
     73  O        -14.0230   17.3550   -8.5580 O.2   199  GLN199     -0.2867
     74  CB       -13.4310   18.6090  -11.6490 C.3   199  GLN199      0.0367
     75  CG       -14.0850   19.6050  -12.6110 C.3   199  GLN199      0.0905
     76  CD       -13.7700   19.3330  -14.0710 C.2   199  GLN199      0.2608
     77  OE1      -12.9780   18.4550  -14.3980 O.2   199  GLN199     -0.2717
     78  NE2      -14.3870   20.0980  -14.9590 N.am  199  GLN199     -0.0878
     79  N        -15.3590   16.5790   -5.9330 N.3   203  THR203     -0.1218
     80  CA       -15.8350   15.2180   -5.8320 C.3   203  THR203      0.1862
     81  C        -15.3100   14.5730   -4.5510 C.2   203  THR203      0.2287
     82  O        -16.0600   13.9100   -3.8630 O.2   203  THR203     -0.2866
     83  CB       -15.4330   14.3660   -7.0350 C.3   203  THR203      0.1770
     84  OG1      -15.8790   14.9930   -8.2400 O.3   203  THR203     -0.2211
     85  CG2      -16.0650   12.9800   -6.9230 C.3   203  THR203      0.0375
@<TRIPOS>BOND
     1    16    14   am
     2    14    15    2
     3    14    13    1
     4    13    10    1
     5     4     3    2
     6     1     2    1
     7    20    19    2
     8     3     9   am
     9     3     2    1
    10    10     9    1
    11    10    11    1
    12     2     5    1
    13    19    18    1
    14    11    17   am
    15    11    12    2
    16    17    18    1
    17     5     6    1
    18    18    21    1
    19    21    22    1
    20     6     7   ar
    21     6     8   ar
    22    23    22    1
    23    22    24    1
    24    41    40    2
    25    40    39    1
    26    40    42   am
    27    43    44    1
    28    43    42    1
    29    43    46    1
    30    39    38    1
    31    44    45    2
    32    50    48   am
    33    47    46    1
    34    47    48    1
    35    62    63    1
    36    78    76   am
    37    38    35   am
    38    48    49    2
    39    69    67    1
    40    77    76    2
    41    63    64    1
    42    63    66    1
    43    76    75    1
    44    64    65    2
    45    35    36    2
    46    35    34    1
    47    67    66    1
    48    67    68    1
    49    28    27    2
    50    75    74    1
    51    34    37    1
    52    34    33    1
    53    27    33   am
    54    27    26    1
    55    74    71    1
    56    32    30   am
    57    29    30    1
    58    29    26    1
    59    30    31    2
    60    26    25    1
    61    71    70    1
    62    71    72    1
    63    59    61   ar
    64    59    57   ar
    65    72    73    2
    66    61    60   ar
    67    57    56   ar
    68    84    83    1
    69    60    58   ar
    70    56    58   ar
    71    56    55    1
    72    52    53    1
    73    52    55    1
    74    52    51    1
    75    53    54    2
    76    83    85    1
    77    83    80    1
    78    79    80    1
    79    80    81    1
    80    81    82    2
