@<TRIPOS>MOLECULE
tmp/3rs8A03.pdb
 105 101 0 0 0
SMALL
GASTEIGER

@<TRIPOS>ATOM
      1  N         13.7010   -4.9680  -55.5070 N.3   244  LEU244     -0.1231
      2  CA        13.9510   -6.1390  -54.6730 C.3   244  LEU244      0.1693
      3  C         13.8490   -5.7940  -53.1940 C.2   244  LEU244      0.2592
      4  O         13.3610   -6.6090  -52.4300 O.2   244  LEU244     -0.2718
      5  CB        15.3180   -6.7680  -54.9550 C.3   244  LEU244      0.0284
      6  CG        15.5320   -7.2870  -56.3710 C.3   244  LEU244      0.0019
      7  CD1       17.0060   -7.7310  -56.5530 C.3   244  LEU244      0.0001
      8  CD2       14.5580   -8.4800  -56.7600 C.3   244  LEU244      0.0001
      9  N         14.3030   -4.6120  -52.8020 N.am  245  TYR245     -0.1976
     10  CA        14.4790   -4.2620  -51.3720 C.3   245  TYR245      0.1639
     11  C         13.7120   -2.9940  -51.0450 C.2   245  TYR245      0.2290
     12  O         14.3250   -1.9270  -50.9650 O.2   245  TYR245     -0.2864
     13  CB        15.9760   -4.0370  -51.0420 C.3   245  TYR245      0.0560
     14  CG        16.7740   -5.2340  -51.4170 C.ar  245  TYR245     -0.0198
     15  CD1       16.4690   -6.4600  -50.8770 C.ar  245  TYR245     -0.0009
     16  CD2       17.8000   -5.1550  -52.3570 C.ar  245  TYR245     -0.0009
     17  CE1       17.1680   -7.6010  -51.2580 C.ar  245  TYR245      0.0417
     18  CE2       18.5160   -6.2660  -52.7300 C.ar  245  TYR245      0.0417
     19  CZ        18.1880   -7.4880  -52.1620 C.ar  245  TYR245      0.1957
     20  OH        18.8380   -8.5940  -52.5290 O.3   245  TYR245     -0.2866
     21  N         29.4250   -1.9410  -50.9150 N.3   348  ASN348     -0.1240
     22  CA        29.7910   -3.0920  -51.7490 C.3   348  ASN348      0.1653
     23  C         30.2530   -2.6620  -53.1460 C.2   348  ASN348      0.2266
     24  O         31.0210   -3.3530  -53.7850 O.2   348  ASN348     -0.2867
     25  CB        28.5920   -4.1020  -51.8940 C.3   348  ASN348      0.1155
     26  CG        28.3160   -4.8790  -50.5980 C.2   348  ASN348      0.2627
     27  OD1       29.2440   -5.1190  -49.8130 O.2   348  ASN348     -0.2716
     28  ND2       27.0550   -5.2300  -50.3470 N.am  348  ASN348     -0.0877
     29  N         29.2300   -3.9270  -41.8430 N.3   367  HIS367     -0.1227
     30  CA        29.4560   -5.0970  -40.9880 C.3   367  HIS367      0.1737
     31  C         30.7640   -5.7980  -41.4920 C.2   367  HIS367      0.2438
     32  O         31.3310   -5.4000  -42.5380 O.2   367  HIS367     -0.2733
     33  CB        28.2500   -6.0710  -40.8800 C.3   367  HIS367      0.0758
     34  CG        27.7670   -6.6490  -42.1890 C.ar  367  HIS367      0.0818
     35  ND1       28.5470   -7.4730  -42.9660 N.ar  367  HIS367     -0.2268
     36  CD2       26.5760   -6.5460  -42.8310 C.ar  367  HIS367      0.1154
     37  CE1       27.8660   -7.8470  -44.0440 C.ar  367  HIS367      0.1986
     38  NE2       26.6680   -7.2860  -44.0010 N.ar  367  HIS367     -0.2212
     39  N         31.2670   -6.7810  -40.7540 N.am  368  PRO368     -0.2718
     40  CA        32.5420   -7.3940  -41.1650 C.3   368  PRO368      0.1535
     41  C         32.5750   -8.0340  -42.5490 C.2   368  PRO368      0.2599
     42  O         33.6280   -8.0750  -43.1790 O.2   368  PRO368     -0.2715
     43  CB        32.8100   -8.4450  -40.0750 C.3   368  PRO368      0.0310
     44  CG        32.1040   -7.8650  -38.8290 C.3   368  PRO368      0.0237
     45  CD        30.8440   -7.2280  -39.4160 C.3   368  PRO368      0.0939
     46  N         31.4420   -8.5520  -42.9980 N.am  369  GLY369     -0.1941
     47  CA        31.3230   -9.0520  -44.3830 C.3   369  GLY369      0.2014
     48  C         31.6090   -7.9700  -45.4070 C.2   369  GLY369      0.2638
     49  O         32.3820   -8.1530  -46.3890 O.2   369  GLY369     -0.2714
     50  N         31.0000   -6.8250  -45.1940 N.am  370  GLU370     -0.1977
     51  CA        31.2420   -5.6850  -46.0870 C.3   370  GLU370      0.1602
     52  C         32.6560   -5.1150  -45.9700 C.2   370  GLU370      0.2287
     53  O         33.2490   -4.7210  -46.9750 O.2   370  GLU370     -0.2864
     54  CB        30.1920   -4.5600  -45.8040 C.3   370  GLU370      0.0415
     55  CG        28.8160   -4.9560  -46.2820 C.3   370  GLU370      0.1163
     56  CD        27.6340   -4.2580  -45.5960 C.2   370  GLU370      0.3649
     57  OE1       27.8040   -3.6170  -44.5370 O.co2 370  GLU370     -0.2457
     58  OE2       26.5040   -4.3980  -46.1340 O.co2 370  GLU370     -0.2457
     59  N         35.0820   -7.5130  -47.8360 N.3   373  ARG373     -0.1245
     60  CA        35.0020   -7.2510  -49.2950 C.3   373  ARG373      0.1563
     61  C         35.6500   -5.9090  -49.6350 C.2   373  ARG373      0.2260
     62  O         36.3500   -5.7990  -50.6040 O.2   373  ARG373     -0.2867
     63  CB        33.5320   -7.2810  -49.8110 C.3   373  ARG373      0.0307
     64  CG        33.0700   -8.6310  -50.3770 C.3   373  ARG373      0.0489
     65  CD        31.5040   -8.6950  -50.6900 C.3   373  ARG373      0.2205
     66  NE        30.6990   -9.1710  -49.5390 N.pl3 373  ARG373     -0.0865
     67  CZ        29.7520   -8.4690  -48.8870 C.cat 373  ARG373      0.5346
     68  NH1       29.4240   -7.2700  -49.2840 N.pl3 373  ARG373      0.1354
     69  NH2       29.1050   -8.9800  -47.8240 N.pl3 373  ARG373      0.1354
     70  N         36.7380  -12.2480  -43.4660 N.3   379  VAL379     -0.1245
     71  CA        35.9780  -11.7890  -42.3200 C.3   379  VAL379      0.1561
     72  C         36.8010  -11.9320  -41.0380 C.2   379  VAL379      0.2260
     73  O         36.8640  -11.0180  -40.2580 O.2   379  VAL379     -0.2867
     74  CB        34.6840  -12.5780  -42.1970 C.3   379  VAL379      0.0252
     75  CG1       33.9380  -12.2880  -40.8210 C.3   379  VAL379      0.0019
     76  CG2       33.7690  -12.2470  -43.3740 C.3   379  VAL379      0.0019
     77  N         37.4660   -8.8690  -38.5190 N.3   383  LYS383     -0.1245
     78  CA        36.5230   -8.8070  -37.4230 C.3   383  LYS383      0.1561
     79  C         37.2210   -8.3900  -36.1240 C.2   383  LYS383      0.2260
     80  O         38.1830   -9.0110  -35.7110 O.2   383  LYS383     -0.2867
     81  CB        35.8450  -10.1440  -37.2230 C.3   383  LYS383      0.0271
     82  CG        34.8280  -10.0390  -36.1070 C.3   383  LYS383      0.0035
     83  CD        33.6150  -10.8580  -36.3560 C.3   383  LYS383      0.0206
     84  CE        32.6020  -10.6930  -35.2030 C.3   383  LYS383      0.1093
     85  NZ        31.8520  -11.9630  -34.8740 N.3   383  LYS383     -0.1314
     86  N         30.5240   -2.5210  -37.5000 N.3   403  LYS403     -0.1231
     87  CA        29.4050   -3.1070  -36.7270 C.3   403  LYS403      0.1693
     88  C         29.7100   -4.5490  -36.2540 C.2   403  LYS403      0.2593
     89  O         30.2870   -5.3170  -37.0110 O.2   403  LYS403     -0.2718
     90  CB        28.1230   -3.0950  -37.5780 C.3   403  LYS403      0.0285
     91  CG        27.7190   -1.6880  -38.0060 C.3   403  LYS403      0.0035
     92  CD        26.4170   -1.5460  -38.7480 C.3   403  LYS403      0.0206
     93  CE        26.4230   -1.9990  -40.0970 C.3   403  LYS403      0.1093
     94  NZ        25.4230   -1.2270  -40.9140 N.3   403  LYS403     -0.1314
     95  N         29.4030   -4.8610  -34.9950 N.am  404  SER404     -0.1938
     96  CA        29.4300   -6.1870  -34.4310 C.3   404  SER404      0.2055
     97  C         28.9060   -6.0260  -33.0040 C.2   404  SER404      0.2642
     98  O         28.5450   -4.9180  -32.5880 O.2   404  SER404     -0.2714
     99  CB        30.8630   -6.7770  -34.4280 C.3   404  SER404      0.2130
    100  OG        31.2840   -7.2790  -35.6790 O.3   404  SER404     -0.2179
    101  N         28.8440   -7.1190  -32.2480 N.am  405  ALA405     -0.1977
    102  CA        28.2750   -7.0930  -30.9130 C.3   405  ALA405      0.1597
    103  C         28.9930   -6.0190  -30.1170 C.2   405  ALA405      0.2287
    104  O         28.3640   -5.3210  -29.3660 O.2   405  ALA405     -0.2864
    105  CB        28.3730   -8.4790  -30.2340 C.3   405  ALA405      0.0319
@<TRIPOS>BOND
     1     8     6    1
     2     7     6    1
     3     6     5    1
     4     1     2    1
     5     5     2    1
     6     2     3    1
     7    24    23    2
     8     3     9   am
     9     3     4    2
    10    23    22    1
    11     9    10    1
    12    18    16   ar
    13    18    19   ar
    14    20    19    1
    15    16    14   ar
    16    19    17   ar
    17    25    22    1
    18    25    26    1
    19    22    21    1
    20    14    13    1
    21    14    15   ar
    22    10    11    1
    23    10    13    1
    24    17    15   ar
    25    11    12    2
    26    65    64    1
    27    65    66    1
    28    62    61    2
    29    26    28   am
    30    26    27    2
    31    64    63    1
    32    63    60    1
    33    61    60    1
    34    66    67    2
    35    60    59    1
    36    68    67    1
    37    67    69    1
    38    53    52    2
    39    49    48    2
    40    55    54    1
    41    55    56    1
    42    58    56   ar
    43    51    52    1
    44    51    54    1
    45    51    50    1
    46    56    57   ar
    47    48    50   am
    48    48    47    1
    49    47    46    1
    50    37    38   ar
    51    37    35   ar
    52    38    36   ar
    53    70    71    1
    54    76    74    1
    55    42    41    2
    56    46    41   am
    57    35    34   ar
    58    36    34   ar
    59    41    40    1
    60    32    31    2
    61    71    74    1
    62    71    72    1
    63    74    75    1
    64    34    33    1
    65    29    30    1
    66    31    30    1
    67    31    39   am
    68    40    39    1
    69    40    43    1
    70    72    73    2
    71    30    33    1
    72    94    93    1
    73    39    45    1
    74    93    92    1
    75    43    44    1
    76    45    44    1
    77    92    91    1
    78    77    78    1
    79    91    90    1
    80    90    87    1
    81    86    87    1
    82    78    81    1
    83    78    79    1
    84    81    82    1
    85    89    88    2
    86    87    88    1
    87    83    82    1
    88    83    84    1
    89    88    95   am
    90    79    80    2
    91   100    99    1
    92    84    85    1
    93    95    96    1
    94    96    99    1
    95    96    97    1
    96    97    98    2
    97    97   101   am
    98   101   102    1
    99   102   105    1
   100   102   103    1
   101   103   104    2
