@<TRIPOS>MOLECULE
tmp/3rs9A02.pdb
 154 146 0 0 0
SMALL
GASTEIGER

@<TRIPOS>ATOM
      1  N          2.9650   26.3480   46.4080 N.3   343  ASP343     -0.1239
      2  CA         1.6860   25.9720   45.7930 C.3   343  ASP343      0.1674
      3  C          0.6260   25.6880   46.8700 C.2   343  ASP343      0.2266
      4  O          0.9590   25.4150   48.0480 O.2   343  ASP343     -0.2867
      5  CB         1.9040   24.7300   44.9130 C.3   343  ASP343      0.1410
      6  CG         0.6550   24.3150   44.0500 C.2   343  ASP343      0.3668
      7  OD1       -0.2110   25.2000   43.7430 O.co2 343  ASP343     -0.2456
      8  OD2        0.5520   23.0730   43.6930 O.co2 343  ASP343     -0.2456
      9  N         -4.1220   29.1040   41.5480 N.3   367  HIS367     -0.1241
     10  CA        -5.3160   29.3660   40.7380 C.3   367  HIS367      0.1621
     11  C         -5.9920   30.6550   41.2620 C.2   367  HIS367      0.2264
     12  O         -5.5860   31.1950   42.3110 O.2   367  HIS367     -0.2867
     13  CB        -6.2650   28.1510   40.6290 C.3   367  HIS367      0.0745
     14  CG        -6.8570   27.6840   41.9200 C.ar  367  HIS367      0.0817
     15  ND1       -7.8010   28.4150   42.6080 N.ar  367  HIS367     -0.2268
     16  CD2       -6.6790   26.5370   42.6220 C.ar  367  HIS367      0.1154
     17  CE1       -8.1620   27.7480   43.7000 C.ar  367  HIS367      0.1986
     18  NE2       -7.4960   26.6070   43.7350 N.ar  367  HIS367     -0.2212
     19  N         -7.0710   30.9100   44.9550 N.3   370  GLU370     -0.1245
     20  CA        -5.9230   31.0530   45.8350 C.3   370  GLU370      0.1567
     21  C         -5.3160   32.4570   45.7490 C.2   370  GLU370      0.2260
     22  O         -4.9160   33.0170   46.7610 O.2   370  GLU370     -0.2867
     23  CB        -4.8530   29.9900   45.4610 C.3   370  GLU370      0.0388
     24  CG        -5.1490   28.6050   46.0330 C.3   370  GLU370      0.1160
     25  CD        -4.4560   27.4510   45.2830 C.2   370  GLU370      0.3649
     26  OE1       -3.8540   27.6890   44.2250 O.co2 370  GLU370     -0.2457
     27  OE2       -4.5470   26.3000   45.7580 O.co2 370  GLU370     -0.2457
     28  N         -2.6990   30.4610   37.3170 N.3   403  LYS403     -0.1231
     29  CA        -3.2420   29.3620   36.5020 C.3   403  LYS403      0.1693
     30  C         -4.6830   29.6230   36.0000 C.2   403  LYS403      0.2593
     31  O         -5.4640   30.2100   36.7090 O.2   403  LYS403     -0.2718
     32  CB        -3.1670   28.0740   37.2860 C.3   403  LYS403      0.0285
     33  CG        -1.7420   27.7430   37.5740 C.3   403  LYS403      0.0035
     34  CD        -1.4460   26.4770   38.3590 C.3   403  LYS403      0.0206
     35  CE        -2.2880   26.2680   39.5630 C.3   403  LYS403      0.1093
     36  NZ        -1.5470   25.3030   40.4460 N.3   403  LYS403     -0.1314
     37  N         -4.9780   29.2710   34.7600 N.am  404  SER404     -0.1938
     38  CA        -6.3360   29.3210   34.1880 C.3   404  SER404      0.2055
     39  C         -6.1800   28.7930   32.7680 C.2   404  SER404      0.2642
     40  O         -5.0610   28.4320   32.3690 O.2   404  SER404     -0.2714
     41  CB        -6.9090   30.7650   34.1640 C.3   404  SER404      0.2130
     42  OG        -7.4150   31.1960   35.4290 O.3   404  SER404     -0.2179
     43  N         -7.2490   28.7740   31.9850 N.am  405  ALA405     -0.1977
     44  CA        -7.1440   28.1840   30.6640 C.3   405  ALA405      0.1597
     45  C         -6.0430   28.9000   29.8720 C.2   405  ALA405      0.2287
     46  O         -5.3000   28.2380   29.1490 O.2   405  ALA405     -0.2864
     47  CB        -8.5100   28.1590   29.9200 C.3   405  ALA405      0.0319
     48  N         -2.7410   30.7530   31.0760 N.3   407  THR407     -0.1218
     49  CA        -1.9400   30.9440   32.2770 C.3   407  THR407      0.1862
     50  C         -1.0110   32.1190   32.0530 C.2   407  THR407      0.2287
     51  O         -0.4720   32.3060   30.9550 O.2   407  THR407     -0.2866
     52  CB        -1.1520   29.6550   32.6310 C.3   407  THR407      0.1770
     53  OG1       -2.1150   28.7070   33.0660 O.3   407  THR407     -0.2211
     54  CG2       -0.0670   29.8630   33.7510 C.3   407  THR407      0.0375
     55  N         -1.5000   26.5410   25.7360 N.3   420  THR420     -0.1203
     56  CA        -1.6550   25.1040   25.5520 C.3   420  THR420      0.1994
     57  C         -2.5240   24.5250   26.6250 C.2   420  THR420      0.2618
     58  O         -2.7320   25.1460   27.6690 O.2   420  THR420     -0.2717
     59  CB        -0.2790   24.3650   25.5740 C.3   420  THR420      0.1784
     60  OG1        0.2910   24.4220   26.9080 O.3   420  THR420     -0.2211
     61  CG2        0.6550   25.0070   24.4950 C.3   420  THR420      0.0376
     62  N         -3.0400   23.3230   26.4000 N.am  421  GLY421     -0.1942
     63  CA        -3.8800   22.6420   27.4100 C.3   421  GLY421      0.2014
     64  C         -5.3170   22.4790   26.9520 C.2   421  GLY421      0.2639
     65  O         -5.6640   22.8850   25.8340 O.2   421  GLY421     -0.2714
     66  N         -6.1290   21.8430   27.7890 N.am  422  ASN422     -0.1958
     67  CA        -7.5580   21.6920   27.5090 C.3   422  ASN422      0.1819
     68  C         -8.2600   21.4610   28.8420 C.2   422  ASN422      0.2621
     69  O         -7.5920   21.4900   29.8880 O.2   422  ASN422     -0.2715
     70  CB        -7.8060   20.5690   26.5000 C.3   422  ASN422      0.1195
     71  CG        -7.2780   19.2090   26.9740 C.2   422  ASN422      0.2630
     72  OD1       -7.3670   18.8700   28.1460 O.2   422  ASN422     -0.2716
     73  ND2       -6.7370   18.4290   26.0450 N.am  422  ASN422     -0.0877
     74  N         -9.5800   21.2110   28.8140 N.am  423  THR423     -0.1951
     75  CA       -10.3340   21.0570   30.0500 C.3   423  THR423      0.1897
     76  C        -10.0580   19.7680   30.8260 C.2   423  THR423      0.2313
     77  O        -10.5910   19.6070   31.9340 O.2   423  THR423     -0.2863
     78  CB       -11.8470   21.1340   29.8100 C.3   423  THR423      0.1794
     79  OG1      -12.2950   19.9060   29.1800 O.3   423  THR423     -0.2208
     80  CG2      -12.1930   22.4330   28.9490 C.3   423  THR423      0.0378
     81  N         -7.3840   19.2610   32.2440 N.3   425  LEU425     -0.1231
     82  CA        -6.5630   19.7560   33.3550 C.3   425  LEU425      0.1693
     83  C         -7.3970   20.3750   34.4730 C.2   425  LEU425      0.2593
     84  O         -6.8850   20.6600   35.5370 O.2   425  LEU425     -0.2718
     85  CB        -5.5560   20.7900   32.8300 C.3   425  LEU425      0.0284
     86  CG        -4.4720   20.3030   31.8390 C.3   425  LEU425      0.0019
     87  CD1       -3.7040   21.5340   31.3220 C.3   425  LEU425      0.0001
     88  CD2       -3.5620   19.3310   32.5180 C.3   425  LEU425      0.0001
     89  N         -8.6890   20.6040   34.2220 N.am  426  SER426     -0.1938
     90  CA        -9.6140   21.1030   35.2210 C.3   426  SER426      0.2055
     91  C        -10.1130   19.9540   36.1160 C.2   426  SER426      0.2643
     92  O        -11.3250   19.6100   36.1500 O.2   426  SER426     -0.2714
     93  CB       -10.8020   21.7510   34.5340 C.3   426  SER426      0.2130
     94  OG       -10.3890   22.8850   33.7390 O.3   426  SER426     -0.2179
     95  N         -9.1890   19.4080   36.8830 N.am  427  LYS427     -0.1963
     96  CA        -9.4270   18.2360   37.6760 C.3   427  LYS427      0.1728
     97  C         -8.3310   18.1460   38.7380 C.2   427  LYS427      0.2617
     98  O         -7.1720   18.4280   38.4830 O.2   427  LYS427     -0.2715
     99  CB        -9.3700   17.0210   36.7360 C.3   427  LYS427      0.0311
    100  CG       -10.0520   15.7680   37.2070 C.3   427  LYS427      0.0038
    101  CD        -9.8480   14.5620   36.2470 C.3   427  LYS427      0.0206
    102  CE       -10.9700   14.3700   35.1980 C.3   427  LYS427      0.1093
    103  NZ       -10.7690   15.1750   33.9930 N.3   427  LYS427     -0.1314
    104  N         -8.7020   17.7760   39.9470 N.am  428  GLY428     -0.1940
    105  CA        -7.7330   17.5190   41.0150 C.3   428  GLY428      0.2014
    106  C         -6.4850   16.7750   40.5720 C.2   428  GLY428      0.2639
    107  O         -6.5300   15.7100   39.9490 O.2   428  GLY428     -0.2714
    108  N         -5.3380   17.3280   40.9130 N.am  429  GLY429     -0.1939
    109  CA        -4.0840   16.6240   40.6370 C.3   429  GLY429      0.2014
    110  C         -3.2210   17.3200   39.6210 C.2   429  GLY429      0.2640
    111  O         -2.0210   17.1830   39.6710 O.2   429  GLY429     -0.2714
    112  N         -3.8360   18.0660   38.7190 N.am  430  SER430     -0.1935
    113  CA        -3.1610   18.7380   37.5950 C.3   430  SER430      0.2055
    114  C         -2.1050   19.7130   38.0800 C.2   430  SER430      0.2644
    115  O         -0.9600   19.7440   37.5820 O.2   430  SER430     -0.2714
    116  CB        -4.2150   19.5420   36.7710 C.3   430  SER430      0.2130
    117  OG        -5.1110   18.5330   36.2350 O.3   430  SER430     -0.2179
    118  N         -2.5190   20.5160   39.0370 N.am  431  GLY431     -0.1939
    119  CA        -1.6820   21.5100   39.6350 C.3   431  GLY431      0.2014
    120  C         -0.5270   20.8750   40.3760 C.2   431  GLY431      0.2638
    121  O          0.5690   21.4330   40.3950 O.2   431  GLY431     -0.2714
    122  N         -0.7480   19.7420   41.0190 N.am  432  ASP432     -0.1971
    123  CA         0.3080   19.1360   41.7790 C.3   432  ASP432      0.1709
    124  C          1.4610   18.7030   40.7970 C.2   432  ASP432      0.2293
    125  O          2.6040   18.8370   41.0980 O.2   432  ASP432     -0.2864
    126  CB        -0.1760   17.9250   42.5250 C.3   432  ASP432      0.1436
    127  CG        -1.2720   18.2200   43.5350 C.2   432  ASP432      0.3671
    128  OD1       -1.3610   19.3710   43.9790 O.co2 432  ASP432     -0.2456
    129  OD2       -2.0560   17.2680   43.8440 O.co2 432  ASP432     -0.2456
    130  N          2.2030   20.1590   37.8710 N.3   434  LEU434     -0.1245
    131  CA         2.9090   21.3560   37.4040 C.3   434  LEU434      0.1561
    132  C          3.9240   21.8550   38.4550 C.2   434  LEU434      0.2260
    133  O          5.0270   22.2540   38.1270 O.2   434  LEU434     -0.2867
    134  CB         1.9170   22.4720   37.1420 C.3   434  LEU434      0.0270
    135  CG         2.5100   23.7850   36.6450 C.3   434  LEU434      0.0019
    136  CD1        3.0450   23.5930   35.2010 C.3   434  LEU434      0.0001
    137  CD2        1.4330   24.8620   36.7650 C.3   434  LEU434      0.0001
    138  N          4.6650   25.3890   32.1930 N.3   456  VAL456     -0.1245
    139  CA         3.2530   25.6230   31.8380 C.3   456  VAL456      0.1561
    140  C          2.9400   25.1700   30.4230 C.2   456  VAL456      0.2260
    141  O          1.8760   24.5490   30.1650 O.2   456  VAL456     -0.2867
    142  CB         2.7680   27.0670   32.1140 C.3   456  VAL456      0.0252
    143  CG1        2.8660   27.3940   33.5650 C.3   456  VAL456      0.0019
    144  CG2        3.4810   28.1120   31.2210 C.3   456  VAL456      0.0019
    145  N          3.1520   21.1870   30.2310 N.3   459  HIS459     -0.1241
    146  CA         1.9920   20.6380   31.0400 C.3   459  HIS459      0.1621
    147  C          0.7150   20.6790   30.1930 C.2   459  HIS459      0.2264
    148  O         -0.0100   19.6860   30.0800 O.2   459  HIS459     -0.2867
    149  CB         1.8860   21.5020   32.3120 C.3   459  HIS459      0.0745
    150  CG         0.7550   21.1910   33.2410 C.ar  459  HIS459      0.0817
    151  ND1       -0.3430   22.0110   33.3380 N.ar  459  HIS459     -0.2268
    152  CD2        0.6410   20.2950   34.2610 C.ar  459  HIS459      0.1154
    153  CE1       -1.1110   21.6110   34.3420 C.ar  459  HIS459      0.1986
    154  NE2       -0.5570   20.5420   34.8910 N.ar  459  HIS459     -0.2212
@<TRIPOS>BOND
     1    61    59    1
     2    56    59    1
     3    56    55    1
     4    56    57    1
     5    59    60    1
     6    65    64    2
     7    73    71   am
     8    62    57   am
     9    62    63    1
    10    70    71    1
    11    70    67    1
    12    57    58    2
    13    64    63    1
    14    64    66   am
    15    71    72    2
    16    67    66    1
    17    67    68    1
    18    74    68   am
    19    74    75    1
    20    68    69    2
    21    80    78    1
    22    46    45    2
    23    79    78    1
    24    78    75    1
    25    45    44    1
    26    47    44    1
    27    75    76    1
    28   148   147    2
    29   141   140    2
    30   147   146    1
    31   145   146    1
    32   140   139    1
    33    44    43    1
    34    76    77    2
    35    51    50    2
    36   146   149    1
    37    48    49    1
    38   144   142    1
    39    87    86    1
    40   139   142    1
    41   139   138    1
    42    86    88    1
    43    86    85    1
    44    43    39   am
    45    50    49    1
    46   142   143    1
    47    81    82    1
    48    49    52    1
    49   149   150    1
    50    40    39    2
    51    52    53    1
    52    52    54    1
    53    39    38    1
    54    85    82    1
    55   150   151   ar
    56   150   152   ar
    57   151   153   ar
    58    82    83    1
    59    94    93    1
    60   103   102    1
    61    41    38    1
    62    41    42    1
    63    38    37    1
    64    89    83   am
    65    89    90    1
    66   152   154   ar
    67   153   154   ar
    68    83    84    2
    69    93    90    1
    70    37    30   am
    71   102   101    1
    72   136   135    1
    73    90    91    1
    74    30    29    1
    75    30    31    2
    76    91    92    2
    77    91    95   am
    78   117   116    1
    79   101   100    1
    80    29    32    1
    81    29    28    1
    82   135   137    1
    83   135   134    1
    84    99   100    1
    85    99    96    1
    86   116   113    1
    87    95    96    1
    88   134   131    1
    89    32    33    1
    90   131   130    1
    91   131   132    1
    92    33    34    1
    93   115   114    2
    94   113   114    1
    95   113   112    1
    96    96    97    1
    97   114   118   am
    98   133   132    2
    99    34    35    1
   100    98    97    2
   101   112   110   am
   102    97   104   am
   103   118   119    1
   104    35    36    1
   105   110   111    2
   106   110   109    1
   107   119   120    1
   108   104   105    1
   109   107   106    2
   110   120   121    2
   111   120   122   am
   112   106   108   am
   113   106   105    1
   114    13    10    1
   115    13    14    1
   116   109   108    1
   117    10    11    1
   118    10     9    1
   119   124   125    2
   120   124   123    1
   121   122   123    1
   122    11    12    2
   123   123   126    1
   124    14    15   ar
   125    14    16   ar
   126   126   127    1
   127    15    17   ar
   128    16    18   ar
   129   127   129   ar
   130   127   128   ar
   131     8     6   ar
   132    17    18   ar
   133     7     6   ar
   134     6     5    1
   135    26    25   ar
   136     5     2    1
   137    19    20    1
   138    25    27   ar
   139    25    24    1
   140    23    20    1
   141    23    24    1
   142    21    20    1
   143    21    22    2
   144     2     1    1
   145     2     3    1
   146     3     4    2
