@<TRIPOS>MOLECULE
tmp/3rs9A01.pdb
 142 138 0 0 0
SMALL
GASTEIGER

@<TRIPOS>ATOM
      1  N         -1.0730   50.4950   18.9350 N.3     3  LYS3       -0.1245
      2  CA        -1.4720   51.8490   18.5390 C.3     3  LYS3        0.1561
      3  C         -0.1910   52.7240   18.4540 C.2     3  LYS3        0.2260
      4  O         -0.0170   53.5050   17.5080 O.2     3  LYS3       -0.2867
      5  CB        -2.5130   52.4180   19.5040 C.3     3  LYS3        0.0271
      6  CG        -3.1630   53.7280   19.0370 C.3     3  LYS3        0.0035
      7  CD        -3.1300   54.7780   20.1530 C.3     3  LYS3        0.0206
      8  CE        -4.1230   55.8810   19.9040 C.3     3  LYS3        0.1093
      9  NZ        -5.4900   55.3730   20.1580 N.3     3  LYS3       -0.1314
     10  N        -17.0170   53.4000   11.1170 N.3    50  GLY50      -0.1210
     11  CA       -16.4300   54.6230   10.6270 C.3    50  GLY50       0.1956
     12  C        -14.9670   54.8460   10.9480 C.2    50  GLY50       0.2612
     13  O        -14.4070   55.8450   10.4970 O.2    50  GLY50      -0.2717
     14  N        -14.3590   53.9300   11.7170 N.am   51  GLY51      -0.1942
     15  CA       -12.9790   54.0320   12.1450 C.3    51  GLY51       0.2014
     16  C        -12.0390   53.3510   11.1870 C.2    51  GLY51       0.2639
     17  O        -12.4220   52.9370   10.0780 O.2    51  GLY51      -0.2714
     18  N        -10.7950   53.2140   11.6120 N.am   52  ASN52      -0.1958
     19  CA        -9.8220   52.5620   10.7760 C.3    52  ASN52       0.1819
     20  C        -10.0860   51.0640   10.5860 C.2    52  ASN52       0.2621
     21  O         -9.6730   50.4750    9.6070 O.2    52  ASN52      -0.2715
     22  CB        -8.4320   52.8530   11.3040 C.3    52  ASN52       0.1195
     23  CG        -7.9720   54.3320   11.0220 C.2    52  ASN52       0.2630
     24  OD1       -8.4950   55.1060   10.1420 O.2    52  ASN52      -0.2716
     25  ND2       -7.0130   54.7400   11.8360 N.am   52  ASN52      -0.0877
     26  N        -10.8140   50.4590   11.5040 N.am   53  ASN53      -0.1972
     27  CA       -11.1850   49.0810   11.3640 C.3    53  ASN53       0.1688
     28  C        -12.0910   48.9720   10.1320 C.2    53  ASN53       0.2292
     29  O        -11.8850   48.1340    9.2130 O.2    53  ASN53      -0.2864
     30  CB       -11.8610   48.5740   12.6390 C.3    53  ASN53       0.1181
     31  CG       -11.8880   47.0740   12.7120 C.2    53  ASN53       0.2629
     32  OD1      -12.9320   46.4650   12.6710 O.2    53  ASN53      -0.2716
     33  ND2      -10.7550   46.4910   12.9200 N.am   53  ASN53      -0.0877
     34  N        -19.4260   59.1820   11.0910 N.3    79  LYS79      -0.1245
     35  CA       -18.3860   59.8320   10.3090 C.3    79  LYS79       0.1561
     36  C        -17.2950   58.8210    9.9750 C.2    79  LYS79       0.2260
     37  O        -17.3070   57.7110   10.4830 O.2    79  LYS79      -0.2867
     38  CB       -17.8260   61.0320   11.0630 C.3    79  LYS79       0.0271
     39  CG       -17.0200   60.6980   12.3230 C.3    79  LYS79       0.0035
     40  CD       -17.2340   61.7860   13.4280 C.3    79  LYS79       0.0206
     41  CE       -16.1300   61.7630   14.5130 C.3    79  LYS79       0.1093
     42  NZ       -15.3790   60.4650   14.5130 N.3    79  LYS79      -0.1314
     43  N        -13.0400   58.2370    9.5430 N.3    81  THR81      -0.1218
     44  CA       -11.7020   58.7870    9.6760 C.3    81  THR81       0.1862
     45  C        -11.1260   59.0230    8.2470 C.2    81  THR81       0.2287
     46  O        -11.6530   58.5060    7.2460 O.2    81  THR81      -0.2866
     47  CB       -10.7580   57.8610   10.3990 C.3    81  THR81       0.1770
     48  OG1      -10.6330   56.6850    9.6260 O.3    81  THR81      -0.2211
     49  CG2      -11.2190   57.5110   11.8190 C.3    81  THR81       0.0375
     50  N        -16.4550   46.2550   12.0580 N.3   117  ILE117     -0.1231
     51  CA       -17.2440   47.2810   12.7420 C.3   117  ILE117      0.1692
     52  C        -16.3800   48.0760   13.7430 C.2   117  ILE117      0.2592
     53  O        -16.1650   49.2700   13.5700 O.2   117  ILE117     -0.2718
     54  CB       -18.4550   46.6910   13.4720 C.3   117  ILE117      0.0266
     55  CG1      -19.3560   45.9090   12.5010 C.3   117  ILE117      0.0019
     56  CG2      -19.1930   47.8320   14.2130 C.3   117  ILE117      0.0020
     57  CD1      -20.5630   45.1710   13.1850 C.3   117  ILE117      0.0001
     58  N        -15.8630   47.4110   14.7590 N.am  118  PHE118     -0.1962
     59  CA       -14.9510   48.0420   15.7490 C.3   118  PHE118      0.1771
     60  C        -13.6570   47.2440   15.9050 C.2   118  PHE118      0.2620
     61  O        -13.6710   46.0050   15.9850 O.2   118  PHE118     -0.2715
     62  CB       -15.5820   48.1140   17.1340 C.3   118  PHE118      0.0574
     63  CG       -16.9420   48.7650   17.1770 C.ar  118  PHE118     -0.0200
     64  CD1      -17.1130   50.1130   16.8240 C.ar  118  PHE118     -0.0042
     65  CD2      -18.0410   48.0600   17.6280 C.ar  118  PHE118     -0.0042
     66  CE1      -18.3630   50.7150   16.8840 C.ar  118  PHE118     -0.0003
     67  CE2      -19.3030   48.6650   17.6950 C.ar  118  PHE118     -0.0003
     68  CZ       -19.4540   49.9950   17.3070 C.ar  118  PHE118     -0.0000
     69  N        -12.5380   47.9310   16.0090 N.am  119  GLY119     -0.1940
     70  CA       -11.3030   47.2120   16.2900 C.3   119  GLY119      0.2014
     71  C        -10.7870   47.4940   17.6940 C.2   119  GLY119      0.2640
     72  O        -11.5180   47.3950   18.7040 O.2   119  GLY119     -0.2714
     73  N         -9.5240   47.8940   17.7520 N.am  120  THR120     -0.1936
     74  CA        -8.9220   48.2170   19.0300 C.3   120  THR120      0.2028
     75  C         -9.3730   49.5910   19.5230 C.2   120  THR120      0.2643
     76  O         -9.0630   49.9690   20.6230 O.2   120  THR120     -0.2714
     77  CB        -7.3920   48.1040   18.9330 C.3   120  THR120      0.1808
     78  OG1       -6.9360   49.0740   18.0080 O.3   120  THR120     -0.2208
     79  CG2       -6.9810   46.6940   18.4530 C.3   120  THR120      0.0379
     80  N        -10.1470   50.3130   18.7230 N.am  121  GLY121     -0.1939
     81  CA       -10.6770   51.6360   19.0870 C.3   121  GLY121      0.2014
     82  C        -12.0370   51.6000   19.7710 C.2   121  GLY121      0.2639
     83  O        -12.6980   52.6510   19.9210 O.2   121  GLY121     -0.2714
     84  N        -12.4370   50.4070   20.2190 N.am  122  LEU122     -0.1963
     85  CA       -13.7020   50.2030   20.9340 C.3   122  LEU122      0.1728
     86  C        -13.6220   50.8490   22.2980 C.2   122  LEU122      0.2616
     87  O        -12.7100   50.5790   23.0530 O.2   122  LEU122     -0.2715
     88  CB       -13.9620   48.7140   21.1340 C.3   122  LEU122      0.0311
     89  CG       -15.2110   48.3560   21.9600 C.3   122  LEU122      0.0022
     90  CD1      -16.4660   48.7920   21.3060 C.3   122  LEU122      0.0001
     91  CD2      -15.2240   46.8380   22.2320 C.3   122  LEU122      0.0001
     92  N        -14.6020   51.6970   22.6000 N.am  123  ARG123     -0.1963
     93  CA       -14.7100   52.3500   23.8810 C.3   123  ARG123      0.1729
     94  C        -16.1390   52.1240   24.4000 C.2   123  ARG123      0.2617
     95  O        -17.0980   52.6390   23.8130 O.2   123  ARG123     -0.2715
     96  CB       -14.4210   53.8580   23.7350 C.3   123  ARG123      0.0348
     97  CG       -12.9900   54.2140   23.2950 C.3   123  ARG123      0.0492
     98  CD       -11.9140   53.8330   24.3610 C.3   123  ARG123      0.2205
     99  NE       -10.5610   54.0510   23.8200 N.pl3 123  ARG123     -0.0865
    100  CZ        -9.8890   53.2000   23.0390 C.cat 123  ARG123      0.5346
    101  NH1      -10.4080   52.0040   22.6850 N.pl3 123  ARG123      0.1354
    102  NH2       -8.6750   53.5440   22.6150 N.pl3 123  ARG123      0.1354
    103  N        -16.2700   51.3360   25.4620 N.am  124  GLY124     -0.1940
    104  CA       -17.5180   51.2240   26.1400 C.3   124  GLY124      0.2014
    105  C        -18.3850   50.1170   25.6230 C.2   124  GLY124      0.2639
    106  O        -18.0980   49.5090   24.5870 O.2   124  GLY124     -0.2714
    107  N        -19.4500   49.8590   26.3820 N.am  125  GLU125     -0.1963
    108  CA       -20.4430   48.8210   26.0910 C.3   125  GLU125      0.1733
    109  C        -21.0640   49.0670   24.7160 C.2   125  GLU125      0.2616
    110  O        -21.3620   50.1980   24.3710 O.2   125  GLU125     -0.2715
    111  CB       -21.5670   48.8390   27.1590 C.3   125  GLU125      0.0429
    112  CG       -21.0870   48.6310   28.6190 C.3   125  GLU125      0.1163
    113  CD       -20.5820   47.2080   28.9190 C.2   125  GLU125      0.3649
    114  OE1      -19.3490   47.0090   29.1210 O.co2 125  GLU125     -0.2457
    115  OE2      -21.4150   46.2810   28.9660 O.co2 125  GLU125     -0.2457
    116  N        -21.2140   48.0110   23.9250 N.am  126  ILE126     -0.1963
    117  CA       -21.9620   48.1010   22.6660 C.3   126  ILE126      0.1727
    118  C        -23.4560   47.9770   22.9430 C.2   126  ILE126      0.2616
    119  O        -23.9060   46.9840   23.5160 O.2   126  ILE126     -0.2715
    120  CB       -21.5340   47.0150   21.6790 C.3   126  ILE126      0.0290
    121  CG1      -20.0520   47.1880   21.3220 C.3   126  ILE126      0.0022
    122  CG2      -22.4080   47.0080   20.3940 C.3   126  ILE126      0.0023
    123  CD1      -19.5330   46.0880   20.3070 C.3   126  ILE126      0.0001
    124  N        -24.2170   48.9930   22.5490 N.am  127  THR127     -0.1951
    125  CA       -25.6810   48.9550   22.6880 C.3   127  THR127      0.1897
    126  C        -26.3580   49.3680   21.3830 C.2   127  THR127      0.2313
    127  O        -25.6960   49.6440   20.3650 O.2   127  THR127     -0.2863
    128  CB       -26.1930   49.9220   23.7760 C.3   127  THR127      0.1794
    129  OG1      -25.5400   51.1840   23.6160 O.3   127  THR127     -0.2208
    130  CG2      -25.9830   49.3730   25.1730 C.3   127  THR127      0.0378
    131  N        -25.9920   48.7370   16.9660 N.3   130  TYR130     -0.1241
    132  CA       -24.7350   47.9700   16.7920 C.3   130  TYR130      0.1605
    133  C        -24.8940   46.5870   17.4350 C.2   130  TYR130      0.2264
    134  O        -24.4740   45.5850   16.8650 O.2   130  TYR130     -0.2867
    135  CB       -23.4990   48.6750   17.3790 C.3   130  TYR130      0.0534
    136  CG       -23.0230   49.9080   16.6400 C.ar  130  TYR130     -0.0201
    137  CD1      -22.3110   49.7990   15.4330 C.ar  130  TYR130     -0.0009
    138  CD2      -23.2540   51.1930   17.1520 C.ar  130  TYR130     -0.0009
    139  CE1      -21.8550   50.9390   14.7550 C.ar  130  TYR130      0.0417
    140  CE2      -22.8070   52.3480   16.4710 C.ar  130  TYR130      0.0417
    141  CZ       -22.0960   52.1910   15.2730 C.ar  130  TYR130      0.1957
    142  OH       -21.6370   53.3050   14.5860 O.3   130  TYR130     -0.2866
@<TRIPOS>BOND
     1    46    45    2
     2    45    44    1
     3    29    28    2
     4    43    44    1
     5    21    20    2
     6    48    47    1
     7    44    47    1
     8    36    35    1
     9    36    37    2
    10    17    16    2
    11    28    27    1
    12    24    23    2
    13    35    38    1
    14    35    34    1
    15    47    49    1
    16    13    12    2
    17    20    19    1
    18    20    26   am
    19    11    12    1
    20    11    10    1
    21    19    22    1
    22    19    18    1
    23    12    14   am
    24    23    22    1
    25    23    25   am
    26    38    39    1
    27    16    18   am
    28    16    15    1
    29    27    26    1
    30    27    30    1
    31    14    15    1
    32    50    51    1
    33    39    40    1
    34    55    57    1
    35    55    54    1
    36    30    31    1
    37    32    31    2
    38    31    33   am
    39    51    54    1
    40    51    52    1
    41    40    41    1
    42    54    56    1
    43    53    52    2
    44    52    58   am
    45    42    41    1
    46   142   141    1
    47   139   141   ar
    48   139   137   ar
    49    58    59    1
    50   141   140   ar
    51   137   136   ar
    52    59    60    1
    53    59    62    1
    54    60    61    2
    55    60    69   am
    56    69    70    1
    57    70    71    1
    58   140   138   ar
    59   136   138   ar
    60   136   135    1
    61   132   131    1
    62   132   135    1
    63   132   133    1
    64    64    66   ar
    65    64    63   ar
    66   134   133    2
    67    66    68   ar
    68    62    63    1
    69    63    65   ar
    70    68    67   ar
    71     4     3    2
    72    65    67   ar
    73    71    73   am
    74    71    72    2
    75    73    74    1
    76    78    77    1
    77    79    77    1
    78     3     2    1
    79     2     1    1
    80     2     5    1
    81    80    81    1
    82    80    75   am
    83    77    74    1
    84    74    75    1
    85     6     5    1
    86     6     7    1
    87    81    82    1
    88    75    76    2
    89    82    83    2
    90    82    84   am
    91     8     7    1
    92     8     9    1
    93    84    85    1
    94   123   121    1
    95   127   126    2
    96   122   120    1
    97    85    88    1
    98    85    86    1
    99    88    89    1
   100    90    89    1
   101   121   120    1
   102   126   125    1
   103   120   117    1
   104    89    91    1
   105    86    92   am
   106    86    87    2
   107   124   125    1
   108   124   118   am
   109    92    93    1
   110   102   100    1
   111   117   118    1
   112   117   116    1
   113   101   100    1
   114   125   128    1
   115   118   119    2
   116   100    99    2
   117    97    96    1
   118    97    98    1
   119   129   128    1
   120    96    93    1
   121   128   130    1
   122    95    94    2
   123    99    98    1
   124    93    94    1
   125   116   109   am
   126   110   109    2
   127    94   103   am
   128   106   105    2
   129   109   108    1
   130   103   104    1
   131   105   104    1
   132   105   107   am
   133   108   107    1
   134   108   111    1
   135   111   112    1
   136   112   113    1
   137   113   115   ar
   138   113   114   ar
