@<TRIPOS>MOLECULE
tmp/3rsbB00.pdb
 147 137 0 0 0
SMALL
GASTEIGER

@<TRIPOS>ATOM
      1  N         12.9330   -9.4020   69.6380 N.3     5  ALA5       -0.1231
      2  CA        13.6050   -8.7330   68.5610 C.3     5  ALA5        0.1694
      3  C         15.1450   -8.6440   68.6850 C.2     5  ALA5        0.2593
      4  O         15.7220   -7.6440   68.3690 O.2     5  ALA5       -0.2718
      5  CB        13.0460   -7.4130   68.4390 C.3     5  ALA5        0.0304
      6  N         15.8140   -9.6800   69.1530 N.am    6  GLY6       -0.1942
      7  CA        17.2510   -9.6280   69.3080 C.3     6  GLY6        0.2014
      8  C         18.1860  -10.2520   68.3130 C.2     6  GLY6        0.2639
      9  O         19.3800  -10.1340   68.4760 O.2     6  GLY6       -0.2714
     10  N         17.6000  -10.9120   67.3240 N.am    7  GLY7       -0.1939
     11  CA        18.2110  -11.6730   66.2440 C.3     7  GLY7        0.2014
     12  C         18.9020  -11.0830   65.0550 C.2     7  GLY7        0.2639
     13  O         18.7580   -9.9370   64.7300 O.2     7  GLY7       -0.2714
     14  N         19.6670  -11.9170   64.3920 N.am    8  LYS8       -0.1963
     15  CA        20.4400  -11.4760   63.2660 C.3     8  LYS8        0.1728
     16  C         19.8240  -11.5980   61.9150 C.2     8  LYS8        0.2617
     17  O         20.4200  -11.2730   60.9500 O.2     8  LYS8       -0.2715
     18  CB        21.7960  -12.1150   63.2880 C.3     8  LYS8        0.0311
     19  CG        22.1800  -12.5770   64.6370 C.3     8  LYS8        0.0038
     20  CD        23.5790  -13.1060   64.6410 C.3     8  LYS8        0.0206
     21  CE        23.8240  -14.1400   65.7170 C.3     8  LYS8        0.1093
     22  NZ        25.0830  -14.8840   65.4710 N.3     8  LYS8       -0.1314
     23  N         18.6360  -12.1120   61.8120 N.am    9  GLY9       -0.1940
     24  CA        18.0590  -12.0890   60.5100 C.3     9  GLY9        0.2014
     25  C         19.0410  -12.5300   59.5120 C.2     9  GLY9        0.2640
     26  O         19.2880  -11.8550   58.5710 O.2     9  GLY9       -0.2714
     27  N         19.6050  -13.6910   59.7180 N.am   10  THR10      -0.1936
     28  CA        20.6020  -14.1850   58.7910 C.3    10  THR10       0.2028
     29  C         20.1320  -14.4570   57.4040 C.2    10  THR10       0.2642
     30  O         20.7950  -14.1640   56.4640 O.2    10  THR10      -0.2714
     31  CB        21.2390  -15.4040   59.2700 C.3    10  THR10       0.1808
     32  OG1       21.4910  -15.2730   60.6530 O.3    10  THR10      -0.2208
     33  CG2       22.4960  -15.5010   58.6100 C.3    10  THR10       0.0379
     34  N         18.9720  -15.0270   57.2740 N.am   11  ARG11      -0.1977
     35  CA        18.4790  -15.3330   55.9740 C.3    11  ARG11       0.1597
     36  C         18.1620  -14.0990   55.1830 C.2    11  ARG11       0.2287
     37  O         17.9210  -14.1710   54.0150 O.2    11  ARG11      -0.2864
     38  CB        17.3190  -16.2490   56.1030 C.3    11  ARG11       0.0334
     39  CG        17.5430  -17.1020   57.2720 C.3    11  ARG11       0.0492
     40  CD        16.5380  -18.1710   57.3620 C.3    11  ARG11       0.2205
     41  NE        16.1260  -18.3830   58.7250 N.pl3  11  ARG11      -0.0865
     42  CZ        15.0950  -19.1160   59.0380 C.cat  11  ARG11       0.5346
     43  NH1       14.4220  -19.6700   58.0790 N.pl3  11  ARG11       0.1354
     44  NH2       14.7460  -19.2900   60.2770 N.pl3  11  ARG11       0.1354
     45  N         15.4280   -7.2550   61.1840 N.3    16  LYS16      -0.1231
     46  CA        14.1590   -7.6360   60.6190 C.3    16  LYS16       0.1678
     47  C         13.0280   -6.7520   60.9800 C.2    16  LYS16       0.2434
     48  O         12.2220   -6.4010   60.1790 O.2    16  LYS16      -0.2733
     49  CB        13.7940   -8.9950   61.1480 C.3    16  LYS16       0.0284
     50  CG        13.8980  -10.1250   60.2130 C.3    16  LYS16       0.0035
     51  CD        13.5080  -11.3580   60.9500 C.3    16  LYS16       0.0206
     52  CE        13.4540  -12.5480   60.0830 C.3    16  LYS16       0.1093
     53  NZ        13.1420  -13.6880   60.9070 N.3    16  LYS16      -0.1314
     54  N         13.0000   -6.3830   62.2180 N.am   17  PRO17      -0.2729
     55  CA        11.9560   -5.5990   62.7890 C.3    17  PRO17       0.1401
     56  C         11.8880   -4.3850   62.0110 C.2    17  PRO17       0.2269
     57  O         10.8660   -3.8000   61.9860 O.2    17  PRO17      -0.2865
     58  CB        12.5330   -5.2460   64.1030 C.3    17  PRO17       0.0296
     59  CG        13.3960   -6.2830   64.3980 C.3    17  PRO17       0.0237
     60  CD        14.0080   -6.7210   63.1960 C.3    17  PRO17       0.0939
     61  N         12.1780   -7.0260   72.9840 N.3    45  ALA45      -0.1245
     62  CA        13.5390   -7.3740   73.3250 C.3    45  ALA45       0.1562
     63  C         14.4260   -7.2210   72.1650 C.2    45  ALA45       0.2260
     64  O         14.2270   -7.8230   71.1660 O.2    45  ALA45      -0.2867
     65  CB        13.5820   -8.7410   73.7710 C.3    45  ALA45       0.0290
     66  N         18.3790   -7.3360   70.7110 N.3    47  SER47      -0.1217
     67  CA        19.7540   -7.7600   70.8910 C.3    47  SER47       0.1889
     68  C         20.6870   -6.7010   70.4350 C.2    47  SER47       0.2288
     69  O         20.2600   -5.7160   69.9230 O.2    47  SER47      -0.2866
     70  CB        20.0750   -9.0890   70.1970 C.3    47  SER47       0.2089
     71  OG        21.4150   -9.5060   70.3160 O.3    47  SER47      -0.2183
     72  N         22.3690   -7.0340   68.1860 N.3    49  ASN49      -0.1240
     73  CA        22.2180   -7.3060   66.7610 C.3    49  ASN49       0.1653
     74  C         21.3000   -6.3050   66.0630 C.2    49  ASN49       0.2266
     75  O         21.2960   -6.1690   64.8640 O.2    49  ASN49      -0.2867
     76  CB        21.6890   -8.7230   66.5580 C.3    49  ASN49       0.1155
     77  CG        22.6160   -9.7770   67.0660 C.2    49  ASN49       0.2627
     78  OD1       22.2050  -10.6920   67.7320 O.2    49  ASN49      -0.2716
     79  ND2       23.8590   -9.6760   66.7210 N.am   49  ASN49      -0.0877
     80  N         18.2100   -7.7070   75.9020 N.3    71  ASP71      -0.1225
     81  CA        18.8580   -9.0420   75.8900 C.3    71  ASP71       0.1805
     82  C         20.1420   -9.0750   75.0830 C.2    71  ASP71       0.2598
     83  O         20.7100   -8.0680   74.8220 O.2    71  ASP71      -0.2718
     84  CB        17.9390  -10.1450   75.3200 C.3    71  ASP71       0.1424
     85  CG        18.5750  -11.5650   75.4340 C.2    71  ASP71       0.3668
     86  OD1       18.1380  -12.5730   74.8240 O.co2  71  ASP71      -0.2456
     87  OD2       19.5550  -11.6730   76.1820 O.co2  71  ASP71      -0.2456
     88  N         20.5850  -10.2640   74.6920 N.am   72  THR72      -0.1953
     89  CA        21.7850  -10.4620   73.8790 C.3    72  THR72       0.1897
     90  C         21.5330  -11.4550   72.7460 C.2    72  THR72       0.2313
     91  O         22.2140  -12.4590   72.5920 O.2    72  THR72      -0.2863
     92  CB        22.8800  -11.0190   74.6680 C.3    72  THR72       0.1794
     93  OG1       22.7570  -10.5820   76.0140 O.3    72  THR72      -0.2208
     94  CG2       24.1550  -10.5670   74.1060 C.3    72  THR72       0.0378
     95  N         14.0650  -17.5360   70.9260 N.3    73  GLU73      -0.1245
     96  CA        15.3930  -17.7320   71.5050 C.3    73  GLU73       0.1567
     97  C         15.3630  -17.7390   72.9960 C.2    73  GLU73       0.2260
     98  O         15.1580  -16.7470   73.6250 O.2    73  GLU73      -0.2867
     99  CB        16.3350  -16.6800   71.0360 C.3    73  GLU73       0.0388
    100  CG        17.7190  -17.0570   71.1170 C.3    73  GLU73       0.1160
    101  CD        18.2380  -16.7700   72.4130 C.2    73  GLU73       0.3649
    102  OE1       17.4800  -16.9270   73.3500 O.co2  73  GLU73      -0.2457
    103  OE2       19.3860  -16.3740   72.5020 O.co2  73  GLU73      -0.2457
    104  N         16.4820  -15.8350   76.4290 N.3    76  ASN76      -0.1240
    105  CA        15.7260  -14.6970   76.9010 C.3    76  ASN76       0.1653
    106  C         15.6240  -14.6640   78.4480 C.2    76  ASN76       0.2266
    107  O         15.2120  -15.5860   79.1160 O.2    76  ASN76      -0.2867
    108  CB        14.3870  -14.6910   76.2040 C.3    76  ASN76       0.1155
    109  CG        13.3450  -15.4270   76.9400 C.2    76  ASN76       0.2627
    110  OD1       13.1990  -15.2550   78.1020 O.2    76  ASN76      -0.2716
    111  ND2       12.5620  -16.2090   76.2470 N.am   76  ASN76      -0.0877
    112  N          7.1170  -13.0900   67.6860 N.3    90  SER90      -0.1202
    113  CA         8.2230  -12.5860   66.9120 C.3    90  SER90       0.2020
    114  C          7.8790  -11.2680   66.2810 C.2    90  SER90       0.2619
    115  O          6.7840  -10.8800   66.2580 O.2    90  SER90      -0.2717
    116  CB         8.6320  -13.5790   65.8470 C.3    90  SER90       0.2103
    117  OG         9.3090  -14.6560   66.4130 O.3    90  SER90      -0.2182
    118  N          8.8610  -10.5840   65.7600 N.am   91  SER91      -0.1937
    119  CA         8.6680   -9.2910   65.1580 C.3    91  SER91       0.2055
    120  C          8.4240   -9.4190   63.7070 C.2    91  SER91       0.2643
    121  O          8.4380   -8.4690   63.0080 O.2    91  SER91      -0.2714
    122  CB         9.9080   -8.4650   65.3290 C.3    91  SER91       0.2130
    123  OG        11.0020   -9.1760   64.8630 O.3    91  SER91      -0.2179
    124  N          8.1860  -10.6240   63.2550 N.am   92  ASP92      -0.1971
    125  CA         8.0030  -10.8870   61.8560 C.3    92  ASP92       0.1709
    126  C          6.6510  -11.4270   61.4320 C.2    92  ASP92       0.2293
    127  O          6.5820  -12.1360   60.4600 O.2    92  ASP92      -0.2864
    128  CB         9.1240  -11.8210   61.3850 C.3    92  ASP92       0.1436
    129  CG         9.2250  -13.0860   62.1990 C.2    92  ASP92       0.3671
    130  OD1        8.4190  -13.3400   63.0630 O.co2  92  ASP92      -0.2456
    131  OD2       10.1020  -13.8800   61.9760 O.co2  92  ASP92      -0.2456
    132  N          4.5990  -18.7080   65.6800 N.3   143  ASP143     -0.1239
    133  CA         5.4870  -17.7730   66.3450 C.3   143  ASP143      0.1674
    134  C          4.8390  -16.9020   67.3770 C.2   143  ASP143      0.2266
    135  O          5.2960  -15.8390   67.6700 O.2   143  ASP143     -0.2867
    136  CB         6.2740  -16.9510   65.3710 C.3   143  ASP143      0.1410
    137  CG         7.4460  -17.6610   64.8960 C.2   143  ASP143      0.3668
    138  OD1        7.3530  -18.8620   64.8550 O.co2 143  ASP143     -0.2456
    139  OD2        8.4550  -17.0670   64.5950 O.co2 143  ASP143     -0.2456
    140  N         10.8230  -15.0960   57.2250 N.3   168  ASN168     -0.1240
    141  CA        12.1850  -15.4090   57.5220 C.3   168  ASN168      0.1653
    142  C         13.0160  -15.1330   56.3280 C.2   168  ASN168      0.2266
    143  O         14.1860  -15.0040   56.4260 O.2   168  ASN168     -0.2867
    144  CB        12.3630  -16.8550   57.8790 C.3   168  ASN168      0.1155
    145  CG        11.4970  -17.2700   58.9340 C.2   168  ASN168      0.2627
    146  OD1       11.5660  -16.7600   59.9940 O.2   168  ASN168     -0.2716
    147  ND2       10.6530  -18.2080   58.6640 N.am  168  ASN168     -0.0877
@<TRIPOS>BOND
     1    37    36    2
     2    36    35    1
     3    35    38    1
     4    35    34    1
     5    38    39    1
     6   142   143    2
     7   142   141    1
     8    30    29    2
     9   140   141    1
    10    39    40    1
    11    34    29   am
    12    40    41    1
    13    29    28    1
    14   141   144    1
    15   144   145    1
    16    43    42    1
    17    26    25    2
    18    33    31    1
    19   147   145   am
    20    41    42    2
    21    28    31    1
    22    28    27    1
    23   145   146    2
    24    42    44    1
    25    31    32    1
    26    25    27   am
    27    25    24    1
    28    52    53    1
    29    52    51    1
    30    48    47    2
    31    50    51    1
    32    50    49    1
    33   127   126    2
    34    24    23    1
    35    46    47    1
    36    46    49    1
    37    46    45    1
    38    17    16    2
    39    47    54   am
    40   128   125    1
    41   128   129    1
    42   126   125    1
    43    23    16   am
    44   125   124    1
    45    16    15    1
    46   131   129   ar
    47    57    56    2
    48    56    55    1
    49   129   130   ar
    50    54    55    1
    51    54    60    1
    52    55    58    1
    53   121   120    2
    54    60    59    1
    55   124   120   am
    56    15    18    1
    57    15    14    1
    58    18    19    1
    59   120   119    1
    60    58    59    1
    61    14    12   am
    62   139   137   ar
    63    19    20    1
    64    20    21    1
    65    13    12    2
    66   138   137   ar
    67   123   122    1
    68    75    74    2
    69   137   136    1
    70    12    11    1
    71   119   122    1
    72   119   118    1
    73   136   133    1
    74    22    21    1
    75   132   133    1
    76   118   114   am
    77   116   117    1
    78   116   113    1
    79    74    73    1
    80    11    10    1
    81   115   114    2
    82   114   113    1
    83   133   134    1
    84    76    73    1
    85    76    77    1
    86    79    77   am
    87    73    72    1
    88   113   112    1
    89    77    78    2
    90    10     8   am
    91   134   135    2
    92     8     9    2
    93     8     7    1
    94     4     3    2
    95     5     2    1
    96     2     3    1
    97     2     1    1
    98     3     6   am
    99     6     7    1
   100    69    68    2
   101    70    71    1
   102    70    67    1
   103    68    67    1
   104    66    67    1
   105    95    96    1
   106    99   100    1
   107    99    96    1
   108   100   101    1
   109    64    63    2
   110    96    97    1
   111    63    62    1
   112   101   103   ar
   113   101   102   ar
   114    91    90    2
   115    90    89    1
   116    61    62    1
   117    97    98    2
   118    62    65    1
   119    89    92    1
   120    89    88    1
   121    94    92    1
   122    92    93    1
   123    88    82   am
   124    83    82    2
   125    86    85   ar
   126    82    81    1
   127    84    85    1
   128    84    81    1
   129    85    87   ar
   130    81    80    1
   131   108   105    1
   132   108   109    1
   133   111   109   am
   134   104   105    1
   135   105   106    1
   136   109   110    2
   137   106   107    2
