@<TRIPOS>MOLECULE
tmp/3rscB01.pdb
 225 218 0 0 0
SMALL
GASTEIGER

@<TRIPOS>ATOM
      1  N         13.4250    5.5240  -24.9710 N.3    11  SER11      -0.1217
      2  CA        12.6010    6.2320  -25.9460 C.3    11  SER11       0.1889
      3  C         12.9140    7.7290  -25.8930 C.2    11  SER11       0.2288
      4  O         12.9720    8.3170  -24.8130 O.2    11  SER11      -0.2866
      5  CB        11.1160    5.9860  -25.6600 C.3    11  SER11       0.2089
      6  OG        10.2890    6.8140  -26.4610 O.3    11  SER11      -0.2183
      7  N         10.3360   10.1260  -24.1240 N.3    14  LEU14      -0.1245
      8  CA        10.2340    9.9330  -22.6810 C.3    14  LEU14       0.1561
      9  C         11.4550   10.4770  -21.9400 C.2    14  LEU14       0.2260
     10  O         11.3580   10.9110  -20.7900 O.2    14  LEU14      -0.2867
     11  CB        10.0640    8.4450  -22.3690 C.3    14  LEU14       0.0270
     12  CG         8.6710    7.8240  -22.5210 C.3    14  LEU14       0.0019
     13  CD1        7.9570    8.2890  -23.7840 C.3    14  LEU14       0.0001
     14  CD2        8.7650    6.3030  -22.4780 C.3    14  LEU14       0.0001
     15  N         11.9920   -2.5490  -26.6470 N.3    58  ILE58      -0.1245
     16  CA        11.3630   -1.5060  -27.4390 C.3    58  ILE58       0.1561
     17  C         12.3940   -0.6960  -28.2170 C.2    58  ILE58       0.2260
     18  O         12.0990   -0.1670  -29.2870 O.2    58  ILE58      -0.2867
     19  CB        10.4860   -0.5700  -26.5730 C.3    58  ILE58       0.0252
     20  CG1       11.3310    0.1540  -25.5230 C.3    58  ILE58       0.0019
     21  CG2        9.3650   -1.3590  -25.8960 C.3    58  ILE58       0.0019
     22  CD1       10.5870    1.2960  -24.8240 C.3    58  ILE58       0.0001
     23  N         12.6010   -2.2940  -31.3350 N.3    61  ALA61      -0.1245
     24  CA        11.3140   -2.6410  -31.9210 C.3    61  ALA61       0.1562
     25  C         10.7780   -1.5500  -32.8440 C.2    61  ALA61       0.2260
     26  O         10.9740   -0.3620  -32.6010 O.2    61  ALA61      -0.2867
     27  CB        10.3030   -2.9580  -30.8280 C.3    61  ALA61       0.0290
     28  N          7.4630    0.0480  -33.8250 N.3    63  ALA63      -0.1245
     29  CA         6.1230    0.1450  -33.2650 C.3    63  ALA63       0.1562
     30  C          5.0440   -0.1910  -34.2830 C.2    63  ALA63       0.2260
     31  O          4.0400   -0.8170  -33.9440 O.2    63  ALA63      -0.2867
     32  CB         5.8950    1.5350  -32.6890 C.3    63  ALA63       0.0290
     33  N          5.0830   -3.9830  -34.5180 N.3    66  VAL66      -0.1231
     34  CA         4.5570   -4.5720  -33.2870 C.3    66  VAL66       0.1692
     35  C          3.0370   -4.4350  -33.1910 C.2    66  VAL66       0.2592
     36  O          2.3370   -5.4100  -32.9130 O.2    66  VAL66      -0.2718
     37  CB         5.1970   -3.9560  -32.0280 C.3    66  VAL66       0.0266
     38  CG1        4.4530   -4.4150  -30.7780 C.3    66  VAL66       0.0020
     39  CG2        6.6660   -4.3310  -31.9430 C.3    66  VAL66       0.0020
     40  N          2.5280   -3.2270  -33.4220 N.am   67  PHE67      -0.1976
     41  CA         1.0910   -2.9820  -33.3180 C.3    67  PHE67       0.1639
     42  C          0.3030   -3.5790  -34.4860 C.2    67  PHE67       0.2290
     43  O         -0.9280   -3.6170  -34.4590 O.2    67  PHE67      -0.2864
     44  CB         0.7920   -1.4840  -33.1340 C.3    67  PHE67       0.0560
     45  CG         0.9270   -1.0150  -31.7080 C.ar   67  PHE67      -0.0200
     46  CD1       -0.1610   -1.0430  -30.8490 C.ar   67  PHE67      -0.0042
     47  CD2        2.1460   -0.5790  -31.2170 C.ar   67  PHE67      -0.0042
     48  CE1       -0.0380   -0.6380  -29.5350 C.ar   67  PHE67      -0.0003
     49  CE2        2.2740   -0.1660  -29.9000 C.ar   67  PHE67      -0.0003
     50  CZ         1.1820   -0.1960  -29.0610 C.ar   67  PHE67      -0.0000
     51  N          2.1060   -6.2570  -28.4500 N.3    76  PRO76      -0.2102
     52  CA         2.4750   -5.0560  -27.6900 C.3    76  PRO76       0.1504
     53  C          2.1870   -5.2190  -26.1960 C.2    76  PRO76       0.2575
     54  O          3.0700   -4.9800  -25.3770 O.2    76  PRO76      -0.2718
     55  CB         1.5860   -3.9620  -28.2990 C.3    76  PRO76       0.0282
     56  CG         0.5040   -4.6950  -29.0400 C.3    76  PRO76       0.0208
     57  CD         1.1400   -5.9580  -29.5190 C.3    76  PRO76       0.0893
     58  N          0.9750   -5.6400  -25.8500 N.am   77  HIS77      -0.1976
     59  CA         0.6010   -5.8020  -24.4490 C.3    77  HIS77       0.1656
     60  C          1.6550   -6.5890  -23.6770 C.2    77  HIS77       0.2291
     61  O          2.1240   -6.1510  -22.6280 O.2    77  HIS77      -0.2864
     62  CB        -0.7610   -6.4930  -24.3200 C.3    77  HIS77       0.0771
     63  CG        -1.9210   -5.6320  -24.7220 C.ar   77  HIS77       0.0820
     64  ND1       -1.7720   -4.3310  -25.1450 N.ar   77  HIS77      -0.2267
     65  CD2       -3.2490   -5.8930  -24.7640 C.ar   77  HIS77       0.1154
     66  CE1       -2.9590   -3.8250  -25.4340 C.ar   77  HIS77       0.1986
     67  NE2       -3.8700   -4.7510  -25.2100 N.ar   77  HIS77      -0.2212
     68  N          4.9810   -4.8930  -23.4410 N.3    79  TYR79      -0.1241
     69  CA         4.8790   -3.8180  -22.4540 C.3    79  TYR79       0.1605
     70  C          5.1840   -4.3280  -21.0490 C.2    79  TYR79       0.2264
     71  O          5.9060   -3.6820  -20.2820 O.2    79  TYR79      -0.2867
     72  CB         3.4810   -3.2000  -22.4910 C.3    79  TYR79       0.0534
     73  CG         3.2470   -2.1150  -21.4630 C.ar   79  TYR79      -0.0201
     74  CD1        3.7600   -0.8330  -21.6450 C.ar   79  TYR79      -0.0009
     75  CD2        2.5010   -2.3640  -20.3170 C.ar   79  TYR79      -0.0009
     76  CE1        3.5430    0.1650  -20.7120 C.ar   79  TYR79       0.0417
     77  CE2        2.2800   -1.3720  -19.3780 C.ar   79  TYR79       0.0417
     78  CZ         2.8020   -0.1090  -19.5830 C.ar   79  TYR79       0.1957
     79  OH         2.5850    0.8850  -18.6570 O.3    79  TYR79      -0.2866
     80  N          5.3640    7.3530  -17.0660 N.3   106  ASP106     -0.1225
     81  CA         4.1100    6.6430  -17.2930 C.3   106  ASP106      0.1805
     82  C          4.3350    5.2040  -17.7610 C.2   106  ASP106      0.2597
     83  O          3.7170    4.2770  -17.2460 O.2   106  ASP106     -0.2718
     84  CB         3.2600    7.3600  -18.3490 C.3   106  ASP106      0.1424
     85  CG         2.8900    8.7810  -17.9560 C.2   106  ASP106      0.3668
     86  OD1        2.6000    9.0310  -16.7660 O.co2 106  ASP106     -0.2456
     87  OD2        2.8760    9.6490  -18.8560 O.co2 106  ASP106     -0.2456
     88  N          5.2130    5.0270  -18.7450 N.am  107  PHE107     -0.1976
     89  CA         5.4130    3.7150  -19.3680 C.3   107  PHE107      0.1639
     90  C          5.8070    2.6470  -18.3370 C.2   107  PHE107      0.2290
     91  O          5.1290    1.6260  -18.2140 O.2   107  PHE107     -0.2864
     92  CB         6.4320    3.7980  -20.5220 C.3   107  PHE107      0.0560
     93  CG         6.5340    2.5360  -21.3490 C.ar  107  PHE107     -0.0200
     94  CD1        7.1400    1.3970  -20.8380 C.ar  107  PHE107     -0.0042
     95  CD2        6.0470    2.4990  -22.6450 C.ar  107  PHE107     -0.0042
     96  CE1        7.2400    0.2350  -21.5990 C.ar  107  PHE107     -0.0003
     97  CE2        6.1440    1.3460  -23.4120 C.ar  107  PHE107     -0.0003
     98  CZ         6.7390    0.2120  -22.8890 C.ar  107  PHE107     -0.0000
     99  N          5.3140    2.5210  -15.1800 N.3   109  PHE109     -0.1241
    100  CA         4.6720    2.8100  -13.8980 C.3   109  PHE109      0.1605
    101  C          4.4790    1.5510  -13.0460 C.2   109  PHE109      0.2264
    102  O          4.4680    1.6210  -11.8190 O.2   109  PHE109     -0.2867
    103  CB         3.3600    3.5890  -14.0750 C.3   109  PHE109      0.0534
    104  CG         2.1760    2.7360  -14.4400 C.ar  109  PHE109     -0.0203
    105  CD1        2.0530    2.1990  -15.7100 C.ar  109  PHE109     -0.0042
    106  CD2        1.1680    2.5000  -13.5190 C.ar  109  PHE109     -0.0042
    107  CE1        0.9540    1.4240  -16.0470 C.ar  109  PHE109     -0.0003
    108  CE2        0.0700    1.7280  -13.8500 C.ar  109  PHE109     -0.0003
    109  CZ        -0.0360    1.1890  -15.1120 C.ar  109  PHE109     -0.0000
    110  N          5.4940   10.4110  -10.3080 N.3   125  ARG125     -0.1245
    111  CA         5.2200   10.0020  -11.6810 C.3   125  ARG125      0.1563
    112  C          5.5830   11.1160  -12.6510 C.2   125  ARG125      0.2260
    113  O          5.2610   12.2790  -12.4200 O.2   125  ARG125     -0.2867
    114  CB         3.7490    9.6210  -11.8390 C.3   125  ARG125      0.0307
    115  CG         3.3580    9.1230  -13.2240 C.3   125  ARG125      0.0489
    116  CD         2.1210    8.2300  -13.1320 C.3   125  ARG125      0.2205
    117  NE         1.5820    7.8940  -14.4460 N.pl3 125  ARG125     -0.0865
    118  CZ         0.6860    6.9360  -14.6700 C.cat 125  ARG125      0.5346
    119  NH1        0.2240    6.2020  -13.6670 N.pl3 125  ARG125      0.1354
    120  NH2        0.2550    6.7110  -15.9050 N.pl3 125  ARG125      0.1354
    121  N         -5.2180    8.9490  -20.3200 N.3   138  PHE138     -0.1227
    122  CA        -4.4620    8.9340  -21.5620 C.3   138  PHE138      0.1736
    123  C         -4.3350    7.5010  -22.0870 C.2   138  PHE138      0.2596
    124  O         -4.4790    7.2490  -23.2860 O.2   138  PHE138     -0.2718
    125  CB        -3.0870    9.5710  -21.3300 C.3   138  PHE138      0.0547
    126  CG        -2.3070    9.8190  -22.5920 C.ar  138  PHE138     -0.0202
    127  CD1       -2.8690   10.5220  -23.6490 C.ar  138  PHE138     -0.0042
    128  CD2       -1.0050    9.3640  -22.7140 C.ar  138  PHE138     -0.0042
    129  CE1       -2.1510   10.7520  -24.8110 C.ar  138  PHE138     -0.0003
    130  CE2       -0.2810    9.5900  -23.8700 C.ar  138  PHE138     -0.0003
    131  CZ        -0.8540   10.2880  -24.9200 C.ar  138  PHE138     -0.0000
    132  N         -4.0890    6.5660  -21.1730 N.am  139  SER139     -0.1952
    133  CA        -3.9830    5.1470  -21.5090 C.3   139  SER139      0.1924
    134  C         -5.2050    4.6160  -22.2550 C.2   139  SER139      0.2314
    135  O         -5.0730    4.0620  -23.3450 O.2   139  SER139     -0.2863
    136  CB        -3.7550    4.3090  -20.2430 C.3   139  SER139      0.2116
    137  OG        -2.5190    4.6340  -19.6330 O.3   139  SER139     -0.2180
    138  N         -5.5110    3.1230  -26.0420 N.3   142  VAL142     -0.1245
    139  CA        -6.0600    1.7920  -26.2910 C.3   142  VAL142      0.1561
    140  C         -7.1950    1.8550  -27.3110 C.2   142  VAL142      0.2260
    141  O         -7.1840    1.1530  -28.3220 O.2   142  VAL142     -0.2867
    142  CB        -6.5820    1.1350  -24.9940 C.3   142  VAL142      0.0252
    143  CG1       -7.4420   -0.0880  -25.3200 C.3   142  VAL142      0.0019
    144  CG2       -5.4180    0.7580  -24.0800 C.3   142  VAL142      0.0019
    145  N         -5.9660    2.9900  -30.6860 N.3   145  ALA145     -0.1245
    146  CA        -5.1320    1.9580  -31.2940 C.3   145  ALA145      0.1562
    147  C         -5.9540    0.7430  -31.7230 C.2   145  ALA145      0.2260
    148  O         -5.5260   -0.0360  -32.5720 O.2   145  ALA145     -0.2867
    149  CB        -4.0260    1.5380  -30.3430 C.3   145  ALA145      0.0290
    150  N         -6.7600   -1.8740  -29.8530 N.3   147  THR147     -0.1218
    151  CA        -6.3510   -3.1260  -29.2250 C.3   147  THR147      0.1862
    152  C         -7.3680   -3.5540  -28.1800 C.2   147  THR147      0.2287
    153  O         -8.2250   -2.7740  -27.7740 O.2   147  THR147     -0.2866
    154  CB        -4.9810   -3.0140  -28.5300 C.3   147  THR147      0.1770
    155  OG1       -5.0720   -2.1040  -27.4280 O.3   147  THR147     -0.2211
    156  CG2       -3.9200   -2.5350  -29.4950 C.3   147  THR147      0.0375
    157  N         -5.9290   -4.2010  -22.1570 N.3   150  PRO150     -0.2116
    158  CA        -4.8970   -5.0590  -21.5680 C.3   150  PRO150      0.1372
    159  C         -5.4440   -5.9550  -20.4600 C.2   150  PRO150      0.2244
    160  O         -5.0190   -7.1070  -20.3270 O.2   150  PRO150     -0.2868
    161  CB        -3.9080   -4.0500  -20.9860 C.3   150  PRO150      0.0268
    162  CG        -4.0290   -2.8730  -21.8850 C.3   150  PRO150      0.0207
    163  CD        -5.4860   -2.7990  -22.2580 C.3   150  PRO150      0.0892
    164  N         -2.2020  -11.4920  -19.8670 N.3   156  PHE156     -0.1241
    165  CA        -1.5920  -10.2490  -19.3990 C.3   156  PHE156      0.1605
    166  C         -1.9840  -10.0010  -17.9440 C.2   156  PHE156      0.2264
    167  O         -1.1530   -9.6370  -17.1030 O.2   156  PHE156     -0.2867
    168  CB        -2.0410   -9.0750  -20.2740 C.3   156  PHE156      0.0534
    169  CG        -1.5530   -7.7320  -19.7940 C.ar  156  PHE156     -0.0203
    170  CD1       -2.1870   -7.0820  -18.7440 C.ar  156  PHE156     -0.0042
    171  CD2       -0.4690   -7.1120  -20.4040 C.ar  156  PHE156     -0.0042
    172  CE1       -1.7390   -5.8430  -18.3030 C.ar  156  PHE156     -0.0003
    173  CE2       -0.0190   -5.8770  -19.9700 C.ar  156  PHE156     -0.0003
    174  CZ        -0.6560   -5.2390  -18.9190 C.ar  156  PHE156     -0.0000
    175  N         -3.2940   -0.7070  -11.7520 N.3   177  TRP177     -0.1241
    176  CA        -3.3580   -0.1950  -13.1170 C.3   177  TRP177      0.1605
    177  C         -3.8290    1.2570  -13.1530 C.2   177  TRP177      0.2264
    178  O         -3.3330    2.0630  -13.9390 O.2   177  TRP177     -0.2867
    179  CB        -4.2770   -1.0640  -13.9740 C.3   177  TRP177      0.0550
    180  CG        -4.1550   -0.7910  -15.4450 C.ar  177  TRP177      0.0003
    181  CD1       -5.0380   -0.1090  -16.2270 C.ar  177  TRP177      0.0946
    182  CD2       -3.0830   -1.1940  -16.3060 C.ar  177  TRP177      0.0152
    183  NE1       -4.5860   -0.0650  -17.5240 N.ar  177  TRP177     -0.2442
    184  CE2       -3.3860   -0.7230  -17.5980 C.ar  177  TRP177      0.0810
    185  CE3       -1.8960   -1.9070  -16.1100 C.ar  177  TRP177      0.0012
    186  CZ2       -2.5450   -0.9390  -18.6890 C.ar  177  TRP177      0.0191
    187  CZ3       -1.0600   -2.1170  -17.1920 C.ar  177  TRP177      0.0001
    188  CH2       -1.3900   -1.6370  -18.4650 C.ar  177  TRP177      0.0015
    189  N          9.0240    7.5050  -34.2460 N.3   236  THR236     -0.1203
    190  CA         8.2910    6.2830  -33.9350 C.3   236  THR236      0.1994
    191  C          7.5680    5.6660  -35.1360 C.2   236  THR236      0.2617
    192  O          7.8580    4.5360  -35.5170 O.2   236  THR236     -0.2717
    193  CB         7.2860    6.5220  -32.7930 C.3   236  THR236      0.1784
    194  OG1        7.9410    7.2080  -31.7160 O.3   236  THR236     -0.2211
    195  CG2        6.7270    5.1980  -32.2860 C.3   236  THR236      0.0376
    196  N          6.6200    6.3950  -35.7170 N.am  237  PHE237     -0.1975
    197  CA         5.9200    5.9170  -36.9070 C.3   237  PHE237      0.1639
    198  C          6.3740    6.7080  -38.1300 C.2   237  PHE237      0.2290
    199  O          5.5740    7.3850  -38.7750 O.2   237  PHE237     -0.2864
    200  CB         4.4070    6.0450  -36.7270 C.3   237  PHE237      0.0560
    201  CG         3.8480    5.1720  -35.6370 C.ar  237  PHE237     -0.0200
    202  CD1        3.7810    5.6280  -34.3320 C.ar  237  PHE237     -0.0042
    203  CD2        3.3890    3.8930  -35.9200 C.ar  237  PHE237     -0.0042
    204  CE1        3.2650    4.8220  -33.3270 C.ar  237  PHE237     -0.0003
    205  CE2        2.8710    3.0830  -34.9220 C.ar  237  PHE237     -0.0003
    206  CZ         2.8090    3.5490  -33.6240 C.ar  237  PHE237     -0.0000
    207  N         -2.0150    6.4170  -33.8040 N.3   319  PHE319     -0.1227
    208  CA        -2.9360    6.5780  -32.6810 C.3   319  PHE319      0.1736
    209  C         -2.3310    7.3260  -31.4910 C.2   319  PHE319      0.2595
    210  O         -3.0490    7.9940  -30.7450 O.2   319  PHE319     -0.2718
    211  CB        -3.4130    5.2070  -32.1980 C.3   319  PHE319      0.0547
    212  CG        -2.3400    4.4150  -31.5020 C.ar  319  PHE319     -0.0202
    213  CD1       -1.5670    3.5060  -32.2000 C.ar  319  PHE319     -0.0042
    214  CD2       -2.0890    4.6040  -30.1520 C.ar  319  PHE319     -0.0042
    215  CE1       -0.5740    2.7910  -31.5620 C.ar  319  PHE319     -0.0003
    216  CE2       -1.0960    3.8990  -29.5110 C.ar  319  PHE319     -0.0003
    217  CZ        -0.3380    2.9890  -30.2130 C.ar  319  PHE319     -0.0000
    218  N         -1.0220    7.1900  -31.2970 N.am  320  ASP320     -0.1974
    219  CA        -0.3710    7.7230  -30.1030 C.3   320  ASP320      0.1709
    220  C         -0.3340    9.2550  -30.0430 C.2   320  ASP320      0.2293
    221  O         -0.1260    9.8340  -28.9790 O.2   320  ASP320     -0.2864
    222  CB         1.0420    7.1480  -29.9490 C.3   320  ASP320      0.1436
    223  CG         1.9650    7.5210  -31.1040 C.2   320  ASP320      0.3671
    224  OD1        1.5020    7.6100  -32.2610 O.co2 320  ASP320     -0.2456
    225  OD2        3.1690    7.7180  -30.8510 O.co2 320  ASP320     -0.2456
@<TRIPOS>BOND
     1   199   198    2
     2   198   197    1
     3   197   200    1
     4   197   196    1
     5   200   201    1
     6   203   201   ar
     7   203   205   ar
     8   196   191   am
     9   201   202   ar
    10   192   191    2
    11   191   190    1
    12   205   206   ar
    13    33    34    1
    14    42    43    2
    15    42    41    1
    16   202   204   ar
    17    30    31    2
    18    30    29    1
    19   189   190    1
    20   190   193    1
    21    28    29    1
    22   207   208    1
    23   206   204   ar
    24    40    41    1
    25    40    35   am
    26    41    44    1
    27    34    35    1
    28    34    37    1
    29    29    32    1
    30    35    36    2
    31    44    45    1
    32    25    26    2
    33    25    24    1
    34   193   195    1
    35   193   194    1
    36   208   211    1
    37   208   209    1
    38   148   147    2
    39   224   223   ar
    40   213   215   ar
    41   213   212   ar
    42   211   212    1
    43    37    39    1
    44    37    38    1
    45    24    23    1
    46    24    27    1
    47   147   146    1
    48    45    47   ar
    49    45    46   ar
    50   215   217   ar
    51   212   214   ar
    52   209   218   am
    53   209   210    2
    54   218   219    1
    55   146   145    1
    56   146   149    1
    57    47    49   ar
    58   223   225   ar
    59   223   222    1
    60    46    48   ar
    61   217   216   ar
    62   214   216   ar
    63   219   220    1
    64   219   222    1
    65   220   221    2
    66    49    50   ar
    67   150   151    1
    68    48    50   ar
    69    57    56    1
    70    57    51    1
    71   156   154    1
    72    18    17    2
    73   151   154    1
    74   151   152    1
    75    56    55    1
    76   154   155    1
    77    51    52    1
    78   141   140    2
    79    55    52    1
    80    17    16    1
    81   152   153    2
    82    52    53    1
    83    16    15    1
    84    16    19    1
    85   140   139    1
    86    19    21    1
    87    19    20    1
    88     6     5    1
    89   139   138    1
    90   139   142    1
    91    53    58   am
    92    53    54    2
    93     2     3    1
    94     2     5    1
    95     2     1    1
    96     3     4    2
    97    58    59    1
    98    20    22    1
    99    66    67   ar
   100    66    64   ar
   101   143   142    1
   102    67    65   ar
   103    64    63   ar
   104   142   144    1
   105   131   129   ar
   106   131   130   ar
   107   129   127   ar
   108    65    63   ar
   109    63    62    1
   110    59    62    1
   111    59    60    1
   112     7     8    1
   113   130   128   ar
   114    13    12    1
   115    60    61    2
   116   127   126   ar
   117    68    69    1
   118    97    98   ar
   119    97    95   ar
   120   135   134    2
   121   124   123    2
   122    98    96   ar
   123   128   126   ar
   124     8    11    1
   125     8     9    1
   126    95    93   ar
   127   126   125    1
   128    12    14    1
   129    12    11    1
   130    72    69    1
   131    72    73    1
   132    69    70    1
   133   163   157    1
   134   163   162    1
   135   134   133    1
   136   157   158    1
   137   123   122    1
   138   123   132   am
   139     9    10    2
   140   162   161    1
   141    74    73   ar
   142    74    76   ar
   143    96    94   ar
   144   158   161    1
   145   158   159    1
   146   122   125    1
   147   122   121    1
   148   133   132    1
   149   133   136    1
   150    73    75   ar
   151    93    94   ar
   152    93    92    1
   153    70    71    2
   154    76    78   ar
   155    92    89    1
   156   159   160    2
   157   171   173   ar
   158   171   169   ar
   159    75    77   ar
   160   168   169    1
   161   168   165    1
   162   136   137    1
   163   173   174   ar
   164   164   165    1
   165   169   170   ar
   166    78    77   ar
   167    78    79    1
   168   165   166    1
   169    89    88    1
   170    89    90    1
   171   174   172   ar
   172    87    85   ar
   173    88    82   am
   174   170   172   ar
   175   186   188   ar
   176   186   184   ar
   177   188   187   ar
   178    84    85    1
   179    84    81    1
   180    90    91    2
   181    85    86   ar
   182   166   167    2
   183    82    81    1
   184    82    83    2
   185   184   183   ar
   186   184   182   ar
   187   183   181   ar
   188    81    80    1
   189   187   185   ar
   190   182   185   ar
   191   182   180   ar
   192   181   180   ar
   193   107   105   ar
   194   107   109   ar
   195   120   118    1
   196   105   104   ar
   197   180   179    1
   198    99   100    1
   199   109   108   ar
   200   118   117    2
   201   118   119    1
   202   117   116    1
   203   104   103    1
   204   104   106   ar
   205   103   100    1
   206   179   176    1
   207   178   177    2
   208   100   101    1
   209   108   106   ar
   210   115   116    1
   211   115   114    1
   212   177   176    1
   213   176   175    1
   214   101   102    2
   215   112   113    2
   216   112   111    1
   217   114   111    1
   218   111   110    1
