@<TRIPOS>MOLECULE
tmp/3rscB00.pdb
 181 172 0 0 0
SMALL
GASTEIGER

@<TRIPOS>ATOM
      1  N         13.1260    8.3390  -27.0550 N.3    12  HIS12      -0.1226
      2  CA        13.4810    9.7540  -27.1210 C.3    12  HIS12       0.1752
      3  C         12.4730   10.6490  -26.4060 C.2    12  HIS12       0.2596
      4  O         12.8470   11.4710  -25.5710 O.2    12  HIS12      -0.2718
      5  CB        13.6140   10.2150  -28.5740 C.3    12  HIS12       0.0759
      6  CG        14.8540    9.7300  -29.2540 C.ar   12  HIS12       0.0818
      7  ND1       15.0130    8.4250  -29.6720 N.ar   12  HIS12      -0.2268
      8  CD2       15.9900   10.3780  -29.6030 C.ar   12  HIS12       0.1154
      9  CE1       16.1960    8.2910  -30.2450 C.ar   12  HIS12       0.1986
     10  NE2       16.8090    9.4600  -30.2140 N.ar   12  HIS12      -0.2212
     11  N         11.1980   10.4950  -26.7510 N.am   13  GLY13      -0.1957
     12  CA        10.1510   11.3430  -26.2110 C.3    13  GLY13       0.1869
     13  C         10.0440   11.2880  -24.6980 C.2    13  GLY13       0.2309
     14  O          9.7030   12.2770  -24.0580 O.2    13  GLY13      -0.2863
     15  N         14.1130   12.8610  -23.2780 N.3    16  LEU16      -0.1231
     16  CA        14.5420   14.2450  -23.5150 C.3    16  LEU16       0.1678
     17  C         14.0080   15.2760  -22.5100 C.2    16  LEU16       0.2434
     18  O         14.7690   16.0960  -22.0090 O.2    16  LEU16      -0.2733
     19  CB        14.2440   14.6860  -24.9580 C.3    16  LEU16       0.0284
     20  CG        15.0320   13.9460  -26.0480 C.3    16  LEU16       0.0019
     21  CD1       14.8030   14.5580  -27.4180 C.3    16  LEU16       0.0001
     22  CD2       16.5150   13.9270  -25.7250 C.3    16  LEU16       0.0001
     23  N         12.7010   15.2450  -22.2160 N.am   17  PRO17      -0.2729
     24  CA        12.1800   16.2460  -21.2770 C.3    17  PRO17       0.1401
     25  C         12.8330   16.1960  -19.8910 C.2    17  PRO17       0.2269
     26  O         12.8130   17.1950  -19.1780 O.2    17  PRO17      -0.2865
     27  CB        10.6960   15.8800  -21.1720 C.3    17  PRO17       0.0296
     28  CG        10.3880   15.1960  -22.4580 C.3    17  PRO17       0.0237
     29  CD        11.6270   14.4290  -22.8050 C.3    17  PRO17       0.0939
     30  N         20.9930   20.3630  -26.6900 N.3   213  ARG213     -0.1245
     31  CA        20.8830   19.0120  -27.2280 C.3   213  ARG213      0.1563
     32  C         21.8580   18.8020  -28.3740 C.2   213  ARG213      0.2260
     33  O         21.4640   18.5640  -29.5160 O.2   213  ARG213     -0.2867
     34  CB        19.4490   18.7270  -27.6690 C.3   213  ARG213      0.0307
     35  CG        18.5120   18.5680  -26.4980 C.3   213  ARG213      0.0489
     36  CD        17.0690   18.6170  -26.9150 C.3   213  ARG213      0.2205
     37  NE        16.2010   18.3800  -25.7700 N.pl3 213  ARG213     -0.0865
     38  CZ        14.8770   18.3890  -25.8260 C.cat 213  ARG213      0.5346
     39  NH1       14.2650   18.6310  -26.9750 N.pl3 213  ARG213      0.1354
     40  NH2       14.1680   18.1580  -24.7320 N.pl3 213  ARG213      0.1354
     41  N         22.1770   15.5540  -30.5440 N.3   216  LEU216     -0.1245
     42  CA        21.3020   15.3770  -31.6970 C.3   216  LEU216      0.1561
     43  C         21.9260   16.0210  -32.9320 C.2   216  LEU216      0.2260
     44  O         21.3140   16.0720  -34.0010 O.2   216  LEU216     -0.2867
     45  CB        19.9190   15.9760  -31.4260 C.3   216  LEU216      0.0270
     46  CG        19.1190   15.3480  -30.2840 C.3   216  LEU216      0.0019
     47  CD1       17.8730   16.1620  -29.9880 C.3   216  LEU216      0.0001
     48  CD2       18.7560   13.9120  -30.6130 C.3   216  LEU216      0.0001
     49  N          8.6220   17.0460  -39.7070 N.3   232  SER232     -0.1217
     50  CA         9.0440   15.8080  -39.0570 C.3   232  SER232      0.1889
     51  C          7.8740   14.8840  -38.7320 C.2   232  SER232      0.2288
     52  O          6.7880   15.3450  -38.3720 O.2   232  SER232     -0.2866
     53  CB         9.8310   16.1180  -37.7790 C.3   232  SER232      0.2089
     54  OG        10.3820   14.9340  -37.2190 O.3   232  SER232     -0.2183
     55  N          8.5360   12.5410  -36.4730 N.3   234  GLY234     -0.1210
     56  CA         9.0140   12.0390  -35.1990 C.3   234  GLY234      0.1956
     57  C          9.9770   10.8750  -35.3440 C.2   234  GLY234      0.2613
     58  O         10.6780   10.7510  -36.3500 O.2   234  GLY234     -0.2717
     59  N          9.9920   10.0090  -34.3360 N.am  235  THR235     -0.1938
     60  CA        10.9830    8.9480  -34.2380 C.3   235  THR235      0.2028
     61  C         10.3480    7.5640  -34.1490 C.2   235  THR235      0.2642
     62  O         11.0520    6.5680  -34.0050 O.2   235  THR235     -0.2714
     63  CB        11.8500    9.1390  -32.9810 C.3   235  THR235      0.1808
     64  OG1       11.0760    8.8330  -31.8160 O.3   235  THR235     -0.2208
     65  CG2       12.3400   10.5720  -32.8850 C.3   235  THR235      0.0379
     66  N          9.0240    7.5050  -34.2460 N.am  236  THR236     -0.1950
     67  CA         8.2910    6.2830  -33.9350 C.3   236  THR236      0.1897
     68  C          7.5680    5.6660  -35.1360 C.2   236  THR236      0.2313
     69  O          7.8580    4.5360  -35.5170 O.2   236  THR236     -0.2863
     70  CB         7.2860    6.5220  -32.7930 C.3   236  THR236      0.1794
     71  OG1        7.9410    7.2080  -31.7160 O.3   236  THR236     -0.2208
     72  CG2        6.7270    5.1980  -32.2860 C.3   236  THR236      0.0378
     73  N         13.2490   16.1350  -40.8700 N.3   260  THR260     -0.1218
     74  CA        13.9740   15.1770  -40.0410 C.3   260  THR260      0.1862
     75  C         13.3350   13.7900  -40.1190 C.2   260  THR260      0.2287
     76  O         12.1190   13.6380  -39.9880 O.2   260  THR260     -0.2866
     77  CB        14.0810   15.6370  -38.5750 C.3   260  THR260      0.1770
     78  OG1       12.7770   15.6720  -37.9860 O.3   260  THR260     -0.2211
     79  CG2       14.7040   17.0270  -38.4960 C.3   260  THR260      0.0375
     80  N         14.4020   10.9190  -38.3360 N.3   262  GLY262     -0.1225
     81  CA        14.3350   10.2190  -37.0670 C.3   262  GLY262      0.1811
     82  C         14.8970    8.8080  -37.0990 C.2   262  GLY262      0.2280
     83  O         14.2780    7.8690  -36.5970 O.2   262  GLY262     -0.2866
     84  N         18.8930   12.7100  -40.7700 N.3   281  ARG281     -0.1231
     85  CA        18.4550   11.6250  -39.9140 C.3   281  ARG281      0.1694
     86  C         18.0570   12.2250  -38.5660 C.2   281  ARG281      0.2592
     87  O         17.0340   11.8590  -37.9900 O.2   281  ARG281     -0.2718
     88  CB        19.5720   10.5930  -39.7420 C.3   281  ARG281      0.0321
     89  CG        20.2390   10.1820  -41.0490 C.3   281  ARG281      0.0489
     90  CD        21.3420    9.1520  -40.8310 C.3   281  ARG281      0.2205
     91  NE        20.8860    7.7960  -41.1290 N.pl3 281  ARG281     -0.0865
     92  CZ        20.9990    7.2130  -42.3200 C.cat 281  ARG281      0.5346
     93  NH1       21.5620    7.8630  -43.3300 N.pl3 281  ARG281      0.1354
     94  NH2       20.5530    5.9760  -42.5000 N.pl3 281  ARG281      0.1354
     95  N         18.8690   13.1630  -38.0850 N.am  282  TRP282     -0.1962
     96  CA        18.6240   13.8540  -36.8230 C.3   282  TRP282      0.1771
     97  C         19.1920   15.2690  -36.8560 C.2   282  TRP282      0.2619
     98  O         20.3630   15.4660  -37.1890 O.2   282  TRP282     -0.2715
     99  CB        19.2840   13.1140  -35.6510 C.3   282  TRP282      0.0590
    100  CG        18.8310   11.6980  -35.4440 C.ar  282  TRP282      0.0006
    101  CD1       19.4100   10.5710  -35.9550 C.ar  282  TRP282      0.0946
    102  CD2       17.7190   11.2530  -34.6540 C.ar  282  TRP282      0.0152
    103  NE1       18.7220    9.4550  -35.5430 N.ar  282  TRP282     -0.2442
    104  CE2       17.6780    9.8450  -34.7450 C.ar  282  TRP282      0.0810
    105  CE3       16.7500   11.9070  -33.8850 C.ar  282  TRP282      0.0012
    106  CZ2       16.7070    9.0800  -34.0950 C.ar  282  TRP282      0.0191
    107  CZ3       15.7870   11.1440  -33.2390 C.ar  282  TRP282      0.0001
    108  CH2       15.7730    9.7470  -33.3500 C.ar  282  TRP282      0.0015
    109  N         18.3590   16.2520  -36.5240 N.am  283  VAL283     -0.1977
    110  CA        18.8470   17.5630  -36.1070 C.3   283  VAL283      0.1596
    111  C         18.0190   18.0460  -34.9230 C.2   283  VAL283      0.2287
    112  O         16.8350   17.7270  -34.8210 O.2   283  VAL283     -0.2864
    113  CB        18.8100   18.6310  -37.2330 C.3   283  VAL283      0.0276
    114  CG1       19.8160   18.3020  -38.3280 C.3   283  VAL283      0.0022
    115  CG2       17.4080   18.7860  -37.7900 C.3   283  VAL283      0.0022
    116  N         15.5380   19.6590  -32.9380 N.3   285  HIS285     -0.1241
    117  CA        14.3070   20.3710  -33.2550 C.3   285  HIS285      0.1621
    118  C         14.2540   21.7400  -32.5820 C.2   285  HIS285      0.2264
    119  O         13.6890   22.6790  -33.1330 O.2   285  HIS285     -0.2867
    120  CB        13.0780   19.5400  -32.8840 C.3   285  HIS285      0.0745
    121  CG        12.7360   18.4850  -33.8910 C.ar  285  HIS285      0.0817
    122  ND1       11.5690   17.7520  -33.8360 N.ar  285  HIS285     -0.2268
    123  CD2       13.4060   18.0420  -34.9810 C.ar  285  HIS285      0.1154
    124  CE1       11.5350   16.9040  -34.8480 C.ar  285  HIS285      0.1986
    125  NE2       12.6380   17.0580  -35.5580 N.ar  285  HIS285     -0.2212
    126  N          4.4770   18.8180  -37.8650 N.3   297  THR297     -0.1203
    127  CA         4.8190   17.6720  -37.0360 C.3   297  THR297      0.1994
    128  C          3.6670   16.6810  -37.0420 C.2   297  THR297      0.2617
    129  O          2.5160   17.0610  -37.2420 O.2   297  THR297     -0.2717
    130  CB         5.1240   18.0990  -35.5830 C.3   297  THR297      0.1784
    131  OG1        5.3070   16.9370  -34.7660 O.3   297  THR297     -0.2211
    132  CG2        3.9800   18.9310  -35.0080 C.3   297  THR297      0.0376
    133  N          3.9840   15.4080  -36.8430 N.am  298  HIS298     -0.1975
    134  CA         2.9600   14.3810  -36.7170 C.3   298  HIS298      0.1656
    135  C          2.1470   14.5950  -35.4370 C.2   298  HIS298      0.2291
    136  O          1.0060   14.1560  -35.3390 O.2   298  HIS298     -0.2864
    137  CB         3.6010   12.9930  -36.7090 C.3   298  HIS298      0.0771
    138  CG         4.4560   12.7360  -35.5090 C.ar  298  HIS298      0.0820
    139  ND1        5.5340   13.5280  -35.1820 N.ar  298  HIS298     -0.2267
    140  CD2        4.3890   11.7770  -34.5530 C.ar  298  HIS298      0.1154
    141  CE1        6.1000   13.0660  -34.0790 C.ar  298  HIS298      0.1986
    142  NE2        5.4230   12.0050  -33.6770 N.ar  298  HIS298     -0.2212
    143  N          3.9260   14.6490  -32.0240 N.3   300  GLY300     -0.1225
    144  CA         4.6350   14.2040  -30.8400 C.3   300  GLY300      0.1811
    145  C          4.7080   15.3290  -29.8270 C.2   300  GLY300      0.2280
    146  O          5.0540   16.4570  -30.1790 O.2   300  GLY300     -0.2866
    147  N          6.7160   16.2760  -27.4870 N.3   301  GLY301     -0.1210
    148  CA         7.9840   16.9750  -27.4290 C.3   301  GLY301      0.1956
    149  C          8.0820   18.0440  -28.5000 C.2   301  GLY301      0.2612
    150  O          8.3400   19.2100  -28.2070 O.2   301  GLY301     -0.2717
    151  N          7.8630   17.6550  -29.7490 N.am  302  THR302     -0.1952
    152  CA         7.9760   18.5990  -30.8450 C.3   302  THR302      0.1897
    153  C          6.9120   19.6860  -30.7550 C.2   302  THR302      0.2313
    154  O          7.1960   20.8540  -31.0000 O.2   302  THR302     -0.2863
    155  CB         7.9260   17.9000  -32.2080 C.3   302  THR302      0.1794
    156  OG1        9.0880   17.0740  -32.3440 O.3   302  THR302     -0.2208
    157  CG2        7.9200   18.9360  -33.3370 C.3   302  THR302      0.0378
    158  N          8.0590   22.0600  -28.0720 N.3   304  GLU304     -0.1245
    159  CA         9.2370   22.8230  -28.4700 C.3   304  GLU304      0.1567
    160  C          8.8560   23.8940  -29.4860 C.2   304  GLU304      0.2260
    161  O          9.4700   24.9580  -29.5360 O.2   304  GLU304     -0.2867
    162  CB        10.3250   21.9040  -29.0220 C.3   304  GLU304      0.0388
    163  CG        10.8550   20.9000  -28.0030 C.3   304  GLU304      0.1160
    164  CD        11.5540   19.7240  -28.6560 C.2   304  GLU304      0.3649
    165  OE1       11.7540   18.6930  -27.9820 O.co2 304  GLU304     -0.2457
    166  OE2       11.9020   19.8300  -29.8480 O.co2 304  GLU304     -0.2457
    167  N         -1.0220    7.1900  -31.2970 N.3   320  ASP320     -0.1225
    168  CA        -0.3710    7.7230  -30.1030 C.3   320  ASP320      0.1805
    169  C         -0.3340    9.2550  -30.0430 C.2   320  ASP320      0.2597
    170  O         -0.1260    9.8340  -28.9790 O.2   320  ASP320     -0.2718
    171  CB         1.0420    7.1480  -29.9490 C.3   320  ASP320      0.1424
    172  CG         1.9650    7.5210  -31.1040 C.2   320  ASP320      0.3668
    173  OD1        1.5020    7.6100  -32.2610 O.co2 320  ASP320     -0.2456
    174  OD2        3.1690    7.7180  -30.8510 O.co2 320  ASP320     -0.2456
    175  N         -0.5460    9.9050  -31.1830 N.am  321  VAL321     -0.1980
    176  CA        -0.4670   11.3610  -31.2560 C.3   321  VAL321      0.1595
    177  C         -1.8140   11.9810  -31.6050 C.2   321  VAL321      0.2287
    178  O         -1.9220   13.1930  -31.7560 O.2   321  VAL321     -0.2864
    179  CB         0.5840   11.8170  -32.2860 C.3   321  VAL321      0.0276
    180  CG1        1.9700   11.3960  -31.8430 C.3   321  VAL321      0.0022
    181  CG2        0.2600   11.2500  -33.6710 C.3   321  VAL321      0.0022
@<TRIPOS>BOND
     1    93    92    1
     2    94    92    1
     3    92    91    2
     4    91    90    1
     5    89    90    1
     6    89    88    1
     7    73    74    1
     8    84    85    1
     9    75    74    1
    10    75    76    2
    11    74    77    1
    12    85    88    1
    13    85    86    1
    14    49    50    1
    15    50    51    1
    16    50    53    1
    17    51    52    2
    18    77    79    1
    19    77    78    1
    20    86    95   am
    21    86    87    2
    22    80    81    1
    23   114   113    1
    24    95    96    1
    25   126   127    1
    26   115   113    1
    27    53    54    1
    28   129   128    2
    29   113   110    1
    30    98    97    2
    31    82    81    1
    32    82    83    2
    33   128   127    1
    34   128   133   am
    35   127   130    1
    36    97    96    1
    37    97   109   am
    38   133   134    1
    39    96    99    1
    40   134   137    1
    41   134   135    1
    42   137   138    1
    43   109   110    1
    44    55    56    1
    45    58    57    2
    46   110   111    1
    47   101   103   ar
    48   101   100   ar
    49    99   100    1
    50   130   132    1
    51   130   131    1
    52   125   123   ar
    53   125   124   ar
    54   103   104   ar
    55    69    68    2
    56   138   139   ar
    57   138   140   ar
    58   100   102   ar
    59   135   136    2
    60    57    56    1
    61    57    59   am
    62   139   141   ar
    63    68    67    1
    64   123   121   ar
    65   111   112    2
    66   124   122   ar
    67   104   102   ar
    68   104   106   ar
    69   102   105   ar
    70   140   142   ar
    71    59    60    1
    72    66    61   am
    73    66    67    1
    74    60    61    1
    75    60    63    1
    76    61    62    2
    77   106   108   ar
    78   141   142   ar
    79    44    43    2
    80    67    70    1
    81   121   122   ar
    82   121   120    1
    83   105   107   ar
    84   181   179    1
    85   108   107   ar
    86   157   155    1
    87   117   116    1
    88   117   120    1
    89   117   118    1
    90   119   118    2
    91    63    65    1
    92    63    64    1
    93    43    42    1
    94    70    72    1
    95    70    71    1
    96   156   155    1
    97   179   180    1
    98   179   176    1
    99   173   172   ar
   100   155   152    1
   101   143   144    1
   102   178   177    2
   103    42    45    1
   104    42    41    1
   105   177   176    1
   106    45    46    1
   107   167   168    1
   108   176   175    1
   109   175   169   am
   110   172   174   ar
   111   172   171    1
   112   154   153    2
   113   152   153    1
   114   152   151    1
   115   144   145    1
   116    48    46    1
   117    46    47    1
   118     9    10   ar
   119     9     7   ar
   120    10     8   ar
   121   146   145    2
   122   168   169    1
   123   168   171    1
   124   169   170    2
   125   166   164   ar
   126   151   149   am
   127     7     6   ar
   128     8     6   ar
   129   161   160    2
   130    33    32    2
   131   160   159    1
   132     6     5    1
   133   162   159    1
   134   162   163    1
   135   164   163    1
   136   164   165   ar
   137     5     2    1
   138   149   150    2
   139   149   148    1
   140   159   158    1
   141    32    31    1
   142    34    31    1
   143    34    35    1
   144   147   148    1
   145    21    20    1
   146    31    30    1
   147     2     1    1
   148     2     3    1
   149    39    38    1
   150    36    35    1
   151    36    37    1
   152    11     3   am
   153    11    12    1
   154     3     4    2
   155    12    13    1
   156    20    22    1
   157    20    19    1
   158    38    37    2
   159    38    40    1
   160    19    16    1
   161    13    14    2
   162    16    15    1
   163    16    17    1
   164    29    28    1
   165    29    23    1
   166    17    23   am
   167    17    18    2
   168    28    27    1
   169    23    24    1
   170    24    27    1
   171    24    25    1
   172    25    26    2
