@<TRIPOS>MOLECULE
tmp/3rsfA01.pdb
 146 142 0 0 0
SMALL
GASTEIGER

@<TRIPOS>ATOM
      1  N         50.3740   -0.3160   58.2400 N.3     3  LYS3       -0.1245
      2  CA        51.5120   -0.9040   58.8920 C.3     3  LYS3        0.1561
      3  C         52.5980    0.1400   58.9510 C.2     3  LYS3        0.2260
      4  O         53.5000    0.0410   59.7370 O.2     3  LYS3       -0.2867
      5  CB        51.9910   -2.1710   58.1960 C.3     3  LYS3        0.0271
      6  CG        51.8290   -3.4340   59.0410 C.3     3  LYS3        0.0035
      7  CD        50.7850   -4.3950   58.4560 C.3     3  LYS3        0.0206
      8  CE        49.3980   -3.7870   58.4270 C.3     3  LYS3        0.1093
      9  NZ        48.8960   -3.6040   59.8000 N.3     3  LYS3       -0.1314
     10  N         53.5190  -17.0910   66.6630 N.3    50  GLY50      -0.1210
     11  CA        54.7230  -16.4800   67.1000 C.3    50  GLY50       0.1956
     12  C         54.9570  -15.0400   66.7000 C.2    50  GLY50       0.2612
     13  O         56.0110  -14.4740   67.0600 O.2    50  GLY50      -0.2717
     14  N         54.0360  -14.4350   65.9630 N.am   51  GLY51      -0.1942
     15  CA        54.2050  -13.0330   65.5570 C.3    51  GLY51       0.2014
     16  C         53.4950  -12.0780   66.5130 C.2    51  GLY51       0.2639
     17  O         53.0250  -12.4770   67.5990 O.2    51  GLY51      -0.2714
     18  N         53.3830  -10.8190   66.1150 N.am   52  ASN52      -0.1958
     19  CA        52.7150   -9.8420   66.9660 C.3    52  ASN52       0.1819
     20  C         51.2010  -10.0630   67.1310 C.2    52  ASN52       0.2621
     21  O         50.6060   -9.5890   68.0830 O.2    52  ASN52      -0.2715
     22  CB        52.9460   -8.4440   66.4270 C.3    52  ASN52       0.1195
     23  CG        54.3920   -7.9480   66.6620 C.2    52  ASN52       0.2630
     24  OD1       55.1490   -8.4340   67.5540 O.2    52  ASN52      -0.2716
     25  ND2       54.7790   -6.9810   65.8550 N.am   52  ASN52      -0.0877
     26  N         50.5710  -10.7590   66.1880 N.am   53  ASN53      -0.1958
     27  CA        49.1830  -11.1360   66.3630 C.3    53  ASN53       0.1819
     28  C         49.0710  -12.0620   67.5880 C.2    53  ASN53       0.2621
     29  O         48.1730  -11.9080   68.4800 O.2    53  ASN53      -0.2715
     30  CB        48.6560  -11.8310   65.1160 C.3    53  ASN53       0.1195
     31  CG        47.1490  -11.8550   65.0490 C.2    53  ASN53       0.2630
     32  OD1       46.5740  -12.9120   65.0240 O.2    53  ASN53      -0.2716
     33  ND2       46.5270  -10.7130   64.8740 N.am   53  ASN53      -0.0877
     34  N         49.9840  -13.0200   67.6460 N.am   54  GLY54      -0.1954
     35  CA        50.0290  -13.8970   68.8120 C.3    54  GLY54       0.1869
     36  C         50.3310  -13.1560   70.1010 C.2    54  GLY54       0.2309
     37  O         49.8070  -13.5080   71.1580 O.2    54  GLY54      -0.2863
     38  N         59.5930  -19.4500   66.5200 N.3    79  LYS79      -0.1245
     39  CA        60.1370  -18.2700   67.1950 C.3    79  LYS79       0.1561
     40  C         59.0320  -17.3470   67.6940 C.2    79  LYS79       0.2260
     41  O         57.8830  -17.4780   67.3090 O.2    79  LYS79      -0.2867
     42  CB        61.0610  -17.4800   66.2420 C.3    79  LYS79       0.0271
     43  CG        60.3550  -16.8060   64.9650 C.3    79  LYS79       0.0035
     44  CD        61.4260  -16.2170   63.9510 C.3    79  LYS79       0.0206
     45  CE        60.8150  -15.5100   62.7110 C.3    79  LYS79       0.1093
     46  NZ        59.6490  -14.5890   63.0350 N.3    79  LYS79      -0.1314
     47  N         58.4120  -13.0800   68.2380 N.3    81  THR81      -0.1218
     48  CA        58.9440  -11.7310   68.0630 C.3    81  THR81       0.1862
     49  C         59.1450  -11.1480   69.4660 C.2    81  THR81       0.2287
     50  O         58.6350  -11.6830   70.4450 O.2    81  THR81      -0.2866
     51  CB        58.0220  -10.8100   67.2670 C.3    81  THR81       0.1770
     52  OG1       56.7940  -10.6530   67.9770 O.3    81  THR81      -0.2211
     53  CG2       57.7250  -11.3560   65.8600 C.3    81  THR81       0.0375
     54  N         46.4350  -16.4450   65.5930 N.3   117  ILE117     -0.1231
     55  CA        47.5020  -17.2250   64.9090 C.3   117  ILE117      0.1692
     56  C         48.2380  -16.3540   63.8940 C.2   117  ILE117      0.2592
     57  O         49.4380  -16.1120   64.0420 O.2   117  ILE117     -0.2718
     58  CB        46.9410  -18.4610   64.2020 C.3   117  ILE117      0.0266
     59  CG1       46.0260  -19.2510   65.1540 C.3   117  ILE117      0.0019
     60  CG2       48.0930  -19.3400   63.7000 C.3   117  ILE117      0.0020
     61  CD1       45.3790  -20.5070   64.5390 C.3   117  ILE117      0.0001
     62  N         47.5240  -15.8550   62.8850 N.am  118  PHE118     -0.1962
     63  CA        48.1200  -14.9510   61.8710 C.3   118  PHE118      0.1771
     64  C         47.2550  -13.7230   61.6920 C.2   118  PHE118      0.2620
     65  O         46.0270  -13.8260   61.5330 O.2   118  PHE118     -0.2715
     66  CB        48.2160  -15.6150   60.4780 C.3   118  PHE118      0.0574
     67  CG        48.9300  -16.9260   60.4790 C.ar  118  PHE118     -0.0200
     68  CD1       50.2650  -17.0050   60.8860 C.ar  118  PHE118     -0.0042
     69  CD2       48.2930  -18.0790   60.0490 C.ar  118  PHE118     -0.0042
     70  CE1       50.9450  -18.2410   60.8830 C.ar  118  PHE118     -0.0003
     71  CE2       48.9590  -19.3060   60.0310 C.ar  118  PHE118     -0.0003
     72  CZ        50.2860  -19.3850   60.4600 C.ar  118  PHE118     -0.0000
     73  N         47.8780  -12.5550   61.6780 N.am  119  GLY119     -0.1940
     74  CA        47.1480  -11.3660   61.2570 C.3   119  GLY119      0.2014
     75  C         47.6500  -10.8730   59.9030 C.2   119  GLY119      0.2640
     76  O         47.7140  -11.6290   58.9170 O.2   119  GLY119     -0.2714
     77  N         48.0530   -9.6120   59.8750 N.am  120  THR120     -0.1936
     78  CA        48.4760   -8.9910   58.6480 C.3   120  THR120      0.2028
     79  C         49.8080   -9.5330   58.1930 C.2   120  THR120      0.2643
     80  O         50.2140   -9.2860   57.0590 O.2   120  THR120     -0.2714
     81  CB        48.5150   -7.4410   58.7610 C.3   120  THR120      0.1808
     82  OG1       49.5250   -7.0610   59.6970 O.3   120  THR120     -0.2208
     83  CG2       47.1580   -6.8980   59.2040 C.3   120  THR120      0.0379
     84  N         50.4790  -10.2990   59.0400 N.am  121  GLY121     -0.1939
     85  CA        51.7310  -10.9470   58.6270 C.3   121  GLY121      0.2014
     86  C         51.5970  -12.2860   57.9170 C.2   121  GLY121      0.2639
     87  O         52.5910  -12.9550   57.6660 O.2   121  GLY121     -0.2714
     88  N         50.3800  -12.7020   57.6070 N.am  122  LEU122     -0.1963
     89  CA        50.1470  -13.9020   56.7730 C.3   122  LEU122      0.1728
     90  C         50.8380  -13.7790   55.4310 C.2   122  LEU122      0.2616
     91  O         50.6160  -12.8080   54.7300 O.2   122  LEU122     -0.2715
     92  CB        48.6450  -14.0510   56.4960 C.3   122  LEU122      0.0311
     93  CG        48.1840  -15.2710   55.6790 C.3   122  LEU122      0.0022
     94  CD1       48.5550  -16.5930   56.3420 C.3   122  LEU122      0.0001
     95  CD2       46.6900  -15.1680   55.3990 C.3   122  LEU122      0.0001
     96  N         51.6810  -14.7560   55.0940 N.am  123  ARG123     -0.1963
     97  CA        52.3200  -14.8610   53.7820 C.3   123  ARG123      0.1729
     98  C         52.1090  -16.2700   53.2280 C.2   123  ARG123      0.2617
     99  O         52.4700  -17.2490   53.8770 O.2   123  ARG123     -0.2715
    100  CB        53.8400  -14.5970   53.8260 C.3   123  ARG123      0.0348
    101  CG        54.2790  -13.1540   54.0110 C.3   123  ARG123      0.0492
    102  CD        53.5860  -12.0850   53.0630 C.3   123  ARG123      0.2205
    103  NE        53.9110  -10.7620   53.6250 N.pl3 123  ARG123     -0.0865
    104  CZ        53.1200  -10.0140   54.4020 C.cat 123  ARG123      0.5346
    105  NH1       51.8570  -10.3790   54.6860 N.pl3 123  ARG123      0.1354
    106  NH2       53.6050   -8.8610   54.8850 N.pl3 123  ARG123      0.1354
    107  N         51.5140  -16.3430   52.0400 N.am  124  GLY124     -0.1940
    108  CA        51.2920  -17.5870   51.3870 C.3   124  GLY124      0.2014
    109  C         50.2490  -18.4330   52.0710 C.2   124  GLY124      0.2639
    110  O         49.6780  -18.0420   53.0990 O.2   124  GLY124     -0.2714
    111  N         50.0450  -19.6200   51.5000 N.am  125  GLU125     -0.1963
    112  CA        48.9900  -20.5500   51.9000 C.3   125  GLU125      0.1733
    113  C         49.2550  -21.1620   53.2650 C.2   125  GLU125      0.2616
    114  O         50.3850  -21.4080   53.6320 O.2   125  GLU125     -0.2715
    115  CB        48.8350  -21.6770   50.8520 C.3   125  GLU125      0.0429
    116  CG        48.4820  -21.1640   49.4200 C.3   125  GLU125      0.1163
    117  CD        47.2950  -21.9100   48.7700 C.2   125  GLU125      0.3649
    118  OE1       46.2560  -21.2420   48.5130 O.co2 125  GLU125     -0.2457
    119  OE2       47.3970  -23.1580   48.5140 O.co2 125  GLU125     -0.2457
    120  N         48.1870  -21.4010   54.0050 N.am  126  ILE126     -0.1963
    121  CA        48.2830  -22.0930   55.2750 C.3   126  ILE126      0.1727
    122  C         48.1770  -23.5830   55.0230 C.2   126  ILE126      0.2616
    123  O         47.2550  -24.0280   54.3800 O.2   126  ILE126     -0.2715
    124  CB        47.1600  -21.6490   56.2130 C.3   126  ILE126      0.0290
    125  CG1       47.2720  -20.1380   56.4610 C.3   126  ILE126      0.0022
    126  CG2       47.1780  -22.4480   57.5150 C.3   126  ILE126      0.0023
    127  CD1       46.0970  -19.5660   57.2890 C.3   126  ILE126      0.0001
    128  N         49.1200  -24.3420   55.5490 N.am  127  THR127     -0.1951
    129  CA        49.1790  -25.7840   55.3580 C.3   127  THR127      0.1897
    130  C         49.5090  -26.4990   56.6810 C.2   127  THR127      0.2313
    131  O         49.7990  -25.8610   57.7120 O.2   127  THR127     -0.2863
    132  CB        50.3030  -26.1450   54.3300 C.3   127  THR127      0.1794
    133  OG1       51.4930  -25.3710   54.6160 O.3   127  THR127     -0.2208
    134  CG2       49.8320  -25.9000   52.8880 C.3   127  THR127      0.0378
    135  N         48.8670  -25.8220   61.1130 N.3   130  TYR130     -0.1241
    136  CA        48.1210  -24.5810   61.1970 C.3   130  TYR130      0.1605
    137  C         46.7350  -24.8050   60.5560 C.2   130  TYR130      0.2264
    138  O         45.7200  -24.4250   61.1170 O.2   130  TYR130     -0.2867
    139  CB        48.8560  -23.4440   60.4880 C.3   130  TYR130      0.0534
    140  CG        50.1220  -22.9690   61.1560 C.ar  130  TYR130     -0.0201
    141  CD1       50.0880  -22.2150   62.3450 C.ar  130  TYR130     -0.0009
    142  CD2       51.3740  -23.2680   60.6030 C.ar  130  TYR130     -0.0009
    143  CE1       51.2710  -21.7680   62.9440 C.ar  130  TYR130      0.0417
    144  CE2       52.5480  -22.8330   61.1970 C.ar  130  TYR130      0.0417
    145  CZ        52.4910  -22.0770   62.3590 C.ar  130  TYR130      0.1957
    146  OH        53.6810  -21.6450   62.9080 O.3   130  TYR130     -0.2866
@<TRIPOS>BOND
     1   118   117   ar
     2   119   117   ar
     3   117   116    1
     4   116   115    1
     5   115   112    1
     6   108   107    1
     7   108   109    1
     8   111   112    1
     9   111   109   am
    10   112   113    1
    11   107    98   am
    12   109   110    2
    13   134   132    1
    14   102   103    1
    15   102   101    1
    16    98    97    1
    17    98    99    2
    18   113   114    2
    19   113   120   am
    20   103   104    2
    21    97   100    1
    22    97    96    1
    23   100   101    1
    24   120   121    1
    25   132   133    1
    26   132   129    1
    27   123   122    2
    28   104   105    1
    29   104   106    1
    30    91    90    2
    31   122   121    1
    32   122   128   am
    33    96    90   am
    34   121   124    1
    35   129   128    1
    36   129   130    1
    37    95    93    1
    38    90    89    1
    39    93    94    1
    40    93    92    1
    41   124   125    1
    42   124   126    1
    43   125   127    1
    44    92    89    1
    45   130   131    2
    46    89    88    1
    47    80    79    2
    48    88    86   am
    49    87    86    2
    50    86    85    1
    51    79    78    1
    52    79    84   am
    53     5     2    1
    54     5     6    1
    55     1     2    1
    56     8     7    1
    57     8     9    1
    58     7     6    1
    59    85    84    1
    60    78    81    1
    61    78    77    1
    62    81    83    1
    63    81    82    1
    64     2     3    1
    65    76    75    2
    66     3     4    2
    67    77    75   am
    68    75    74    1
    69    71    69   ar
    70    71    72   ar
    71    69    67   ar
    72    72    70   ar
    73    66    67    1
    74    66    63    1
    75    67    68   ar
    76   139   140    1
    77   139   136    1
    78   137   138    2
    79   137   136    1
    80   142   140   ar
    81   142   144   ar
    82    70    68   ar
    83   135   136    1
    84   140   141   ar
    85   144   145   ar
    86    74    73    1
    87    65    64    2
    88    73    64   am
    89    64    63    1
    90    63    62    1
    91   141   143   ar
    92   145   146    1
    93   145   143   ar
    94    45    46    1
    95    45    44    1
    96    62    56   am
    97    60    58    1
    98    56    57    2
    99    56    55    1
   100    44    43    1
   101    58    55    1
   102    58    59    1
   103    61    59    1
   104    33    31   am
   105    55    54    1
   106    43    42    1
   107    32    31    2
   108    31    30    1
   109    30    27    1
   110    15    14    1
   111    15    16    1
   112    25    23   am
   113    53    51    1
   114    14    12   am
   115    18    16   am
   116    18    19    1
   117    26    27    1
   118    26    20   am
   119    42    39    1
   120    27    28    1
   121    22    23    1
   122    22    19    1
   123    16    17    2
   124    38    39    1
   125    23    24    2
   126    10    11    1
   127    12    13    2
   128    12    11    1
   129    19    20    1
   130    20    21    2
   131    39    40    1
   132    51    52    1
   133    51    48    1
   134    41    40    2
   135    28    34   am
   136    28    29    2
   137    34    35    1
   138    48    47    1
   139    48    49    1
   140    35    36    1
   141    49    50    2
   142    36    37    2
