@<TRIPOS>MOLECULE
tmp/3rsgA02.pdb
 184 175 0 0 0
SMALL
GASTEIGER

@<TRIPOS>ATOM
      1  N         14.2620    4.5670   52.6340 N.3   244  TYR244     -0.1241
      2  CA        14.4180    4.1830   51.2040 C.3   244  TYR244      0.1605
      3  C         13.6600    2.9000   50.9480 C.2   244  TYR244      0.2264
      4  O         14.2560    1.8240   50.9570 O.2   244  TYR244     -0.2867
      5  CB        15.9130    3.9540   50.8440 C.3   244  TYR244      0.0534
      6  CG        16.7190    5.1450   51.1940 C.ar  244  TYR244     -0.0201
      7  CD1       16.4530    6.3670   50.5860 C.ar  244  TYR244     -0.0009
      8  CD2       17.7070    5.0880   52.1680 C.ar  244  TYR244     -0.0009
      9  CE1       17.1560    7.5090   50.9490 C.ar  244  TYR244      0.0417
     10  CE2       18.4300    6.2240   52.5320 C.ar  244  TYR244      0.0417
     11  CZ        18.1430    7.4290   51.9180 C.ar  244  TYR244      0.1957
     12  OH        18.8230    8.5460   52.2760 O.3   244  TYR244     -0.2866
     13  N         19.4650    1.3000   49.2210 N.3   317  GLY317     -0.1225
     14  CA        18.5990    1.8700   50.2280 C.3   317  GLY317      0.1811
     15  C         18.8030    1.4500   51.6620 C.2   317  GLY317      0.2280
     16  O         17.9070    1.7120   52.5110 O.2   317  GLY317     -0.2866
     17  N         26.4610   -3.0640   46.5490 N.3   342  ASP342     -0.1225
     18  CA        26.0650   -1.8290   45.9040 C.3   342  ASP342      0.1805
     19  C         25.7730   -0.7620   46.9430 C.2   342  ASP342      0.2598
     20  O         25.5230   -1.0640   48.1180 O.2   342  ASP342     -0.2718
     21  CB        24.7980   -2.0810   45.0900 C.3   342  ASP342      0.1424
     22  CG        24.4170   -0.9140   44.1690 C.2   342  ASP342      0.3668
     23  OD1       25.3210   -0.1430   43.7420 O.co2 342  ASP342     -0.2456
     24  OD2       23.1970   -0.7950   43.8500 O.co2 342  ASP342     -0.2456
     25  N         25.8290    0.4840   46.5040 N.am  343  ALA343     -0.1966
     26  CA        25.2040    1.5780   47.2110 C.3   343  ALA343      0.1728
     27  C         25.6960    1.7060   48.6370 C.2   343  ALA343      0.2616
     28  O         26.9170    1.7100   48.9010 O.2   343  ALA343     -0.2715
     29  CB        23.6270    1.4260   47.1530 C.3   343  ALA343      0.0334
     30  N         24.7680    1.8030   49.5900 N.am  344  ASP344     -0.1971
     31  CA        25.1840    1.9140   50.9870 C.3   344  ASP344      0.1709
     32  C         25.9960    0.7310   51.5290 C.2   344  ASP344      0.2293
     33  O         26.7840    0.9130   52.4710 O.2   344  ASP344     -0.2864
     34  CB        24.0040    2.2110   51.8900 C.3   344  ASP344      0.1436
     35  CG        23.5320    3.6560   51.7730 C.2   344  ASP344      0.3671
     36  OD1       24.3890    4.5920   51.7510 O.co2 344  ASP344     -0.2456
     37  OD2       22.2950    3.8270   51.7140 O.co2 344  ASP344     -0.2456
     38  N         29.3340    2.0220   50.7230 N.3   347  ASN347     -0.1240
     39  CA        29.6690    3.1350   51.6280 C.3   347  ASN347      0.1653
     40  C         30.1410    2.6900   53.0240 C.2   347  ASN347      0.2266
     41  O         30.9300    3.3730   53.6600 O.2   347  ASN347     -0.2867
     42  CB        28.4780    4.1280   51.7700 C.3   347  ASN347      0.1155
     43  CG        28.1810    4.8760   50.4780 C.2   347  ASN347      0.2627
     44  OD1       29.0940    5.1570   49.6960 O.2   347  ASN347     -0.2716
     45  ND2       26.9110    5.1880   50.2290 N.am  347  ASN347     -0.0877
     46  N         29.1390    3.9780   41.6750 N.3   366  HIS366     -0.1241
     47  CA        29.3530    5.1650   40.8250 C.3   366  HIS366      0.1621
     48  C         30.6330    5.8770   41.3210 C.2   366  HIS366      0.2264
     49  O         31.1870    5.4920   42.3530 O.2   366  HIS366     -0.2867
     50  CB        28.1150    6.1070   40.7180 C.3   366  HIS366      0.0745
     51  CG        27.6090    6.6610   42.0250 C.ar  366  HIS366      0.0817
     52  ND1       28.3390    7.5570   42.7680 N.ar  366  HIS366     -0.2268
     53  CD2       26.4580    6.4500   42.7160 C.ar  366  HIS366      0.1154
     54  CE1       27.6650    7.8910   43.8600 C.ar  366  HIS366      0.1986
     55  NE2       26.5250    7.2250   43.8680 N.ar  366  HIS366     -0.2212
     56  N         30.9110    6.9120   45.0400 N.3   369  GLU369     -0.1245
     57  CA        31.0950    5.7850   45.9500 C.3   369  GLU369      0.1567
     58  C         32.5040    5.1900   45.8120 C.2   369  GLU369      0.2260
     59  O         33.1070    4.7870   46.7930 O.2   369  GLU369     -0.2867
     60  CB        30.0330    4.7060   45.6470 C.3   369  GLU369      0.0388
     61  CG        28.6160    5.1270   46.0960 C.3   369  GLU369      0.1160
     62  CD        27.4790    4.3450   45.4360 C.2   369  GLU369      0.3649
     63  OE1       27.7010    3.7230   44.3910 O.co2 369  GLU369     -0.2457
     64  OE2       26.3390    4.3870   45.9500 O.co2 369  GLU369     -0.2457
     65  N         30.4570    2.5940   37.4120 N.3   402  LYS402     -0.1231
     66  CA        29.3570    3.1300   36.6100 C.3   402  LYS402      0.1693
     67  C         29.6460    4.5780   36.1190 C.2   402  LYS402      0.2593
     68  O         30.2490    5.3630   36.8360 O.2   402  LYS402     -0.2718
     69  CB        28.0600    3.1010   37.4330 C.3   402  LYS402      0.0285
     70  CG        27.7010    1.6930   37.8720 C.3   402  LYS402      0.0035
     71  CD        26.3930    1.5190   38.5730 C.3   402  LYS402      0.0206
     72  CE        26.3260    2.1180   39.8750 C.3   402  LYS402      0.1093
     73  NZ        25.4310    1.3690   40.8150 N.3   402  LYS402     -0.1314
     74  N         29.2740    4.8750   34.8790 N.am  403  SER403     -0.1938
     75  CA        29.3200    6.2090   34.2960 C.3   403  SER403      0.2055
     76  C         28.8320    6.0380   32.8780 C.2   403  SER403      0.2642
     77  O         28.4810    4.9070   32.4430 O.2   403  SER403     -0.2714
     78  CB        30.7690    6.7570   34.2830 C.3   403  SER403      0.2130
     79  OG        31.1880    7.2420   35.5390 O.3   403  SER403     -0.2179
     80  N         28.8180    7.1400   32.1320 N.am  404  ALA404     -0.1977
     81  CA        28.2490    7.1290   30.8070 C.3   404  ALA404      0.1597
     82  C         28.9320    6.0370   30.0260 C.2   404  ALA404      0.2287
     83  O         28.2760    5.2990   29.3190 O.2   404  ALA404     -0.2864
     84  CB        28.3620    8.4710   30.1350 C.3   404  ALA404      0.0319
     85  N         30.7490    2.6960   31.1580 N.3   406  THR406     -0.1218
     86  CA        30.9550    1.9200   32.3760 C.3   406  THR406      0.1862
     87  C         32.1370    0.9690   32.1460 C.2   406  THR406      0.2287
     88  O         32.3040    0.3970   31.0580 O.2   406  THR406     -0.2866
     89  CB        29.6680    1.1400   32.7210 C.3   406  THR406      0.1770
     90  OG1       28.7160    2.0740   33.2180 O.3   406  THR406     -0.2211
     91  CG2       29.8930    0.0050   33.7800 C.3   406  THR406      0.0375
     92  N         26.5650    1.4430   25.7660 N.3   419  THR419     -0.1203
     93  CA        25.1150    1.5750   25.6080 C.3   419  THR419      0.1994
     94  C         24.5640    2.4490   26.6880 C.2   419  THR419      0.2618
     95  O         25.1990    2.6350   27.7180 O.2   419  THR419     -0.2717
     96  CB        24.3880    0.2090   25.6550 C.3   419  THR419      0.1784
     97  OG1       24.5180   -0.3610   26.9740 O.3   419  THR419     -0.2211
     98  CG2       24.9770   -0.7110   24.5230 C.3   419  THR419      0.0376
     99  N         23.3690    2.9800   26.4610 N.am  420  GLY420     -0.1942
    100  CA        22.7090    3.8190   27.4670 C.3   420  GLY420      0.2014
    101  C         22.5240    5.2330   26.9820 C.2   420  GLY420      0.2639
    102  O         22.9620    5.6100   25.8800 O.2   420  GLY420     -0.2714
    103  N         21.8710    6.0350   27.8070 N.am  421  ASN421     -0.1958
    104  CA        21.7290    7.4660   27.5220 C.3   421  ASN421      0.1819
    105  C         21.4440    8.1760   28.8670 C.2   421  ASN421      0.2621
    106  O         21.5100    7.5220   29.9320 O.2   421  ASN421     -0.2715
    107  CB        20.6450    7.7320   26.4690 C.3   421  ASN421      0.1195
    108  CG        19.2790    7.2240   26.8700 C.2   421  ASN421      0.2630
    109  OD1       18.8950    7.2810   28.0220 O.2   421  ASN421     -0.2716
    110  ND2       18.5170    6.7570   25.8940 N.am  421  ASN421     -0.0877
    111  N         21.1330    9.4750   28.8060 N.am  422  THR422     -0.1951
    112  CA        20.9690   10.2510   30.0100 C.3   422  THR422      0.1897
    113  C         19.6590    9.9690   30.7520 C.2   422  THR422      0.2313
    114  O         19.4840   10.4680   31.8570 O.2   422  THR422     -0.2863
    115  CB        21.0520   11.7430   29.7680 C.3   422  THR422      0.1794
    116  OG1       19.8570   12.1990   29.1030 O.3   422  THR422     -0.2208
    117  CG2       22.3190   12.0700   28.9830 C.3   422  THR422      0.0378
    118  N         19.2090    7.2930   32.1310 N.3   424  LEU424     -0.1231
    119  CA        19.7000    6.5280   33.2820 C.3   424  LEU424      0.1693
    120  C         20.3040    7.4190   34.3910 C.2   424  LEU424      0.2593
    121  O         20.6130    6.9410   35.4950 O.2   424  LEU424     -0.2718
    122  CB        20.7580    5.5420   32.8000 C.3   424  LEU424      0.0284
    123  CG        20.3220    4.4430   31.8180 C.3   424  LEU424      0.0019
    124  CD1       21.5620    3.6140   31.3580 C.3   424  LEU424      0.0001
    125  CD2       19.2490    3.5810   32.4810 C.3   424  LEU424      0.0001
    126  N         20.5040    8.7060   34.0920 N.am  425  SER425     -0.1938
    127  CA        21.0000    9.7180   35.0400 C.3   425  SER425      0.2055
    128  C         19.8910   10.2050   35.9650 C.2   425  SER425      0.2643
    129  O         19.5340   11.4090   36.0060 O.2   425  SER425     -0.2714
    130  CB        21.5460   10.9030   34.2570 C.3   425  SER425      0.2130
    131  OG        22.5620   10.4790   33.3490 O.3   425  SER425     -0.2179
    132  N         19.3500    9.2700   36.7280 N.am  426  LYS426     -0.1963
    133  CA        18.1850    9.5400   37.5210 C.3   426  LYS426      0.1728
    134  C         18.0560    8.3920   38.5530 C.2   426  LYS426      0.2617
    135  O         18.2750    7.2050   38.2480 O.2   426  LYS426     -0.2715
    136  CB        16.9780    9.5770   36.5620 C.3   426  LYS426      0.0311
    137  CG        15.6930   10.0600   37.1360 C.3   426  LYS426      0.0038
    138  CD        14.4910    9.8430   36.1810 C.3   426  LYS426      0.0206
    139  CE        14.2770   10.9640   35.1520 C.3   426  LYS426      0.1093
    140  NZ        15.0890   10.6920   33.9610 N.3   426  LYS426     -0.1314
    141  N         17.7220    8.7460   39.7750 N.am  427  GLY427     -0.1940
    142  CA        17.6680    7.8000   40.8630 C.3   427  GLY427      0.2014
    143  C         16.8740    6.5400   40.5400 C.2   427  GLY427      0.2639
    144  O         15.7460    6.5900   40.0480 O.2   427  GLY427     -0.2714
    145  N         17.4630    5.4010   40.8480 N.am  428  GLY428     -0.1939
    146  CA        16.7640    4.1090   40.6710 C.3   428  GLY428      0.2014
    147  C         17.4050    3.2220   39.6320 C.2   428  GLY428      0.2640
    148  O         17.2650    1.9780   39.6850 O.2   428  GLY428     -0.2714
    149  N         18.1210    3.8280   38.6870 N.am  429  SER429     -0.1935
    150  CA        18.6070    3.0590   37.5490 C.3   429  SER429      0.2055
    151  C         19.7030    2.0990   38.0100 C.2   429  SER429      0.2644
    152  O         19.8100    0.9680   37.5240 O.2   429  SER429     -0.2714
    153  CB        19.0690    3.9790   36.3970 C.3   429  SER429      0.2130
    154  OG        20.1160    4.7940   36.8210 O.3   429  SER429     -0.2179
    155  N         20.4860    2.5450   38.9830 N.am  430  GLY430     -0.1939
    156  CA        21.4880    1.7330   39.6070 C.3   430  GLY430      0.2014
    157  C         20.9010    0.5370   40.3510 C.2   430  GLY430      0.2638
    158  O         21.4950   -0.5240   40.3860 O.2   430  GLY430     -0.2714
    159  N         19.7820    0.7330   41.0170 N.am  431  ASP431     -0.1971
    160  CA        19.1660   -0.3210   41.7780 C.3   431  ASP431      0.1709
    161  C         18.7240   -1.4460   40.8070 C.2   431  ASP431      0.2293
    162  O         18.8690   -2.6030   41.0940 O.2   431  ASP431     -0.2864
    163  CB        17.9490    0.2150   42.5010 C.3   431  ASP431      0.1436
    164  CG        18.2850    1.2860   43.5510 C.2   431  ASP431      0.3671
    165  OD1       19.4160    1.3120   44.0620 O.co2 431  ASP431     -0.2456
    166  OD2       17.3880    2.1110   43.8370 O.co2 431  ASP431     -0.2456
    167  N         20.1550   -2.1880   37.8810 N.3   433  LEU433     -0.1245
    168  CA        21.3360   -2.8740   37.3980 C.3   433  LEU433      0.1561
    169  C         21.8210   -3.9150   38.4450 C.2   433  LEU433      0.2260
    170  O         22.1960   -5.0190   38.0900 O.2   433  LEU433     -0.2867
    171  CB        22.4820   -1.8800   37.1320 C.3   433  LEU433      0.0270
    172  CG        23.7780   -2.5450   36.6900 C.3   433  LEU433      0.0019
    173  CD1       23.5160   -3.1350   35.2930 C.3   433  LEU433      0.0001
    174  CD2       24.9190   -1.5530   36.6650 C.3   433  LEU433      0.0001
    175  N         21.2070   -3.1580   30.2000 N.3   458  HIS458     -0.1241
    176  CA        20.6450   -2.0510   31.0300 C.3   458  HIS458      0.1621
    177  C         20.6830   -0.7670   30.2310 C.2   458  HIS458      0.2264
    178  O         19.6910   -0.0690   30.1470 O.2   458  HIS458     -0.2867
    179  CB        21.5120   -1.9580   32.2950 C.3   458  HIS458      0.0745
    180  CG        21.2080   -0.8290   33.2230 C.ar  458  HIS458      0.0817
    181  ND1       22.0180    0.2730   33.3010 N.ar  458  HIS458     -0.2268
    182  CD2       20.3270   -0.7140   34.2490 C.ar  458  HIS458      0.1154
    183  CE1       21.6390    1.0380   34.3050 C.ar  458  HIS458      0.1986
    184  NE2       20.5880    0.4780   34.8770 N.ar  458  HIS458     -0.2212
@<TRIPOS>BOND
     1    98    96    1
     2    93    96    1
     3    93    92    1
     4    93    94    1
     5    96    97    1
     6   102   101    2
     7   110   108   am
     8    99    94   am
     9    99   100    1
    10   107   108    1
    11   107   104    1
    12    94    95    2
    13   108   109    2
    14   101   100    1
    15   101   103   am
    16   104   103    1
    17   104   105    1
    18   111   105   am
    19   111   112    1
    20   105   106    2
    21   117   115    1
    22   116   115    1
    23    83    82    2
    24   115   112    1
    25   112   113    1
    26    82    81    1
    27    84    81    1
    28   178   177    2
    29   175   176    1
    30   177   176    1
    31   113   114    2
    32    81    80    1
    33   176   179    1
    34    88    87    2
    35    85    86    1
    36   124   123    1
    37   123   125    1
    38   123   122    1
    39   118   119    1
    40    80    76   am
    41    87    86    1
    42   179   180    1
    43    86    89    1
    44    77    76    2
    45    89    90    1
    46    89    91    1
    47   122   119    1
    48    76    75    1
    49   180   181   ar
    50   180   182   ar
    51   119   120    1
    52   181   183   ar
    53   131   130    1
    54   140   139    1
    55   126   120   am
    56   126   127    1
    57   182   184   ar
    58   130   127    1
    59    78    75    1
    60    78    79    1
    61    75    74    1
    62   183   184   ar
    63   120   121    2
    64    74    67   am
    65   127   128    1
    66   139   138    1
    67   173   172    1
    68   128   129    2
    69   128   132   am
    70    67    66    1
    71    67    68    2
    72   138   137    1
    73   153   154    1
    74   153   150    1
    75   136   137    1
    76   136   133    1
    77    66    65    1
    78    66    69    1
    79   174   172    1
    80   172   171    1
    81   132   133    1
    82   171   168    1
    83   168   167    1
    84   168   169    1
    85    69    70    1
    86   133   134    1
    87   152   151    2
    88   150   151    1
    89   150   149    1
    90    70    71    1
    91   151   155   am
    92   170   169    2
    93   135   134    2
    94   134   141   am
    95    71    72    1
    96   149   147   am
    97   155   156    1
    98   156   157    1
    99   147   148    2
   100   147   146    1
   101   141   142    1
   102    72    73    1
   103   144   143    2
   104   157   158    2
   105   157   159   am
   106   143   145   am
   107   143   142    1
   108   146   145    1
   109    50    47    1
   110    50    51    1
   111   161   162    2
   112   161   160    1
   113    47    48    1
   114    47    46    1
   115   159   160    1
   116    48    49    2
   117   160   163    1
   118    51    53   ar
   119    51    52   ar
   120   163   164    1
   121    53    55   ar
   122    52    54   ar
   123   164   166   ar
   124   164   165   ar
   125    23    22   ar
   126    24    22   ar
   127    54    55   ar
   128    22    21    1
   129    63    62   ar
   130    56    57    1
   131    21    18    1
   132    62    64   ar
   133    62    61    1
   134    60    57    1
   135    60    61    1
   136    58    57    1
   137    58    59    2
   138    18    17    1
   139    18    19    1
   140    25    19   am
   141    25    26    1
   142    19    20    2
   143    29    26    1
   144    26    27    1
   145    27    28    2
   146    27    30   am
   147    13    14    1
   148    30    31    1
   149    44    43    2
   150    14    15    1
   151    45    43   am
   152    43    42    1
   153     7     9   ar
   154     7     6   ar
   155    38    39    1
   156     5     6    1
   157     5     2    1
   158     3     4    2
   159     3     2    1
   160     9    11   ar
   161    31    32    1
   162    31    34    1
   163     6     8   ar
   164     2     1    1
   165    32    33    2
   166    39    42    1
   167    39    40    1
   168    15    16    2
   169    37    35   ar
   170    36    35   ar
   171    35    34    1
   172    11    12    1
   173    11    10   ar
   174     8    10   ar
   175    40    41    2
