@<TRIPOS>MOLECULE
tmp/3rsgA01.pdb
 189 181 0 0 0
SMALL
GASTEIGER

@<TRIPOS>ATOM
      1  N         50.6570    0.3070   19.4500 N.3     2  LYS2       -0.1245
      2  CA        51.9560    0.7600   18.9530 C.3     2  LYS2        0.1561
      3  C         52.8710   -0.4540   18.7610 C.2     2  LYS2        0.2260
      4  O         53.5920   -0.5470   17.7610 O.2     2  LYS2       -0.2867
      5  CB        52.6030    1.8230   19.8510 C.3     2  LYS2        0.0271
      6  CG        53.9960    2.2620   19.3280 C.3     2  LYS2        0.0035
      7  CD        54.2090    3.7540   19.4700 C.3     2  LYS2        0.0206
      8  CE        55.6760    4.1250   19.3980 C.3     2  LYS2        0.1093
      9  NZ        55.8950    5.3870   20.1440 N.3     2  LYS2       -0.1314
     10  N         51.5410   -2.2340   15.5220 N.3     5  ASP5       -0.1239
     11  CA        52.1870   -1.6440   14.3490 C.3     5  ASP5        0.1674
     12  C         53.6530   -2.0830   14.1890 C.2     5  ASP5        0.2266
     13  O         54.0590   -2.4920   13.0790 O.2     5  ASP5       -0.2867
     14  CB        52.1460   -0.1190   14.4380 C.3     5  ASP5        0.1410
     15  CG        50.8180    0.4630   14.0110 C.2     5  ASP5        0.3668
     16  OD1       50.0310   -0.2270   13.3110 O.co2   5  ASP5       -0.2456
     17  OD2       50.5720    1.6280   14.3620 O.co2   5  ASP5       -0.2456
     18  N         50.4920    2.8280    5.8590 N.3    20  MET20      -0.1245
     19  CA        50.0990    4.2350    5.7380 C.3    20  MET20       0.1570
     20  C         49.1360    4.4400    4.5160 C.2    20  MET20       0.2261
     21  O         48.1190    5.1350    4.6050 O.2    20  MET20      -0.2867
     22  CB        51.3510    5.1130    5.6330 C.3    20  MET20       0.0387
     23  CG        51.0190    6.5810    5.5560 C.3    20  MET20       0.0595
     24  SD        52.3760    7.7110    5.9440 S.3    20  MET20      -0.1393
     25  CE        52.5800    7.4250    7.7070 C.3    20  MET20       0.0692
     26  N         53.4370   17.0890   11.2770 N.3    49  GLY49      -0.1210
     27  CA        54.6940   16.5230   10.8420 C.3    49  GLY49       0.1956
     28  C         54.9120   15.0570   11.1290 C.2    49  GLY49       0.2612
     29  O         55.8990   14.4790   10.6350 O.2    49  GLY49      -0.2717
     30  N         54.0070   14.4310   11.8940 N.am   50  GLY50      -0.1942
     31  CA        54.1280   12.9990   12.2110 C.3    50  GLY50       0.2014
     32  C         53.4770   12.0310   11.2470 C.2    50  GLY50       0.2639
     33  O         53.0800   12.4050   10.1270 O.2    50  GLY50      -0.2714
     34  N         53.2930   10.7940   11.6960 N.am   51  ASN51      -0.1958
     35  CA        52.6340    9.8040   10.8560 C.3    51  ASN51       0.1819
     36  C         51.1120    9.9960   10.7380 C.2    51  ASN51       0.2621
     37  O         50.4940    9.5360    9.7720 O.2    51  ASN51      -0.2715
     38  CB        53.0000    8.3970   11.3160 C.3    51  ASN51       0.1195
     39  CG        54.4580    8.0270   10.9840 C.2    51  ASN51       0.2630
     40  OD1       55.0560    8.5140   10.0230 O.2    51  ASN51      -0.2716
     41  ND2       55.0190    7.1500   11.7870 N.am   51  ASN51      -0.0877
     42  N         50.5060   10.7120   11.6840 N.am   52  ASN52      -0.1958
     43  CA        49.1310   11.0950   11.5120 C.3    52  ASN52       0.1819
     44  C         49.0790   11.9660   10.2400 C.2    52  ASN52       0.2621
     45  O         48.2840   11.7050    9.3100 O.2    52  ASN52      -0.2715
     46  CB        48.6340   11.8730   12.7060 C.3    52  ASN52       0.1195
     47  CG        47.1400   11.8930   12.7850 C.2    52  ASN52       0.2630
     48  OD1       46.5550   12.9500   12.7400 O.2    52  ASN52      -0.2716
     49  ND2       46.5220   10.7350   12.9600 N.am   52  ASN52      -0.0877
     50  N         49.9680   12.9570   10.1930 N.am   53  GLY53      -0.1954
     51  CA        50.0320   13.8370    9.0360 C.3    53  GLY53       0.1869
     52  C         50.3200   13.0780    7.7590 C.2    53  GLY53       0.2309
     53  O         49.7610   13.3900    6.7090 O.2    53  GLY53      -0.2863
     54  N         49.4240   10.0040    7.1030 N.3    55  ASP55      -0.1239
     55  CA        48.1090    9.4610    6.7430 C.3    55  ASP55       0.1674
     56  C         47.2900   10.5240    5.9920 C.2    55  ASP55       0.2266
     57  O         46.6880   10.2620    4.9390 O.2    55  ASP55      -0.2867
     58  CB        47.3510    8.9660    7.9760 C.3    55  ASP55       0.1410
     59  CG        47.9620    7.7270    8.6130 C.2    55  ASP55       0.3668
     60  OD1       48.8260    7.0720    7.9880 O.co2  55  ASP55      -0.2456
     61  OD2       47.5130    7.3740    9.7330 O.co2  55  ASP55      -0.2456
     62  N         59.1700   19.5260   11.0670 N.3    78  LYS78      -0.1245
     63  CA        59.8390   18.4510   10.3130 C.3    78  LYS78       0.1561
     64  C         58.8620   17.3110   10.0540 C.2    78  LYS78       0.2260
     65  O         57.7870   17.2610   10.6420 O.2    78  LYS78      -0.2867
     66  CB        61.0860   17.9380   11.0530 C.3    78  LYS78       0.0271
     67  CG        60.8150   17.3620   12.4680 C.3    78  LYS78       0.0035
     68  CD        60.4590   15.8390   12.4970 C.3    78  LYS78       0.0206
     69  CE        60.2020   15.3750   13.9530 C.3    78  LYS78       0.1093
     70  NZ        61.2970   15.7420   14.9070 N.3    78  LYS78      -0.1314
     71  N         58.3660   12.9840    9.5650 N.3    80  THR80      -0.1218
     72  CA        58.8820   11.6230    9.6370 C.3    80  THR80       0.1862
     73  C         59.0880   11.0700    8.2130 C.2    80  THR80       0.2287
     74  O         58.5220   11.6030    7.2630 O.2    80  THR80      -0.2866
     75  CB        57.9440   10.6800   10.3510 C.3    80  THR80       0.1770
     76  OG1       56.7050   10.6060    9.6340 O.3    80  THR80      -0.2211
     77  CG2       57.7170   11.1040   11.8130 C.3    80  THR80       0.0375
     78  N         46.2980   16.3350   12.1420 N.3   116  ILE116     -0.1231
     79  CA        47.3270   17.0950   12.8500 C.3   116  ILE116      0.1692
     80  C         48.0390   16.1810   13.8460 C.2   116  ILE116      0.2592
     81  O         49.2220   15.9490   13.7090 O.2   116  ILE116     -0.2718
     82  CB        46.7560   18.3100   13.5910 C.3   116  ILE116      0.0266
     83  CG1       45.9910   19.2100   12.6120 C.3   116  ILE116      0.0019
     84  CG2       47.9320   19.0500   14.3290 C.3   116  ILE116      0.0020
     85  CD1       45.2030   20.3620   13.2770 C.3   116  ILE116      0.0001
     86  N         47.3180   15.6720   14.8450 N.am  117  PHE117     -0.1962
     87  CA        47.9090   14.7240   15.8110 C.3   117  PHE117      0.1771
     88  C         47.0630   13.4800   16.0020 C.2   117  PHE117      0.2620
     89  O         45.8720   13.5710   16.1730 O.2   117  PHE117     -0.2715
     90  CB        48.0760   15.3270   17.2130 C.3   117  PHE117      0.0574
     91  CG        48.7860   16.6440   17.2360 C.ar  117  PHE117     -0.0200
     92  CD1       50.0820   16.7640   16.7680 C.ar  117  PHE117     -0.0042
     93  CD2       48.1580   17.7710   17.7730 C.ar  117  PHE117     -0.0042
     94  CE1       50.7450   18.0140   16.7780 C.ar  117  PHE117     -0.0003
     95  CE2       48.7910   19.0050   17.8060 C.ar  117  PHE117     -0.0003
     96  CZ        50.1060   19.1300   17.3040 C.ar  117  PHE117     -0.0000
     97  N         47.7190   12.3340   16.1070 N.am  118  GLY118     -0.1940
     98  CA        47.0320   11.0880   16.4200 C.3   118  GLY118      0.2014
     99  C         47.5100   10.5740   17.7640 C.2   118  GLY118      0.2640
    100  O         47.5000   11.3120   18.7770 O.2   118  GLY118     -0.2714
    101  N         47.9900    9.3360   17.7760 N.am  119  THR119     -0.1936
    102  CA        48.4310    8.7210   19.0290 C.3   119  THR119      0.2028
    103  C         49.7580    9.3260   19.5200 C.2   119  THR119      0.2643
    104  O         50.2060    9.0300   20.6180 O.2   119  THR119     -0.2714
    105  CB        48.5930    7.2110   18.8180 C.3   119  THR119      0.1808
    106  OG1       49.5480    7.0090   17.7690 O.3   119  THR119     -0.2208
    107  CG2       47.2380    6.6030   18.4190 C.3   119  THR119      0.0379
    108  N         50.3810   10.1720   18.6980 N.am  120  GLY120     -0.1939
    109  CA        51.6800   10.7730   19.0280 C.3   120  GLY120      0.2014
    110  C         51.5380   12.0530   19.8130 C.2   120  GLY120      0.2639
    111  O         52.5310   12.6850   20.1690 O.2   120  GLY120     -0.2714
    112  N         50.3030   12.4500   20.1000 N.am  121  LEU121     -0.1963
    113  CA        50.0640   13.6440   20.8950 C.3   121  LEU121      0.1728
    114  C         50.8030   13.5460   22.2180 C.2   121  LEU121      0.2616
    115  O         50.7300   12.5240   22.8600 O.2   121  LEU121     -0.2715
    116  CB        48.5670   13.7490   21.1580 C.3   121  LEU121      0.0311
    117  CG        48.1520   14.8760   22.0920 C.3   121  LEU121      0.0022
    118  CD1       48.5280   16.2380   21.5130 C.3   121  LEU121      0.0001
    119  CD2       46.6590   14.7380   22.4070 C.3   121  LEU121      0.0001
    120  N         51.5750   14.5710   22.5780 N.am  122  ARG122     -0.1963
    121  CA        52.2230   14.6590   23.9020 C.3   122  ARG122      0.1729
    122  C         52.1050   16.0890   24.4470 C.2   122  ARG122      0.2617
    123  O         52.5250   17.0600   23.8030 O.2   122  ARG122     -0.2715
    124  CB        53.7020   14.2460   23.8580 C.3   122  ARG122      0.0348
    125  CG        53.9250   12.7840   23.4510 C.3   122  ARG122      0.0492
    126  CD        53.4310   11.7260   24.5130 C.3   122  ARG122      0.2205
    127  NE        53.7810   10.3990   23.9930 N.pl3 122  ARG122     -0.0865
    128  CZ        53.0180    9.6470   23.1920 C.cat 122  ARG122      0.5346
    129  NH1       51.7810   10.0170   22.8550 N.pl3 122  ARG122      0.1354
    130  NH2       53.4910    8.4810   22.7590 N.pl3 122  ARG122      0.1354
    131  N         51.4910   16.2100   25.6100 N.am  123  GLY123     -0.1940
    132  CA        51.3480   17.4950   26.2320 C.3   123  GLY123      0.2014
    133  C         50.2770   18.3390   25.5780 C.2   123  GLY123      0.2639
    134  O         49.7140   17.9870   24.5230 O.2   123  GLY123     -0.2714
    135  N         50.0020   19.4630   26.2390 N.am  124  GLU124     -0.1963
    136  CA        48.9840   20.4240   25.8420 C.3   124  GLU124      0.1733
    137  C         49.2130   20.9920   24.4380 C.2   124  GLU124      0.2616
    138  O         50.3410   21.2150   24.0270 O.2   124  GLU124     -0.2715
    139  CB        48.9950   21.5910   26.8600 C.3   124  GLU124      0.0429
    140  CG        48.7630   21.1520   28.3190 C.3   124  GLU124      0.1163
    141  CD        47.3080   21.3070   28.7670 C.2   124  GLU124      0.3649
    142  OE1       46.5810   20.2860   28.8440 O.co2 124  GLU124     -0.2457
    143  OE2       46.9060   22.4690   29.0530 O.co2 124  GLU124     -0.2457
    144  N         48.1310   21.2170   23.7050 N.am  125  ILE125     -0.1963
    145  CA        48.1940   21.8930   22.4010 C.3   125  ILE125      0.1727
    146  C         48.1190   23.4250   22.5840 C.2   125  ILE125      0.2616
    147  O         47.2050   23.9220   23.2250 O.2   125  ILE125     -0.2715
    148  CB        47.0470   21.4160   21.4520 C.3   125  ILE125      0.0290
    149  CG1       47.1610   19.9140   21.1500 C.3   125  ILE125      0.0022
    150  CG2       47.0360   22.1890   20.1480 C.3   125  ILE125      0.0023
    151  CD1       46.0430   19.3930   20.2010 C.3   125  ILE125      0.0001
    152  N         49.0650   24.1470   21.9910 N.am  126  THR126     -0.1951
    153  CA        49.1310   25.6200   22.0370 C.3   126  THR126      0.1897
    154  C         49.4960   26.2200   20.6760 C.2   126  THR126      0.2313
    155  O         49.6610   25.4840   19.6920 O.2   126  THR126     -0.2863
    156  CB        50.2440   26.0580   23.0160 C.3   126  THR126      0.1794
    157  OG1       51.4450   25.3330   22.6940 O.3   126  THR126     -0.2208
    158  CG2       49.8320   25.7840   24.4700 C.3   126  THR126      0.0378
    159  N         48.8410   25.5370   16.4960 N.3   129  TYR129     -0.1241
    160  CA        48.1040   24.2680   16.5500 C.3   129  TYR129      0.1605
    161  C         46.7380   24.5490   17.1870 C.2   129  TYR129      0.2264
    162  O         45.6990   24.2300   16.6150 O.2   129  TYR129     -0.2867
    163  CB        48.8800   23.1810   17.3050 C.3   129  TYR129      0.0534
    164  CG        50.0920   22.6630   16.5770 C.ar  129  TYR129     -0.0201
    165  CD1       49.9650   21.9380   15.3920 C.ar  129  TYR129     -0.0009
    166  CD2       51.3730   22.8840   17.0650 C.ar  129  TYR129     -0.0009
    167  CE1       51.0820   21.4540   14.7210 C.ar  129  TYR129      0.0417
    168  CE2       52.4930   22.4060   16.4010 C.ar  129  TYR129      0.0417
    169  CZ        52.3360   21.6820   15.2360 C.ar  129  TYR129      0.1957
    170  OH        53.4500   21.2030   14.5940 O.3   129  TYR129     -0.2866
    171  N         42.4020    8.8930   12.7460 N.3   147  ASP147     -0.1239
    172  CA        42.7940    8.0760   13.9190 C.3   147  ASP147      0.1674
    173  C         42.1340    8.4680   15.2660 C.2   147  ASP147      0.2266
    174  O         41.3530    7.6810   15.8160 O.2   147  ASP147     -0.2867
    175  CB        44.3060    7.8960   14.0830 C.3   147  ASP147      0.1410
    176  CG        44.6690    6.5600   14.8310 C.2   147  ASP147      0.3668
    177  OD1       43.8590    5.6100   14.9160 O.co2 147  ASP147     -0.2456
    178  OD2       45.7930    6.4370   15.3190 O.co2 147  ASP147     -0.2456
    179  N         42.3890    3.0420   13.2220 N.3   172  PHE172     -0.1241
    180  CA        43.0210    1.9340   12.4860 C.3   172  PHE172      0.1605
    181  C         43.2500    0.7140   13.3590 C.2   172  PHE172      0.2264
    182  O         43.7650    0.8260   14.4650 O.2   172  PHE172     -0.2867
    183  CB        44.2990    2.4520   11.8000 C.3   172  PHE172      0.0534
    184  CG        44.0690    3.7430   11.0610 C.ar  172  PHE172     -0.0203
    185  CD1       43.1140    3.8140   10.0640 C.ar  172  PHE172     -0.0042
    186  CD2       44.7400    4.8960   11.3990 C.ar  172  PHE172     -0.0042
    187  CE1       42.8670    5.0320    9.3820 C.ar  172  PHE172     -0.0003
    188  CE2       44.5000    6.0610   10.7380 C.ar  172  PHE172     -0.0003
    189  CZ        43.5480    6.1400    9.7590 C.ar  172  PHE172     -0.0000
@<TRIPOS>BOND
     1    20    21    2
     2    20    19    1
     3    57    56    2
     4    23    22    1
     5    23    24    1
     6    22    19    1
     7    19    18    1
     8    24    25    1
     9    56    55    1
    10    53    52    2
    11    55    54    1
    12    55    58    1
    13    74    73    2
    14    52    51    1
    15    58    59    1
    16    60    59   ar
    17    73    72    1
    18    59    61   ar
    19    51    50    1
    20    45    44    2
    21   187   189   ar
    22   187   185   ar
    23    71    72    1
    24    76    75    1
    25    72    75    1
    26   189   188   ar
    27    37    36    2
    28    40    39    2
    29    64    63    1
    30    64    65    2
    31   185   184   ar
    32    33    32    2
    33    50    44   am
    34    44    43    1
    35    63    66    1
    36    63    62    1
    37    75    77    1
    38    29    28    2
    39    36    35    1
    40    36    42   am
    41   188   186   ar
    42    27    28    1
    43    27    26    1
    44    35    38    1
    45    35    34    1
    46    39    38    1
    47    39    41   am
    48    66    67    1
    49   184   186   ar
    50   184   183    1
    51    28    30   am
    52    32    34   am
    53    32    31    1
    54    43    42    1
    55    43    46    1
    56   183   180    1
    57    30    31    1
    58    78    79    1
    59    67    68    1
    60   180   179    1
    61   180   181    1
    62    68    69    1
    63    83    85    1
    64    83    82    1
    65    46    47    1
    66    48    47    2
    67   171   172    1
    68    47    49   am
    69    79    82    1
    70    79    80    1
    71    13    12    2
    72    16    15   ar
    73   181   182    2
    74    82    84    1
    75    81    80    2
    76    80    86   am
    77   172   175    1
    78   172   173    1
    79    69    70    1
    80    15    17   ar
    81    15    14    1
    82   175   176    1
    83    12    11    1
    84    11    14    1
    85    11    10    1
    86   170   169    1
    87   167   169   ar
    88   167   165   ar
    89   176   177   ar
    90   176   178   ar
    91    86    87    1
    92   169   168   ar
    93   173   174    2
    94   165   164   ar
    95    87    88    1
    96    87    90    1
    97    88    97   am
    98    88    89    2
    99    97    98    1
   100   168   166   ar
   101    98    99    1
   102   159   160    1
   103   160   161    1
   104   160   163    1
   105   164   166   ar
   106   164   163    1
   107   162   161    2
   108    92    94   ar
   109    92    91   ar
   110    94    96   ar
   111    90    91    1
   112    91    93   ar
   113    96    95   ar
   114     4     3    2
   115    99   101   am
   116    99   100    2
   117   106   105    1
   118    93    95   ar
   119   101   102    1
   120   107   105    1
   121   108   109    1
   122   108   103   am
   123     3     2    1
   124   105   102    1
   125     2     1    1
   126     2     5    1
   127   109   110    1
   128   102   103    1
   129     6     7    1
   130     6     5    1
   131     8     7    1
   132     8     9    1
   133   103   104    2
   134   155   154    2
   135   110   112   am
   136   110   111    2
   137   112   113    1
   138   150   148    1
   139   151   149    1
   140   154   153    1
   141   113   116    1
   142   113   114    1
   143   149   148    1
   144   116   117    1
   145   148   145    1
   146   118   117    1
   147   152   153    1
   148   152   146   am
   149   153   156    1
   150   117   119    1
   151   114   120   am
   152   114   115    2
   153   145   146    1
   154   145   144    1
   155   120   121    1
   156   146   147    2
   157   157   156    1
   158   130   128    1
   159   129   128    1
   160   156   158    1
   161   128   127    2
   162   125   124    1
   163   125   126    1
   164   144   137   am
   165   123   122    2
   166   124   121    1
   167   121   122    1
   168   127   126    1
   169   138   137    2
   170   137   136    1
   171   122   131   am
   172   134   133    2
   173   133   132    1
   174   133   135   am
   175   131   132    1
   176   136   135    1
   177   136   139    1
   178   139   140    1
   179   140   141    1
   180   141   142   ar
   181   141   143   ar
