@<TRIPOS>MOLECULE
tmp/3rsgA03.pdb
 85 81 0 0 0
SMALL
GASTEIGER

@<TRIPOS>ATOM
      1  N         29.3340    2.0220   50.7230 N.3   347  ASN347     -0.1240
      2  CA        29.6690    3.1350   51.6280 C.3   347  ASN347      0.1653
      3  C         30.1410    2.6900   53.0240 C.2   347  ASN347      0.2266
      4  O         30.9300    3.3730   53.6600 O.2   347  ASN347     -0.2867
      5  CB        28.4780    4.1280   51.7700 C.3   347  ASN347      0.1155
      6  CG        28.1810    4.8760   50.4780 C.2   347  ASN347      0.2627
      7  OD1       29.0940    5.1570   49.6960 O.2   347  ASN347     -0.2716
      8  ND2       26.9110    5.1880   50.2290 N.am  347  ASN347     -0.0877
      9  N         29.1390    3.9780   41.6750 N.3   366  HIS366     -0.1227
     10  CA        29.3530    5.1650   40.8250 C.3   366  HIS366      0.1737
     11  C         30.6330    5.8770   41.3210 C.2   366  HIS366      0.2438
     12  O         31.1870    5.4920   42.3530 O.2   366  HIS366     -0.2733
     13  CB        28.1150    6.1070   40.7180 C.3   366  HIS366      0.0758
     14  CG        27.6090    6.6610   42.0250 C.ar  366  HIS366      0.0818
     15  ND1       28.3390    7.5570   42.7680 N.ar  366  HIS366     -0.2268
     16  CD2       26.4580    6.4500   42.7160 C.ar  366  HIS366      0.1154
     17  CE1       27.6650    7.8910   43.8600 C.ar  366  HIS366      0.1986
     18  NE2       26.5250    7.2250   43.8680 N.ar  366  HIS366     -0.2212
     19  N         31.1550    6.8530   40.5670 N.am  367  PRO367     -0.2718
     20  CA        32.4300    7.4370   40.9820 C.3   367  PRO367      0.1535
     21  C         32.4670    8.0600   42.3830 C.2   367  PRO367      0.2599
     22  O         33.5170    8.0590   43.0160 O.2   367  PRO367     -0.2715
     23  CB        32.6950    8.5230   39.9200 C.3   367  PRO367      0.0310
     24  CG        32.0060    7.9440   38.6210 C.3   367  PRO367      0.0237
     25  CD        30.7150    7.3420   39.2450 C.3   367  PRO367      0.0939
     26  N         31.3540    8.6000   42.8490 N.am  368  GLY368     -0.1941
     27  CA        31.2970    9.1300   44.2180 C.3   368  GLY368      0.2014
     28  C         31.5190    8.0580   45.2710 C.2   368  GLY368      0.2638
     29  O         32.2320    8.2470   46.2880 O.2   368  GLY368     -0.2714
     30  N         30.9110    6.9120   45.0400 N.am  369  GLU369     -0.1977
     31  CA        31.0950    5.7850   45.9500 C.3   369  GLU369      0.1602
     32  C         32.5040    5.1900   45.8120 C.2   369  GLU369      0.2287
     33  O         33.1070    4.7870   46.7930 O.2   369  GLU369     -0.2864
     34  CB        30.0330    4.7060   45.6470 C.3   369  GLU369      0.0415
     35  CG        28.6160    5.1270   46.0960 C.3   369  GLU369      0.1163
     36  CD        27.4790    4.3450   45.4360 C.2   369  GLU369      0.3649
     37  OE1       27.7010    3.7230   44.3910 O.co2 369  GLU369     -0.2457
     38  OE2       26.3390    4.3870   45.9500 O.co2 369  GLU369     -0.2457
     39  N         34.9410    7.6040   47.6950 N.3   372  ARG372     -0.1245
     40  CA        34.8310    7.3630   49.1560 C.3   372  ARG372      0.1563
     41  C         35.4600    6.0100   49.5180 C.2   372  ARG372      0.2260
     42  O         36.1950    5.9220   50.4660 O.2   372  ARG372     -0.2867
     43  CB        33.3610    7.4370   49.6520 C.3   372  ARG372      0.0307
     44  CG        32.9170    8.8700   50.0540 C.3   372  ARG372      0.0489
     45  CD        31.4190    9.0340   50.4970 C.3   372  ARG372      0.2205
     46  NE        30.5480    9.3860   49.3620 N.pl3 372  ARG372     -0.0865
     47  CZ        29.6760    8.5660   48.7580 C.cat 372  ARG372      0.5346
     48  NH1       29.5030    7.3310   49.1930 N.pl3 372  ARG372      0.1354
     49  NH2       28.9590    8.9820   47.7000 N.pl3 372  ARG372      0.1354
     50  N         36.6930   12.2520   43.3760 N.3   378  VAL378     -0.1245
     51  CA        35.8900   11.8230   42.2500 C.3   378  VAL378      0.1561
     52  C         36.6770   11.9790   40.9650 C.2   378  VAL378      0.2260
     53  O         36.6550   11.0780   40.1360 O.2   378  VAL378     -0.2867
     54  CB        34.6120   12.6420   42.1290 C.3   378  VAL378      0.0252
     55  CG1       33.9060   12.3800   40.7480 C.3   378  VAL378      0.0019
     56  CG2       33.6740   12.3310   43.2790 C.3   378  VAL378      0.0019
     57  N         37.3140    8.8840   38.3650 N.3   382  LYS382     -0.1245
     58  CA        36.4000    8.8390   37.2600 C.3   382  LYS382      0.1561
     59  C         37.1120    8.4100   35.9720 C.2   382  LYS382      0.2260
     60  O         38.0980    9.0010   35.5910 O.2   382  LYS382     -0.2867
     61  CB        35.7960   10.2110   36.9940 C.3   382  LYS382      0.0271
     62  CG        34.5160   10.0170   36.2240 C.3   382  LYS382      0.0035
     63  CD        33.7760   11.2850   35.9890 C.3   382  LYS382      0.0206
     64  CE        32.6410   10.9600   34.9990 C.3   382  LYS382      0.1093
     65  NZ        31.9440   12.1490   34.4650 N.3   382  LYS382     -0.1314
     66  N         30.4570    2.5940   37.4120 N.3   402  LYS402     -0.1231
     67  CA        29.3570    3.1300   36.6100 C.3   402  LYS402      0.1693
     68  C         29.6460    4.5780   36.1190 C.2   402  LYS402      0.2593
     69  O         30.2490    5.3630   36.8360 O.2   402  LYS402     -0.2718
     70  CB        28.0600    3.1010   37.4330 C.3   402  LYS402      0.0285
     71  CG        27.7010    1.6930   37.8720 C.3   402  LYS402      0.0035
     72  CD        26.3930    1.5190   38.5730 C.3   402  LYS402      0.0206
     73  CE        26.3260    2.1180   39.8750 C.3   402  LYS402      0.1093
     74  NZ        25.4310    1.3690   40.8150 N.3   402  LYS402     -0.1314
     75  N         29.2740    4.8750   34.8790 N.am  403  SER403     -0.1938
     76  CA        29.3200    6.2090   34.2960 C.3   403  SER403      0.2055
     77  C         28.8320    6.0380   32.8780 C.2   403  SER403      0.2642
     78  O         28.4810    4.9070   32.4430 O.2   403  SER403     -0.2714
     79  CB        30.7690    6.7570   34.2830 C.3   403  SER403      0.2130
     80  OG        31.1880    7.2420   35.5390 O.3   403  SER403     -0.2179
     81  N         28.8180    7.1400   32.1320 N.am  404  ALA404     -0.1977
     82  CA        28.2490    7.1290   30.8070 C.3   404  ALA404      0.1597
     83  C         28.9320    6.0370   30.0260 C.2   404  ALA404      0.2287
     84  O         28.2760    5.2990   29.3190 O.2   404  ALA404     -0.2864
     85  CB        28.3620    8.4710   30.1350 C.3   404  ALA404      0.0319
@<TRIPOS>BOND
     1    84    83    2
     2    83    82    1
     3    85    82    1
     4    82    81    1
     5    81    77   am
     6    78    77    2
     7    77    76    1
     8    79    76    1
     9    79    80    1
    10    76    75    1
    11    65    64    1
    12    75    68   am
    13    64    63    1
    14    60    59    2
    15    59    58    1
    16    63    62    1
    17    68    67    1
    18    68    69    2
    19    62    61    1
    20    67    66    1
    21    67    70    1
    22    61    58    1
    23    58    57    1
    24    70    71    1
    25    71    72    1
    26    72    73    1
    27    24    25    1
    28    24    23    1
    29    25    19    1
    30    73    74    1
    31    23    20    1
    32    53    52    2
    33    19    20    1
    34    19    11   am
    35    13    10    1
    36    13    14    1
    37    55    54    1
    38    10    11    1
    39    10     9    1
    40    52    51    1
    41    20    21    1
    42    11    12    2
    43    14    16   ar
    44    14    15   ar
    45    54    51    1
    46    54    56    1
    47    51    50    1
    48    21    26   am
    49    21    22    2
    50    16    18   ar
    51    15    17   ar
    52    26    27    1
    53    17    18   ar
    54    27    28    1
    55    37    36   ar
    56    30    28   am
    57    30    31    1
    58    28    29    2
    59    36    38   ar
    60    36    35    1
    61    34    31    1
    62    34    35    1
    63    32    31    1
    64    32    33    2
    65    39    40    1
    66    49    47    1
    67    47    48    1
    68    47    46    2
    69    40    41    1
    70    40    43    1
    71    46    45    1
    72    41    42    2
    73    43    44    1
    74     7     6    2
    75    44    45    1
    76     8     6   am
    77     6     5    1
    78     1     2    1
    79     2     5    1
    80     2     3    1
    81     3     4    2
