@<TRIPOS>MOLECULE
tmp/3rsjC00.pdb
 112 111 0 0 0
SMALL
GASTEIGER

@<TRIPOS>ATOM
      1  N          0.7220   32.6220   61.4020 N.3   243  LEU243     -0.1231
      2  CA        -0.7330   32.4590   61.4530 C.3   243  LEU243      0.1693
      3  C         -1.1720   31.6290   60.2400 C.2   243  LEU243      0.2591
      4  O         -1.9500   30.6760   60.3710 O.2   243  LEU243     -0.2718
      5  CB        -1.4460   33.8150   61.4090 C.3   243  LEU243      0.0284
      6  CG        -2.5990   34.0800   62.3840 C.3   243  LEU243      0.0019
      7  CD1       -3.5700   35.0720   61.7430 C.3   243  LEU243      0.0001
      8  CD2       -3.3260   32.7840   62.7350 C.3   243  LEU243      0.0001
      9  N         -0.6780   32.0000   59.0600 N.am  244  ARG244     -0.1980
     10  CA        -1.0100   31.2810   57.8310 C.3   244  ARG244      0.1597
     11  C          0.2030   30.5170   57.3060 C.2   244  ARG244      0.2287
     12  O          0.7470   30.8360   56.2470 O.2   244  ARG244     -0.2864
     13  CB        -1.5240   32.2500   56.7580 C.3   244  ARG244      0.0334
     14  CG        -2.9630   32.7090   56.9750 C.3   244  ARG244      0.0492
     15  CD        -3.4230   33.6740   55.8950 C.3   244  ARG244      0.2205
     16  NE        -4.7000   34.2820   56.2530 N.pl3 244  ARG244     -0.0865
     17  CZ        -5.2370   35.3270   55.6300 C.cat 244  ARG244      0.5346
     18  NH1       -4.6100   35.8880   54.6020 N.pl3 244  ARG244      0.1354
     19  NH2       -6.3910   35.8290   56.0580 N.pl3 244  ARG244      0.1354
     20  N         -5.1930   54.9430   56.5750 N.3   320  LYS320     -0.1231
     21  CA        -5.7370   53.7590   57.2300 C.3   320  LYS320      0.1678
     22  C         -4.6830   53.1250   58.1450 C.2   320  LYS320      0.2434
     23  O         -3.4840   53.2880   57.9210 O.2   320  LYS320     -0.2733
     24  CB        -6.1870   52.7720   56.1490 C.3   320  LYS320      0.0284
     25  CG        -7.0240   51.6060   56.6330 C.3   320  LYS320      0.0035
     26  CD        -7.7550   50.9470   55.4680 C.3   320  LYS320      0.0206
     27  CE        -8.7420   51.9150   54.8280 C.3   320  LYS320      0.1093
     28  NZ        -9.4930   51.3020   53.6960 N.3   320  LYS320     -0.1314
     29  N         -5.1120   52.4100   59.2000 N.am  321  PRO321     -0.2718
     30  CA        -4.1300   51.7890   60.0960 C.3   321  PRO321      0.1535
     31  C         -3.2470   50.7200   59.4470 C.2   321  PRO321      0.2598
     32  O         -2.2300   50.3230   60.0170 O.2   321  PRO321     -0.2715
     33  CB        -4.9910   51.2430   61.2380 C.3   321  PRO321      0.0310
     34  CG        -6.3370   51.0610   60.6170 C.3   321  PRO321      0.0237
     35  CD        -6.4740   52.2720   59.7430 C.3   321  PRO321      0.0939
     36  N         -3.6290   50.2630   58.2560 N.am  322  GLU322     -0.1978
     37  CA        -2.8450   49.2600   57.5340 C.3   322  GLU322      0.1602
     38  C         -2.0910   49.9090   56.3840 C.2   322  GLU322      0.2287
     39  O         -2.6960   50.3370   55.4040 O.2   322  GLU322     -0.2864
     40  CB        -3.7380   48.1530   56.9600 C.3   322  GLU322      0.0415
     41  CG        -4.3760   47.2480   57.9930 C.3   322  GLU322      0.1163
     42  CD        -5.7200   47.7590   58.4710 C.2   322  GLU322      0.3649
     43  OE1       -6.2400   47.2000   59.4600 O.co2 322  GLU322     -0.2457
     44  OE2       -6.2560   48.7050   57.8520 O.co2 322  GLU322     -0.2457
     45  N         -0.4290   41.2280   57.7330 N.3   364  PHE364     -0.1227
     46  CA        -1.1850   41.1710   56.4910 C.3   364  PHE364      0.1736
     47  C         -2.6340   41.5200   56.7720 C.2   364  PHE364      0.2595
     48  O         -3.1350   41.2550   57.8590 O.2   364  PHE364     -0.2718
     49  CB        -1.0850   39.7660   55.8690 C.3   364  PHE364      0.0547
     50  CG        -1.7510   38.6820   56.6750 C.ar  364  PHE364     -0.0202
     51  CD1       -3.1320   38.4770   56.5930 C.ar  364  PHE364     -0.0042
     52  CD2       -1.0030   37.8590   57.5080 C.ar  364  PHE364     -0.0042
     53  CE1       -3.7560   37.4690   57.3310 C.ar  364  PHE364     -0.0003
     54  CE2       -1.6180   36.8470   58.2540 C.ar  364  PHE364     -0.0003
     55  CZ        -3.0010   36.6540   58.1630 C.ar  364  PHE364     -0.0000
     56  N         -3.3130   42.1220   55.8070 N.am  365  HIS365     -0.1975
     57  CA        -4.7020   42.4710   56.0290 C.3   365  HIS365      0.1656
     58  C         -5.6160   41.6130   55.1800 C.2   365  HIS365      0.2291
     59  O         -6.3040   40.7240   55.6980 O.2   365  HIS365     -0.2864
     60  CB        -4.9590   43.9420   55.7360 C.3   365  HIS365      0.0771
     61  CG        -6.3820   44.3420   55.9580 C.ar  365  HIS365      0.0820
     62  ND1       -7.0970   43.9690   57.0740 N.ar  365  HIS365     -0.2267
     63  CD2       -7.2080   45.1250   55.2250 C.ar  365  HIS365      0.1154
     64  CE1       -8.3010   44.5100   57.0230 C.ar  365  HIS365      0.1986
     65  NE2       -8.3940   45.2170   55.9110 N.ar  365  HIS365     -0.2212
     66  N          0.8240   47.2630   60.2520 N.3   372  SER372     -0.1217
     67  CA        -0.3720   47.7220   60.9550 C.3   372  SER372      0.1889
     68  C         -0.2480   47.9540   62.4550 C.2   372  SER372      0.2288
     69  O          0.4050   47.1920   63.1680 O.2   372  SER372     -0.2866
     70  CB        -1.5260   46.7490   60.7010 C.3   372  SER372      0.2089
     71  OG        -2.7040   47.1930   61.3450 O.3   372  SER372     -0.2183
     72  N         -2.7990   47.8680   64.3150 N.3   374  TRP374     -0.1227
     73  CA        -3.8680   47.0550   64.8860 C.3   374  TRP374      0.1737
     74  C         -3.2800   46.0160   65.8350 C.2   374  TRP374      0.2595
     75  O         -3.8350   45.7480   66.9010 O.2   374  TRP374     -0.2718
     76  CB        -4.6390   46.3430   63.7720 C.3   374  TRP374      0.0564
     77  CG        -5.8230   45.5290   64.2450 C.ar  374  TRP374      0.0003
     78  CD1       -7.0790   45.9910   64.5290 C.ar  374  TRP374      0.0946
     79  CD2       -5.8650   44.1090   64.4430 C.ar  374  TRP374      0.0152
     80  NE1       -7.9020   44.9470   64.8820 N.ar  374  TRP374     -0.2442
     81  CE2       -7.1830   43.7810   64.8360 C.ar  374  TRP374      0.0810
     82  CE3       -4.9190   43.0820   64.3230 C.ar  374  TRP374      0.0012
     83  CZ2       -7.5790   42.4670   65.1130 C.ar  374  TRP374      0.0191
     84  CZ3       -5.3120   41.7760   64.5970 C.ar  374  TRP374      0.0001
     85  CH2       -6.6350   41.4810   64.9870 C.ar  374  TRP374      0.0015
     86  N         -2.1500   45.4340   65.4380 N.am  375  TYR375     -0.1976
     87  CA        -1.4810   44.4120   66.2360 C.3   375  TYR375      0.1639
     88  C         -1.0450   44.8340   67.6400 C.2   375  TYR375      0.2290
     89  O         -1.0400   44.0100   68.5490 O.2   375  TYR375     -0.2864
     90  CB        -0.2540   43.8690   65.4870 C.3   375  TYR375      0.0560
     91  CG        -0.5780   43.1880   64.1700 C.ar  375  TYR375     -0.0198
     92  CD1       -0.2270   43.7740   62.9590 C.ar  375  TYR375     -0.0009
     93  CD2       -1.2530   41.9650   64.1470 C.ar  375  TYR375     -0.0009
     94  CE1       -0.5450   43.1540   61.7400 C.ar  375  TYR375      0.0417
     95  CE2       -1.5750   41.3380   62.9420 C.ar  375  TYR375      0.0417
     96  CZ        -1.2200   41.9350   61.7440 C.ar  375  TYR375      0.1957
     97  OH        -1.5480   41.3290   60.5510 O.3   375  TYR375     -0.2866
     98  N         -2.7090   37.8080   70.4860 N.3   380  ARG380     -0.1245
     99  CA        -3.1190   36.6660   71.2890 C.3   380  ARG380      0.1563
    100  C         -1.9300   36.1550   72.0910 C.2   380  ARG380      0.2260
    101  O         -0.8770   35.8500   71.5340 O.2   380  ARG380     -0.2867
    102  CB        -3.6730   35.5790   70.3760 C.3   380  ARG380      0.0307
    103  CG        -4.8860   36.0530   69.5940 C.3   380  ARG380      0.0489
    104  CD        -4.8140   35.6370   68.1400 C.3   380  ARG380      0.2205
    105  NE        -5.7700   36.3800   67.3220 N.pl3 380  ARG380     -0.0865
    106  CZ        -5.7850   36.3760   65.9920 C.cat 380  ARG380      0.5346
    107  NH1       -4.8910   35.6630   65.3130 N.pl3 380  ARG380      0.1354
    108  NH2       -6.6910   37.0940   65.3360 N.pl3 380  ARG380      0.1354
    109  N         -0.8970   37.0600   63.2150 N.3   387  GLY387     -0.1225
    110  CA        -0.5800   37.5220   61.8810 C.3   387  GLY387      0.1811
    111  C          0.6960   38.3290   61.8060 C.2   387  GLY387      0.2280
    112  O          1.2530   38.5090   60.7230 O.2   387  GLY387     -0.2866
@<TRIPOS>BOND
     1    28    27    1
     2    18    17    1
     3    27    26    1
     4    58    59    2
     5    58    57    1
     6    63    65   ar
     7    63    61   ar
     8    39    38    2
     9    26    25    1
    10    17    19    1
    11    17    16    2
    12    60    61    1
    13    60    57    1
    14    56    57    1
    15    56    47   am
    16    49    46    1
    17    49    50    1
    18    15    16    1
    19    15    14    1
    20    65    64   ar
    21    61    62   ar
    22    24    25    1
    23    24    21    1
    24    12    11    2
    25    38    37    1
    26    46    47    1
    27    46    45    1
    28    20    21    1
    29    51    50   ar
    30    51    53   ar
    31    50    52   ar
    32    13    14    1
    33    13    10    1
    34    47    48    2
    35    40    37    1
    36    40    41    1
    37    64    62   ar
    38    21    22    1
    39    11    10    1
    40    53    55   ar
    41    52    54   ar
    42    37    36    1
    43    10     9    1
    44    44    42   ar
    45    23    22    2
    46    41    42    1
    47    22    29   am
    48    55    54   ar
    49    36    31   am
    50    42    43   ar
    51     9     3   am
    52    29    35    1
    53    29    30    1
    54    31    32    2
    55    31    30    1
    56    35    34    1
    57    30    33    1
    58     3     4    2
    59     3     2    1
    60    66    67    1
    61    97    96    1
    62    34    33    1
    63    70    67    1
    64    70    71    1
    65   112   111    2
    66    67    68    1
    67     1     2    1
    68     5     2    1
    69     5     6    1
    70    94    96   ar
    71    94    92   ar
    72     7     6    1
    73    96    95   ar
    74   111   110    1
    75   110   109    1
    76     6     8    1
    77    68    69    2
    78    95    93   ar
    79    92    91   ar
    80    76    77    1
    81    76    73    1
    82    93    91   ar
    83    91    90    1
    84    77    79   ar
    85    77    78   ar
    86    72    73    1
    87    82    79   ar
    88    82    84   ar
    89    79    81   ar
    90    78    80   ar
    91    84    85   ar
    92    81    80   ar
    93    81    83   ar
    94    73    74    1
    95    85    83   ar
    96   107   106    1
    97   108   106    1
    98    86    74   am
    99    86    87    1
   100    90    87    1
   101    74    75    2
   102   106   105    2
   103    87    88    1
   104   105   104    1
   105    88    89    2
   106   104   103    1
   107   103   102    1
   108   102    99    1
   109    98    99    1
   110    99   100    1
   111   101   100    2
