@<TRIPOS>MOLECULE
tmp/3rsjB00.pdb
 103 102 0 0 0
SMALL
GASTEIGER

@<TRIPOS>ATOM
      1  N         53.6630   30.6980   -5.1360 N.3   243  LEU243     -0.1231
      2  CA        55.1110   30.5570   -5.1770 C.3   243  LEU243      0.1693
      3  C         55.5300   29.7410   -3.9470 C.2   243  LEU243      0.2591
      4  O         56.2860   28.7740   -4.0660 O.2   243  LEU243     -0.2718
      5  CB        55.8000   31.9250   -5.1710 C.3   243  LEU243      0.0284
      6  CG        57.1260   32.0280   -5.9360 C.3   243  LEU243      0.0019
      7  CD1       57.8210   33.3180   -5.5360 C.3   243  LEU243      0.0001
      8  CD2       58.0200   30.8360   -5.6490 C.3   243  LEU243      0.0001
      9  N         55.0290   30.1240   -2.7720 N.am  244  ARG244     -0.1980
     10  CA        55.3430   29.4140   -1.5270 C.3   244  ARG244      0.1597
     11  C         54.1450   28.6410   -0.9980 C.2   244  ARG244      0.2287
     12  O         53.5160   29.0460   -0.0140 O.2   244  ARG244     -0.2864
     13  CB        55.8170   30.3900   -0.4540 C.3   244  ARG244      0.0334
     14  CG        57.2510   30.8010   -0.6440 C.3   244  ARG244      0.0492
     15  CD        57.7270   31.7530    0.4210 C.3   244  ARG244      0.2205
     16  NE        59.0050   32.3110    0.0070 N.pl3 244  ARG244     -0.0865
     17  CZ        59.6250   33.3130    0.6120 C.cat 244  ARG244      0.5346
     18  NH1       59.0830   33.8820    1.6870 N.pl3 244  ARG244      0.1354
     19  NH2       60.7750   33.7530    0.1160 N.pl3 244  ARG244      0.1354
     20  N         59.2070   50.2440   -3.4570 N.3   321  PRO321     -0.2102
     21  CA        58.2310   49.4790   -4.2370 C.3   321  PRO321      0.1504
     22  C         57.3860   48.5250   -3.3930 C.2   321  PRO321      0.2575
     23  O         56.2960   48.1360   -3.8050 O.2   321  PRO321     -0.2718
     24  CB        59.0990   48.7520   -5.2690 C.3   321  PRO321      0.0282
     25  CG        60.4580   48.7330   -4.6440 C.3   321  PRO321      0.0208
     26  CD        60.5610   50.0800   -4.0040 C.3   321  PRO321      0.0893
     27  N         57.8770   48.1480   -2.2160 N.am  322  GLU322     -0.1980
     28  CA        57.1160   47.2480   -1.3510 C.3   322  GLU322      0.1602
     29  C         56.4210   47.9880   -0.2160 C.2   322  GLU322      0.2287
     30  O         57.0770   48.4900    0.6970 O.2   322  GLU322     -0.2864
     31  CB        58.0130   46.1600   -0.7450 C.3   322  GLU322      0.0415
     32  CG        58.6510   45.2360   -1.7530 C.3   322  GLU322      0.1163
     33  CD        59.9790   45.7600   -2.2500 C.2   322  GLU322      0.3649
     34  OE1       60.5320   45.1680   -3.2000 O.co2 322  GLU322     -0.2457
     35  OE2       60.4720   46.7590   -1.6800 O.co2 322  GLU322     -0.2457
     36  N         54.7540   39.3020   -1.4430 N.3   364  PHE364     -0.1227
     37  CA        55.4880   39.2210   -0.1900 C.3   364  PHE364      0.1736
     38  C         56.9330   39.5920   -0.4850 C.2   364  PHE364      0.2595
     39  O         57.4090   39.3780   -1.6000 O.2   364  PHE364     -0.2718
     40  CB        55.3870   37.8000    0.4100 C.3   364  PHE364      0.0547
     41  CG        56.0750   36.7160   -0.4020 C.ar  364  PHE364     -0.0202
     42  CD1       57.4640   36.5530   -0.3520 C.ar  364  PHE364     -0.0042
     43  CD2       55.3330   35.8420   -1.1860 C.ar  364  PHE364     -0.0042
     44  CE1       58.0990   35.5320   -1.0720 C.ar  364  PHE364     -0.0003
     45  CE2       55.9560   34.8160   -1.9100 C.ar  364  PHE364     -0.0003
     46  CZ        57.3430   34.6620   -1.8510 C.ar  364  PHE364     -0.0000
     47  N         57.6310   40.1770    0.4850 N.am  365  HIS365     -0.1975
     48  CA        59.0150   40.5380    0.2360 C.3   365  HIS365      0.1656
     49  C         59.9500   39.7040    1.0920 C.2   365  HIS365      0.2291
     50  O         60.6750   38.8480    0.5750 O.2   365  HIS365     -0.2864
     51  CB        59.2730   42.0200    0.4840 C.3   365  HIS365      0.0771
     52  CG        60.7080   42.3950    0.2940 C.ar  365  HIS365      0.0820
     53  ND1       61.4710   41.9290   -0.7540 N.ar  365  HIS365     -0.2267
     54  CD2       61.4950   43.2620    0.9760 C.ar  365  HIS365      0.1154
     55  CE1       62.6640   42.4970   -0.7110 C.ar  365  HIS365      0.1986
     56  NE2       62.7030   43.3100    0.3270 N.ar  365  HIS365     -0.2212
     57  N         53.4690   45.3950   -4.0710 N.3   372  SER372     -0.1217
     58  CA        54.6940   45.8670   -4.7080 C.3   372  SER372      0.1889
     59  C         54.6070   46.1190   -6.2030 C.2   372  SER372      0.2288
     60  O         54.0240   45.3310   -6.9440 O.2   372  SER372     -0.2866
     61  CB        55.8330   44.8800   -4.4350 C.3   372  SER372      0.2089
     62  OG        57.0360   45.2930   -5.0640 O.3   372  SER372     -0.2183
     63  N         57.1230   46.0810   -8.0550 N.3   374  TRP374     -0.1227
     64  CA        58.1670   45.2340   -8.6350 C.3   374  TRP374      0.1737
     65  C         57.6030   44.1300   -9.5260 C.2   374  TRP374      0.2595
     66  O         58.2010   43.7850  -10.5440 O.2   374  TRP374     -0.2718
     67  CB        58.9860   44.5820   -7.5190 C.3   374  TRP374      0.0564
     68  CG        60.1030   43.6750   -7.9990 C.ar  374  TRP374      0.0003
     69  CD1       61.3690   44.0510   -8.3560 C.ar  374  TRP374      0.0946
     70  CD2       60.0640   42.2430   -8.1230 C.ar  374  TRP374      0.0152
     71  NE1       62.1180   42.9470   -8.6840 N.ar  374  TRP374     -0.2442
     72  CE2       61.3440   41.8250   -8.5520 C.ar  374  TRP374      0.0810
     73  CE3       59.0710   41.2730   -7.9140 C.ar  374  TRP374      0.0012
     74  CZ2       61.6600   40.4800   -8.7740 C.ar  374  TRP374      0.0191
     75  CZ3       59.3870   39.9310   -8.1340 C.ar  374  TRP374      0.0001
     76  CH2       60.6720   39.5510   -8.5590 C.ar  374  TRP374      0.0015
     77  N         56.4600   43.5680   -9.1370 N.am  375  TYR375     -0.1976
     78  CA        55.8410   42.4800   -9.8960 C.3   375  TYR375      0.1639
     79  C         55.4180   42.8190  -11.3210 C.2   375  TYR375      0.2290
     80  O         55.5150   41.9650  -12.2100 O.2   375  TYR375     -0.2864
     81  CB        54.6300   41.9090   -9.1370 C.3   375  TYR375      0.0560
     82  CG        54.9910   41.2140   -7.8430 C.ar  375  TYR375     -0.0198
     83  CD1       54.7330   41.8100   -6.6090 C.ar  375  TYR375     -0.0009
     84  CD2       55.6070   39.9660   -7.8530 C.ar  375  TYR375     -0.0009
     85  CE1       55.0810   41.1730   -5.4140 C.ar  375  TYR375      0.0417
     86  CE2       55.9570   39.3220   -6.6720 C.ar  375  TYR375      0.0417
     87  CZ        55.6920   39.9300   -5.4540 C.ar  375  TYR375      0.1957
     88  OH        56.0290   39.2900   -4.2840 O.3   375  TYR375     -0.2866
     89  N         57.0670   35.7630  -14.1150 N.3   380  ARG380     -0.1245
     90  CA        57.5710   34.6710  -14.9390 C.3   380  ARG380      0.1563
     91  C         56.5040   34.2380  -15.9370 C.2   380  ARG380      0.2260
     92  O         55.4230   33.7720  -15.5640 O.2   380  ARG380     -0.2867
     93  CB        58.0000   33.4950  -14.0640 C.3   380  ARG380      0.0307
     94  CG        59.1130   33.8500  -13.0910 C.3   380  ARG380      0.0489
     95  CD        59.4700   32.6750  -12.1950 C.3   380  ARG380      0.2205
     96  NE        60.3070   33.0930  -11.0720 N.pl3 380  ARG380     -0.0865
     97  CZ        59.8730   33.7920  -10.0240 C.cat 380  ARG380      0.5346
     98  NH1       58.5970   34.1550   -9.9420 N.pl3 380  ARG380      0.1354
     99  NH2       60.7210   34.1420   -9.0620 N.pl3 380  ARG380      0.1354
    100  N         55.2680   35.0240   -6.9690 N.3   387  GLY387     -0.1225
    101  CA        54.8920   35.4650   -5.6390 C.3   387  GLY387      0.1811
    102  C         53.6280   36.3000   -5.5810 C.2   387  GLY387      0.2280
    103  O         53.0550   36.4870   -4.5090 O.2   387  GLY387     -0.2866
@<TRIPOS>BOND
     1    91    92    2
     2    91    90    1
     3    90    89    1
     4    90    93    1
     5    93    94    1
     6    94    95    1
     7    80    79    2
     8    95    96    1
     9    79    78    1
    10    96    97    2
    11    66    65    2
    12    97    98    1
    13    97    99    1
    14    78    81    1
    15    78    77    1
    16    65    77   am
    17    65    64    1
    18    81    82    1
    19    74    76   ar
    20    74    72   ar
    21    71    72   ar
    22    71    69   ar
    23    64    63    1
    24    64    67    1
    25    76    75   ar
    26    72    70   ar
    27    69    68   ar
    28    75    73   ar
    29    70    68   ar
    30    70    73   ar
    31    68    67    1
    32    84    82   ar
    33    84    86   ar
    34    82    83   ar
    35   100   101    1
    36    60    59    2
    37    86    87   ar
    38    83    85   ar
    39    59    58    1
    40     6     8    1
    41     6     7    1
    42     6     5    1
    43   101   102    1
    44   102   103    2
    45    87    85   ar
    46    87    88    1
    47    24    25    1
    48    24    21    1
    49     2     5    1
    50     2     1    1
    51     2     3    1
    52    62    61    1
    53    58    61    1
    54    58    57    1
    55    25    26    1
    56    21    20    1
    57    21    22    1
    58     4     3    2
    59    26    20    1
    60     3     9   am
    61    23    22    2
    62    22    27   am
    63    34    33   ar
    64     9    10    1
    65    33    32    1
    66    33    35   ar
    67    27    28    1
    68    45    46   ar
    69    45    43   ar
    70    46    44   ar
    71    32    31    1
    72    39    38    2
    73    10    11    1
    74    10    13    1
    75    36    37    1
    76    28    31    1
    77    28    29    1
    78    43    41   ar
    79    44    42   ar
    80    11    12    2
    81    53    55   ar
    82    53    52   ar
    83    55    56   ar
    84    14    13    1
    85    14    15    1
    86    38    37    1
    87    38    47   am
    88    41    42   ar
    89    41    40    1
    90    29    30    2
    91    37    40    1
    92    16    15    1
    93    16    17    2
    94    19    17    1
    95    48    51    1
    96    48    47    1
    97    48    49    1
    98    52    51    1
    99    52    54   ar
   100    56    54   ar
   101    50    49    2
   102    17    18    1
