@<TRIPOS>MOLECULE
tmp/3rsjA00.pdb
 103 102 0 0 0
SMALL
GASTEIGER

@<TRIPOS>ATOM
      1  N         18.3520   -1.9850   21.6470 N.3   245  LEU245     -0.1231
      2  CA        18.5240   -2.5380   22.9900 C.3   245  LEU245      0.1693
      3  C         20.0320   -2.5800   23.2640 C.2   245  LEU245      0.2591
      4  O         20.5170   -2.0020   24.2410 O.2   245  LEU245     -0.2718
      5  CB        17.9190   -3.9440   23.0980 C.3   245  LEU245      0.0284
      6  CG        17.4760   -4.3550   24.5150 C.3   245  LEU245      0.0019
      7  CD1       16.9840   -5.7890   24.5090 C.3   245  LEU245      0.0001
      8  CD2       18.6220   -4.2090   25.4910 C.3   245  LEU245      0.0001
      9  N         20.7780   -3.2530   22.3910 N.am  246  ARG246     -0.1980
     10  CA        22.2340   -3.3370   22.5290 C.3   246  ARG246      0.1597
     11  C         22.9060   -2.3230   21.5970 C.2   246  ARG246      0.2287
     12  O         23.5450   -2.7000   20.6050 O.2   246  ARG246     -0.2864
     13  CB        22.7250   -4.7450   22.1860 C.3   246  ARG246      0.0334
     14  CG        22.4240   -5.7950   23.2410 C.3   246  ARG246      0.0492
     15  CD        23.0680   -7.1080   22.8480 C.3   246  ARG246      0.2205
     16  NE        22.9100   -8.1600   23.8500 N.pl3 246  ARG246     -0.0865
     17  CZ        23.3730   -9.3970   23.6880 C.cat 246  ARG246      0.5346
     18  NH1       24.0150   -9.7200   22.5700 N.pl3 246  ARG246      0.1354
     19  NH2       23.1960  -10.3100   24.6320 N.pl3 246  ARG246      0.1354
     20  N         11.6330  -21.0340   18.9420 N.3   324  PRO324     -0.2102
     21  CA        11.0450  -19.7520   18.5410 C.3   324  PRO324      0.1504
     22  C         12.0700  -18.7690   17.9760 C.2   324  PRO324      0.2575
     23  O         11.7100  -17.8240   17.2700 O.2   324  PRO324     -0.2718
     24  CB        10.3780  -19.2560   19.8260 C.3   324  PRO324      0.0282
     25  CG        11.1730  -19.8960   20.8990 C.3   324  PRO324      0.0208
     26  CD        11.4150  -21.2840   20.3760 C.3   324  PRO324      0.0893
     27  N         13.3440  -18.9930   18.2870 N.am  325  GLU325     -0.1980
     28  CA        14.3990  -18.1350   17.7700 C.3   325  GLU325      0.1602
     29  C         15.0330  -18.8080   16.5650 C.2   325  GLU325      0.2287
     30  O         15.8110  -19.7530   16.6980 O.2   325  GLU325     -0.2864
     31  CB        15.4730  -17.8650   18.8230 C.3   325  GLU325      0.0415
     32  CG        15.0010  -17.0340   19.9910 C.3   325  GLU325      0.1163
     33  CD        14.2550  -17.8530   21.0160 C.2   325  GLU325      0.3649
     34  OE1       13.7730  -17.2620   22.0030 O.co2 325  GLU325     -0.2457
     35  OE2       14.1560  -19.0860   20.8400 O.co2 325  GLU325     -0.2457
     36  N         17.5370  -10.6060   18.3340 N.3   368  PHE368     -0.1227
     37  CA        18.7260  -11.3920   18.6110 C.3   368  PHE368      0.1736
     38  C         18.4260  -12.2710   19.8220 C.2   368  PHE368      0.2595
     39  O         17.4780  -12.0070   20.5620 O.2   368  PHE368     -0.2718
     40  CB        19.9330  -10.4700   18.8680 C.3   368  PHE368      0.0547
     41  CG        19.8360   -9.6540   20.1340 C.ar  368  PHE368     -0.0202
     42  CD1       20.2350  -10.1870   21.3550 C.ar  368  PHE368     -0.0042
     43  CD2       19.3640   -8.3460   20.0990 C.ar  368  PHE368     -0.0042
     44  CE1       20.1700   -9.4290   22.5280 C.ar  368  PHE368     -0.0003
     45  CE2       19.2950   -7.5770   21.2670 C.ar  368  PHE368     -0.0003
     46  CZ        19.7000   -8.1210   22.4820 C.ar  368  PHE368     -0.0000
     47  N         19.1980  -13.3320   20.0090 N.am  369  HIS369     -0.1975
     48  CA        18.9600  -14.2090   21.1450 C.3   369  HIS369      0.1656
     49  C         20.2150  -14.4000   21.9700 C.2   369  HIS369      0.2291
     50  O         20.3250  -13.8560   23.0720 O.2   369  HIS369     -0.2864
     51  CB        18.4150  -15.5670   20.6950 C.3   369  HIS369      0.0771
     52  CG        18.1710  -16.5130   21.8310 C.ar  369  HIS369      0.0820
     53  ND1       17.2960  -16.2370   22.8580 N.ar  369  HIS369     -0.2267
     54  CD2       18.6420  -17.7610   22.0650 C.ar  369  HIS369      0.1154
     55  CE1       17.2360  -17.2730   23.6750 C.ar  369  HIS369      0.1986
     56  NE2       18.0420  -18.2120   23.2160 N.ar  369  HIS369     -0.2212
     57  N         12.2440  -13.9000   15.9600 N.3   376  SER376     -0.1217
     58  CA        11.5610  -14.5980   17.0320 C.3   376  SER376      0.1889
     59  C         10.1350  -14.1480   17.2830 C.2   376  SER376      0.2288
     60  O          9.8400  -12.9530   17.2950 O.2   376  SER376     -0.2866
     61  CB        12.3610  -14.4740   18.3220 C.3   376  SER376      0.2089
     62  OG        11.7370  -15.2250   19.3440 O.3   376  SER376     -0.2183
     63  N          8.7890  -14.5440   19.9700 N.3   378  TRP378     -0.1227
     64  CA         8.7640  -14.1840   21.3840 C.3   378  TRP378      0.1737
     65  C          8.4240  -12.7080   21.5750 C.2   378  TRP378      0.2595
     66  O          7.7670  -12.3390   22.5430 O.2   378  TRP378     -0.2718
     67  CB        10.1240  -14.4690   22.0310 C.3   378  TRP378      0.0564
     68  CG        10.2070  -14.0700   23.4870 C.ar  378  TRP378      0.0003
     69  CD1        9.7900  -14.8010   24.5680 C.ar  378  TRP378      0.0946
     70  CD2       10.7290  -12.8410   24.0140 C.ar  378  TRP378      0.0152
     71  NE1       10.0240  -14.1050   25.7310 N.ar  378  TRP378     -0.2442
     72  CE2       10.5990  -12.9000   25.4220 C.ar  378  TRP378      0.0810
     73  CE3       11.2940  -11.6960   23.4340 C.ar  378  TRP378      0.0012
     74  CZ2       11.0140  -11.8580   26.2600 C.ar  378  TRP378      0.0191
     75  CZ3       11.7070  -10.6560   24.2670 C.ar  378  TRP378      0.0001
     76  CH2       11.5650  -10.7460   25.6670 C.ar  378  TRP378      0.0015
     77  N          8.8690  -11.8700   20.6410 N.am  379  TYR379     -0.1976
     78  CA         8.6440  -10.4320   20.7380 C.3   379  TYR379      0.1639
     79  C          7.1930   -9.9850   20.6770 C.2   379  TYR379      0.2290
     80  O          6.8270   -8.9720   21.2730 O.2   379  TYR379     -0.2864
     81  CB         9.4470   -9.6890   19.6590 C.3   379  TYR379      0.0560
     82  CG        10.9430   -9.8040   19.8340 C.ar  379  TYR379     -0.0198
     83  CD1       11.7080  -10.5740   18.9640 C.ar  379  TYR379     -0.0009
     84  CD2       11.5900   -9.1520   20.8810 C.ar  379  TYR379     -0.0009
     85  CE1       13.0800  -10.6950   19.1280 C.ar  379  TYR379      0.0417
     86  CE2       12.9700   -9.2650   21.0610 C.ar  379  TYR379      0.0417
     87  CZ        13.7080  -10.0390   20.1800 C.ar  379  TYR379      0.1957
     88  OH        15.0690  -10.1680   20.3620 O.3   379  TYR379     -0.2866
     89  N          8.3420   -4.0340   25.5950 N.3   384  ARG384     -0.1245
     90  CA         8.1610   -3.0620   26.6730 C.3   384  ARG384      0.1563
     91  C          7.3880   -1.8900   26.0930 C.2   384  ARG384      0.2260
     92  O          7.7160   -1.3940   25.0180 O.2   384  ARG384     -0.2867
     93  CB         9.5040   -2.5750   27.2210 C.3   384  ARG384      0.0307
     94  CG        10.2970   -3.6020   28.0260 C.3   384  ARG384      0.0489
     95  CD        10.9290   -4.6490   27.1270 C.3   384  ARG384      0.2205
     96  NE        11.9510   -5.4370   27.8160 N.pl3 384  ARG384     -0.0865
     97  CZ        12.6780   -6.3850   27.2310 C.cat 384  ARG384      0.5346
     98  NH1       12.4950   -6.6630   25.9470 N.pl3 384  ARG384      0.1354
     99  NH2       13.5890   -7.0540   27.9230 N.pl3 384  ARG384      0.1354
    100  N         14.8500   -5.4620   22.0730 N.3   391  GLY391     -0.1225
    101  CA        15.7350   -6.1610   21.1600 C.3   391  GLY391      0.1811
    102  C         15.2680   -6.2140   19.7170 C.2   391  GLY391      0.2280
    103  O         16.0760   -6.4300   18.8170 O.2   391  GLY391     -0.2866
@<TRIPOS>BOND
     1    57    58    1
     2    29    30    2
     3    29    28    1
     4    58    59    1
     5    58    61    1
     6    23    22    2
     7    59    60    2
     8    28    27    1
     9    28    31    1
    10    22    27   am
    11    22    21    1
    12    61    62    1
    13    36    37    1
    14    21    20    1
    15    21    24    1
    16    37    40    1
    17    37    38    1
    18   103   102    2
    19    31    32    1
    20    40    41    1
    21    20    26    1
    22    83    85   ar
    23    83    82   ar
    24    85    87   ar
    25    81    82    1
    26    81    78    1
    27   102   101    1
    28    38    47   am
    29    38    39    2
    30    24    25    1
    31    82    84   ar
    32    63    64    1
    33    32    33    1
    34    47    48    1
    35    43    41   ar
    36    43    45   ar
    37    41    42   ar
    38    87    88    1
    39    87    86   ar
    40    26    25    1
    41    12    11    2
    42    77    78    1
    43    77    65   am
    44    79    78    1
    45    79    80    2
    46    51    48    1
    47    51    52    1
    48    35    33   ar
    49    84    86   ar
    50    33    34   ar
    51    48    49    1
    52   101   100    1
    53    45    46   ar
    54    42    44   ar
    55    64    65    1
    56    64    67    1
    57    65    66    2
    58    11    10    1
    59     1     2    1
    60    52    54   ar
    61    52    53   ar
    62    49    50    2
    63    67    68    1
    64    54    56   ar
    65    13    10    1
    66    13    14    1
    67     9    10    1
    68     9     3   am
    69    46    44   ar
    70    18    17    1
    71    15    14    1
    72    15    16    1
    73    53    55   ar
    74     2     5    1
    75     2     3    1
    76     5     6    1
    77    56    55   ar
    78     3     4    2
    79    73    70   ar
    80    73    75   ar
    81    68    70   ar
    82    68    69   ar
    83    17    16    2
    84    17    19    1
    85    70    72   ar
    86    75    76   ar
    87     7     6    1
    88     6     8    1
    89    69    71   ar
    90    92    91    2
    91    72    71   ar
    92    72    74   ar
    93    89    90    1
    94    76    74   ar
    95    98    97    1
    96    91    90    1
    97    90    93    1
    98    95    96    1
    99    95    94    1
   100    93    94    1
   101    97    96    2
   102    97    99    1
