@<TRIPOS>MOLECULE
tmp/3rsrA00.pdb
 100 95 0 0 0
SMALL
GASTEIGER

@<TRIPOS>ATOM
      1  N         -3.0950   45.3920   26.1620 N.3   138  ASP138     -0.1225
      2  CA        -3.8240   45.3560   24.8980 C.3   138  ASP138      0.1805
      3  C         -5.1340   46.1300   25.1330 C.2   138  ASP138      0.2598
      4  O         -6.2190   45.5720   25.2630 O.2   138  ASP138     -0.2718
      5  CB        -4.1250   43.8670   24.6240 C.3   138  ASP138      0.1424
      6  CG        -5.0350   43.6360   23.4300 C.2   138  ASP138      0.3668
      7  OD1       -4.8940   44.3300   22.4020 O.co2 138  ASP138     -0.2456
      8  OD2       -5.8950   42.7320   23.5270 O.co2 138  ASP138     -0.2456
      9  N         -5.0110   47.4470   25.0200 N.am  139  SER139     -0.1938
     10  CA        -6.0920   48.3850   25.2700 C.3   139  SER139      0.2055
     11  C         -5.6090   49.6890   24.6770 C.2   139  SER139      0.2643
     12  O         -4.4010   49.9030   24.5360 O.2   139  SER139     -0.2714
     13  CB        -6.3500   48.5620   26.7680 C.3   139  SER139      0.2130
     14  OG        -5.2830   49.2630   27.4020 O.3   139  SER139     -0.2179
     15  N         -6.5390   50.5760   24.3710 N.am  140  ILE140     -0.1963
     16  CA        -6.1980   51.9150   23.9050 C.3   140  ILE140      0.1727
     17  C         -5.3020   52.6380   24.9210 C.2   140  ILE140      0.2616
     18  O         -4.3460   53.3290   24.5530 O.2   140  ILE140     -0.2715
     19  CB        -7.4810   52.7050   23.6120 C.3   140  ILE140      0.0290
     20  CG1       -8.1530   52.1190   22.3630 C.3   140  ILE140      0.0022
     21  CG2       -7.1900   54.1990   23.4460 C.3   140  ILE140      0.0023
     22  CD1       -7.2410   52.0970   21.1140 C.3   140  ILE140      0.0001
     23  N         -5.5960   52.4530   26.2010 N.am  141  GLU141     -0.1977
     24  CA        -4.8000   53.0780   27.2440 C.3   141  GLU141      0.1602
     25  C         -3.3450   52.5980   27.2760 C.2   141  GLU141      0.2287
     26  O         -2.4100   53.4010   27.4130 O.2   141  GLU141     -0.2864
     27  CB        -5.4470   52.8550   28.6060 C.3   141  GLU141      0.0415
     28  CG        -4.5760   53.3390   29.7500 C.3   141  GLU141      0.1163
     29  CD        -5.3760   54.0380   30.8370 C.2   141  GLU141      0.3649
     30  OE1       -6.6210   53.8680   30.8530 O.co2 141  GLU141     -0.2457
     31  OE2       -4.7610   54.7520   31.6690 O.co2 141  GLU141     -0.2457
     32  N         -1.7700   51.0640   24.8060 N.3   143  ILE143     -0.1245
     33  CA        -1.1780   51.4370   23.5400 C.3   143  ILE143      0.1561
     34  C         -0.6950   52.8880   23.5600 C.2   143  ILE143      0.2260
     35  O          0.4410   53.1700   23.1410 O.2   143  ILE143     -0.2867
     36  CB        -2.1590   51.2180   22.3910 C.3   143  ILE143      0.0252
     37  CG1       -2.3500   49.7180   22.1620 C.3   143  ILE143      0.0019
     38  CG2       -1.6720   51.9430   21.1210 C.3   143  ILE143      0.0019
     39  CD1       -3.5750   49.3760   21.3320 C.3   143  ILE143      0.0001
     40  N         -0.9650   42.2540   21.3960 N.3   167  ILE167     -0.1231
     41  CA        -2.0530   43.0440   20.8050 C.3   167  ILE167      0.1692
     42  C         -2.9660   42.1440   19.9690 C.2   167  ILE167      0.2591
     43  O         -2.4910   41.3730   19.1270 O.2   167  ILE167     -0.2718
     44  CB        -1.5210   44.1970   19.9350 C.3   167  ILE167      0.0266
     45  CG1       -0.6830   45.1740   20.7800 C.3   167  ILE167      0.0019
     46  CG2       -2.6720   44.9270   19.2230 C.3   167  ILE167      0.0020
     47  CD1       -1.4190   45.7620   21.9630 C.3   167  ILE167      0.0001
     48  N         -4.2720   42.2340   20.2100 N.am  168  ARG168     -0.1980
     49  CA        -5.2220   41.3130   19.5850 C.3   168  ARG168      0.1597
     50  C         -5.3110   41.5970   18.0900 C.2   168  ARG168      0.2287
     51  O         -5.1890   42.7490   17.6550 O.2   168  ARG168     -0.2864
     52  CB        -6.5860   41.3700   20.2720 C.3   168  ARG168      0.0334
     53  CG        -7.3780   42.6480   19.9880 C.3   168  ARG168      0.0492
     54  CD        -8.6220   42.7570   20.8560 C.3   168  ARG168      0.2205
     55  NE        -8.3060   43.0200   22.2560 N.pl3 168  ARG168     -0.0865
     56  CZ        -9.2260   43.1920   23.2060 C.cat 168  ARG168      0.5346
     57  NH1      -10.5120   43.1420   22.8870 N.pl3 168  ARG168      0.1354
     58  NH2       -8.8670   43.4270   24.4680 N.pl3 168  ARG168      0.1354
     59  N        -14.2040   43.1280   20.6000 N.3   174  ILE174     -0.1231
     60  CA       -13.9450   44.1590   21.5890 C.3   174  ILE174      0.1692
     61  C        -15.2130   44.3030   22.3930 C.2   174  ILE174      0.2592
     62  O        -16.2410   44.7110   21.8600 O.2   174  ILE174     -0.2718
     63  CB       -13.5980   45.4990   20.9170 C.3   174  ILE174      0.0266
     64  CG1      -12.3000   45.3610   20.1120 C.3   174  ILE174      0.0019
     65  CG2      -13.5100   46.6140   21.9560 C.3   174  ILE174      0.0020
     66  CD1      -12.1160   46.4430   19.0530 C.3   174  ILE174      0.0001
     67  N        -15.1490   43.9460   23.6680 N.am  175  ALA175     -0.1966
     68  CA       -16.3470   43.9340   24.5020 C.3   175  ALA175      0.1728
     69  C        -16.9760   45.3290   24.5610 C.2   175  ALA175      0.2617
     70  O        -18.1980   45.4770   24.5050 O.2   175  ALA175     -0.2715
     71  CB       -16.0200   43.4320   25.9000 C.3   175  ALA175      0.0334
     72  N        -16.1250   46.3460   24.6500 N.am  176  GLY176     -0.1940
     73  CA       -16.5610   47.7240   24.7980 C.3   176  GLY176      0.2014
     74  C        -17.5200   48.1820   23.7140 C.2   176  GLY176      0.2639
     75  O        -18.5710   48.7620   24.0040 O.2   176  GLY176     -0.2714
     76  N        -17.1510   47.9310   22.4610 N.am  177  THR177     -0.1950
     77  CA       -17.9210   48.3970   21.3100 C.3   177  THR177      0.1897
     78  C        -18.8340   47.3500   20.6670 C.2   177  THR177      0.2313
     79  O        -19.5440   47.6430   19.7070 O.2   177  THR177     -0.2863
     80  CB       -16.9620   48.9100   20.2310 C.3   177  THR177      0.1794
     81  OG1      -16.1270   47.8270   19.7890 O.3   177  THR177     -0.2208
     82  CG2      -16.0870   50.0310   20.7990 C.3   177  THR177      0.0378
     83  N        -11.6660   44.4220   16.2430 N.3   181  SER181     -0.1202
     84  CA       -10.4540   45.1980   16.0430 C.3   181  SER181      0.2020
     85  C         -9.8870   45.0800   14.6330 C.2   181  SER181      0.2619
     86  O        -10.0640   44.0710   13.9470 O.2   181  SER181     -0.2717
     87  CB        -9.3900   44.8170   17.0600 C.3   181  SER181      0.2103
     88  OG        -8.1770   45.4720   16.7380 O.3   181  SER181     -0.2182
     89  N         -9.2060   46.1300   14.2060 N.am  182  ASN182     -0.1960
     90  CA        -8.5130   46.1240   12.9240 C.3   182  ASN182      0.1819
     91  C         -7.0400   45.7100   13.0330 C.2   182  ASN182      0.2621
     92  O         -6.2730   45.8580   12.0800 O.2   182  ASN182     -0.2715
     93  CB        -8.7040   47.4450   12.1820 C.3   182  ASN182      0.1195
     94  CG       -10.1060   47.5780   11.5930 C.2   182  ASN182      0.2630
     95  OD1      -10.6300   46.6320   10.9860 O.2   182  ASN182     -0.2716
     96  ND2      -10.7250   48.7530   11.7780 N.am  182  ASN182     -0.0877
     97  N         -6.6460   45.2430   14.2190 N.am  183  GLY183     -0.1954
     98  CA        -5.3820   44.5480   14.4080 C.3   183  GLY183      0.1869
     99  C         -4.1190   45.3940   14.4270 C.2   183  GLY183      0.2309
    100  O         -4.1560   46.5900   14.7240 O.2   183  GLY183     -0.2863
@<TRIPOS>BOND
     1    95    94    2
     2    94    96   am
     3    94    93    1
     4    92    91    2
     5    93    90    1
     6    90    91    1
     7    90    89    1
     8    91    97   am
     9    86    85    2
    10    89    85   am
    11    97    98    1
    12    98    99    1
    13    99   100    2
    14    85    84    1
    15    84    83    1
    16    84    87    1
    17    88    87    1
    18    51    50    2
    19    50    49    1
    20    66    64    1
    21    43    42    2
    22    46    44    1
    23    49    48    1
    24    49    52    1
    25    79    78    2
    26    81    80    1
    27    44    45    1
    28    44    41    1
    29    42    48   am
    30    42    41    1
    31    53    52    1
    32    53    54    1
    33    64    63    1
    34    80    82    1
    35    80    77    1
    36    59    60    1
    37    78    77    1
    38    45    47    1
    39    41    40    1
    40    54    55    1
    41    63    60    1
    42    63    65    1
    43    22    20    1
    44    38    36    1
    45    77    76    1
    46    39    37    1
    47    60    61    1
    48    62    61    2
    49    37    36    1
    50    55    56    2
    51    20    19    1
    52    36    33    1
    53    61    67   am
    54     7     6   ar
    55    76    74   am
    56    57    56    1
    57    35    34    2
    58    56    58    1
    59     6     8   ar
    60     6     5    1
    61    21    19    1
    62    33    34    1
    63    33    32    1
    64    19    16    1
    65    67    68    1
    66    74    75    2
    67    74    73    1
    68    16    15    1
    69    16    17    1
    70    15    11   am
    71    68    69    1
    72    68    71    1
    73    70    69    2
    74    12    11    2
    75    18    17    2
    76    69    72   am
    77     5     2    1
    78    72    73    1
    79    11    10    1
    80     2     3    1
    81     2     1    1
    82    17    23   am
    83     9     3   am
    84     9    10    1
    85     3     4    2
    86    10    13    1
    87    23    24    1
    88    13    14    1
    89    24    25    1
    90    24    27    1
    91    25    26    2
    92    27    28    1
    93    28    29    1
    94    29    30   ar
    95    29    31   ar
