@<TRIPOS>MOLECULE
tmp/3rssA00.pdb
 116 107 0 0 0
SMALL
GASTEIGER

@<TRIPOS>ATOM
      1  N         -2.1380   47.2350    3.2240 N.3    27  ARG27      -0.1245
      2  CA        -1.4880   45.9800    3.6530 C.3    27  ARG27       0.1563
      3  C         -2.3990   45.1860    4.6400 C.2    27  ARG27       0.2260
      4  O         -2.4950   43.9680    4.5270 O.2    27  ARG27      -0.2867
      5  CB        -0.1470   46.2980    4.3280 C.3    27  ARG27       0.0307
      6  CG         0.9920   46.7410    3.3670 C.3    27  ARG27       0.0489
      7  CD         1.6640   45.5870    2.6940 C.3    27  ARG27       0.2205
      8  NE         2.2990   44.6280    3.5770 N.pl3  27  ARG27      -0.0865
      9  CZ         3.5680   44.6170    3.9990 C.cat  27  ARG27       0.5346
     10  NH1        4.4400   45.5620    3.6930 N.pl3  27  ARG27       0.1354
     11  NH2        3.9580   43.6420    4.8280 N.pl3  27  ARG27       0.1354
     12  N         -5.4450   43.6640    2.4360 N.3    30  ILE30      -0.1231
     13  CA        -5.0600   42.5380    1.5580 C.3    30  ILE30       0.1692
     14  C         -4.6580   41.3190    2.3810 C.2    30  ILE30       0.2592
     15  O         -4.9180   40.1900    1.9760 O.2    30  ILE30      -0.2718
     16  CB        -3.9940   42.8890    0.5410 C.3    30  ILE30       0.0266
     17  CG1       -2.6600   43.1600    1.2270 C.3    30  ILE30       0.0019
     18  CG2       -4.4870   44.0670   -0.3470 C.3    30  ILE30       0.0020
     19  CD1       -1.5610   43.4010    0.2960 C.3    30  ILE30       0.0001
     20  N         -4.1780   41.5250    3.5990 N.am   31  SER31      -0.1952
     21  CA        -3.8170   40.3770    4.4390 C.3    31  SER31       0.1924
     22  C         -5.0930   39.6130    4.8740 C.2    31  SER31       0.2314
     23  O         -5.1000   38.3740    4.9460 O.2    31  SER31      -0.2863
     24  CB        -2.8860   40.8530    5.5830 C.3    31  SER31       0.2116
     25  OG        -3.6570   41.2560    6.6630 O.3    31  SER31      -0.2180
     26  N         -6.0640   37.4470    1.8360 N.3    34  LEU34      -0.1231
     27  CA        -5.1980   36.2590    1.7110 C.3    34  LEU34       0.1693
     28  C         -5.4790   35.2180    2.7580 C.2    34  LEU34       0.2591
     29  O         -5.4180   33.9920    2.5120 O.2    34  LEU34      -0.2718
     30  CB        -3.7090   36.7010    1.6980 C.3    34  LEU34       0.0284
     31  CG        -3.2920   37.3680    0.3700 C.3    34  LEU34       0.0019
     32  CD1       -1.9720   38.1090    0.5260 C.3    34  LEU34       0.0001
     33  CD2       -3.2080   36.3360   -0.7770 C.3    34  LEU34       0.0001
     34  N         -5.8090   35.6810    3.9580 N.am   35  ALA35      -0.1980
     35  CA        -6.1050   34.8060    5.0560 C.3    35  ALA35       0.1597
     36  C         -7.4210   34.0370    4.7810 C.2    35  ALA35       0.2287
     37  O         -7.5470   32.8220    5.0550 O.2    35  ALA35      -0.2864
     38  CB        -6.1900   35.6510    6.3830 C.3    35  ALA35       0.0319
     39  N         -6.7040   31.2710    2.3190 N.3    38  GLU38      -0.1245
     40  CA        -6.0920   30.1320    2.9790 C.3    38  GLU38       0.1567
     41  C         -7.1170   29.3050    3.7190 C.2    38  GLU38       0.2260
     42  O         -7.0010   28.1010    3.7850 O.2    38  GLU38      -0.2867
     43  CB        -5.0500   30.5590    3.9990 C.3    38  GLU38       0.0388
     44  CG        -3.8030   31.1750    3.4050 C.3    38  GLU38       0.1160
     45  CD        -2.6780   31.3600    4.4270 C.2    38  GLU38       0.3649
     46  OE1       -1.6190   31.9050    4.0230 O.co2  38  GLU38      -0.2457
     47  OE2       -2.8650   30.9840    5.6150 O.co2  38  GLU38      -0.2457
     48  N         -8.2520   38.0400   11.7350 N.3   175  VAL175     -0.1245
     49  CA        -6.9550   38.4140   11.2180 C.3   175  VAL175      0.1561
     50  C         -6.4990   39.6760   11.9090 C.2   175  VAL175      0.2260
     51  O         -7.1360   40.7250   11.7980 O.2   175  VAL175     -0.2867
     52  CB        -7.0200   38.6540    9.7140 C.3   175  VAL175      0.0252
     53  CG1       -5.6030   38.8570    9.1470 C.3   175  VAL175      0.0019
     54  CG2       -7.7320   37.4750    9.0220 C.3   175  VAL175      0.0019
     55  N          0.2710   42.8610   13.0330 N.3   178  GLY178     -0.1225
     56  CA         1.5170   43.1280   13.7900 C.3   178  GLY178      0.1811
     57  C          1.7380   42.0850   14.8620 C.2   178  GLY178      0.2280
     58  O          2.6490   41.2790   14.7630 O.2   178  GLY178     -0.2866
     59  N         -0.4580   39.6280   18.1670 N.2   180  PRO180     -0.2584
     60  CA        -1.6970   39.3070   18.8680 C.3   180  PRO180      0.1895
     61  C         -2.0010   40.3570   19.9230 C.2   180  PRO180      0.2359
     62  O         -1.0760   40.9210   20.5210 O.2   180  PRO180     -0.2858
     63  CB        -1.4160   37.9880   19.5670 C.2   180  PRO180      0.0071
     64  CG         0.0170   37.6320   19.2620 C.2   180  PRO180      0.0180
     65  CD         0.5670   38.5800   18.2690 C.2   180  PRO180      0.0937
     66  N         -6.9330   32.3260   14.8240 N.3   196  LEU196     -0.1231
     67  CA        -6.2420   33.6260   14.7700 C.3   196  LEU196      0.1693
     68  C         -5.0370   33.5810   13.8230 C.2   196  LEU196      0.2592
     69  O         -4.1640   32.7350   13.9820 O.2   196  LEU196     -0.2718
     70  CB        -5.7710   34.0580   16.1760 C.3   196  LEU196      0.0284
     71  CG        -5.0480   35.4380   16.2370 C.3   196  LEU196      0.0019
     72  CD1       -5.9870   36.6300   15.9660 C.3   196  LEU196      0.0001
     73  CD2       -4.3570   35.5760   17.6230 C.3   196  LEU196      0.0001
     74  N         -4.9850   34.5120   12.8590 N.am  197  LYS197     -0.1966
     75  CA        -3.8210   34.7030   12.0340 C.3   197  LYS197      0.1728
     76  C         -3.2210   36.0700   12.3390 C.2   197  LYS197      0.2616
     77  O         -3.9360   37.0760   12.4580 O.2   197  LYS197     -0.2715
     78  CB        -4.2180   34.5890   10.5680 C.3   197  LYS197      0.0311
     79  CG        -4.6920   33.1810   10.1770 C.3   197  LYS197      0.0038
     80  CD        -4.7290   33.0130    8.6730 C.3   197  LYS197      0.0206
     81  CE        -5.4310   31.6920    8.2090 C.3   197  LYS197      0.1093
     82  NZ        -4.7360   30.5050    8.7810 N.3   197  LYS197     -0.1314
     83  N         -1.9070   36.1200   12.5180 N.am  198  VAL198     -0.1963
     84  CA        -1.2400   37.3950   12.7630 C.3   198  VAL198      0.1727
     85  C         -0.4720   37.7870   11.5040 C.2   198  VAL198      0.2616
     86  O          0.4480   37.0580   11.0950 O.2   198  VAL198     -0.2715
     87  CB        -0.2540   37.2750   13.8980 C.3   198  VAL198      0.0290
     88  CG1        0.4730   38.6710   14.1250 C.3   198  VAL198      0.0023
     89  CG2       -0.9800   36.7090   15.1800 C.3   198  VAL198      0.0023
     90  N         -0.8390   38.9180   10.9350 N.am  199  ALA199     -0.1963
     91  CA        -0.3160   39.3700    9.6380 C.3   199  ALA199      0.1728
     92  C          0.7140   40.4520    9.8530 C.2   199  ALA199      0.2616
     93  O          0.4750   41.3940   10.5900 O.2   199  ALA199     -0.2715
     94  CB        -1.5030   39.9200    8.7420 C.3   199  ALA199      0.0334
     95  N          1.8100   40.3450    9.0980 N.am  200  ASN200     -0.1972
     96  CA         2.8030   41.3700    8.9440 C.3   200  ASN200      0.1688
     97  C          2.2650   42.4200    7.9320 C.2   200  ASN200      0.2292
     98  O          2.0660   42.1160    6.7230 O.2   200  ASN200     -0.2864
     99  CB         4.0810   40.6810    8.4090 C.3   200  ASN200      0.1181
    100  CG         5.1180   41.6580    7.8640 C.2   200  ASN200      0.2629
    101  OD1        5.1740   42.8220    8.2430 O.2   200  ASN200     -0.2716
    102  ND2        5.9470   41.1530    6.9860 N.am  200  ASN200     -0.0877
    103  N          3.1240   35.6520   23.8030 N.3   215  VAL215     -0.1245
    104  CA         2.5940   34.2940   23.8660 C.3   215  VAL215      0.1561
    105  C          3.7610   33.3400   23.9050 C.2   215  VAL215      0.2260
    106  O          4.7390   33.5040   23.1390 O.2   215  VAL215     -0.2867
    107  CB         1.7140   34.0050   22.6430 C.3   215  VAL215      0.0252
    108  CG1        1.1780   32.5740   22.6800 C.3   215  VAL215      0.0019
    109  CG2        0.5470   35.0370   22.5920 C.3   215  VAL215      0.0019
    110  N          5.6160   30.2700   22.8120 N.3   217  THR217     -0.1218
    111  CA         5.5790   29.4520   21.6170 C.3   217  THR217      0.1862
    112  C          6.4490   28.2560   21.7420 C.2   217  THR217      0.2287
    113  O          7.3660   28.2030   22.5500 O.2   217  THR217     -0.2866
    114  CB         6.0950   30.2010   20.3830 C.3   217  THR217      0.1770
    115  OG1        7.4550   30.6340   20.6520 O.3   217  THR217     -0.2211
    116  CG2        5.2300   31.3730   20.1010 C.3   217  THR217      0.0375
@<TRIPOS>BOND
     1    33    31    1
     2    18    16    1
     3    19    17    1
     4    31    32    1
     5    31    30    1
     6    16    17    1
     7    16    13    1
     8    13    14    1
     9    13    12    1
    10    30    27    1
    11    27    26    1
    12    27    28    1
    13    15    14    2
    14    39    40    1
    15    14    20   am
    16    29    28    2
    17     7     6    1
    18     7     8    1
    19    28    34   am
    20    40    41    1
    21    40    43    1
    22     1     2    1
    23     6     5    1
    24    44    43    1
    25    44    45    1
    26     8     9    2
    27    20    21    1
    28     2     5    1
    29     2     3    1
    30    10     9    1
    31    41    42    2
    32    34    35    1
    33     9    11    1
    34    46    45   ar
    35    45    47   ar
    36    21    22    1
    37    21    24    1
    38     4     3    2
    39    36    37    2
    40    36    35    1
    41    22    23    2
    42    35    38    1
    43    24    25    1
    44    98    97    2
    45   102   100   am
    46   100   101    2
    47   100    99    1
    48    97    96    1
    49    81    80    1
    50    81    82    1
    51    99    96    1
    52    80    79    1
    53    94    91    1
    54    96    95    1
    55    54    52    1
    56    95    92   am
    57    53    52    1
    58    91    92    1
    59    91    90    1
    60    52    49    1
    61    92    93    2
    62    79    78    1
    63    78    75    1
    64    90    85   am
    65    86    85    2
    66    49    48    1
    67    49    50    1
    68    85    84    1
    69    51    50    2
    70    75    76    1
    71    75    74    1
    72    76    77    2
    73    76    83   am
    74    83    84    1
    75    84    87    1
    76    74    68   am
    77    55    56    1
    78    56    57    1
    79    68    69    2
    80    68    67    1
    81    87    88    1
    82    87    89    1
    83    58    57    2
    84    67    66    1
    85    67    70    1
    86    72    71    1
    87    70    71    1
    88    71    73    1
    89    59    65    2
    90    59    60    1
    91    65    64    1
    92    60    63    1
    93    60    61    1
    94    64    63    2
    95    61    62    2
    96   116   114    1
    97   114   115    1
    98   114   111    1
    99   111   112    1
   100   111   110    1
   101   112   113    2
   102   109   107    1
   103   107   108    1
   104   107   104    1
   105   106   105    2
   106   103   104    1
   107   104   105    1
