@<TRIPOS>MOLECULE
tmp/3rssA01.pdb
 193 184 0 0 0
SMALL
GASTEIGER

@<TRIPOS>ATOM
      1  N         -0.8830   50.7760   19.0210 N.3     7  LYS7       -0.1245
      2  CA        -1.1760   52.1750   18.7430 C.3     7  LYS7        0.1561
      3  C          0.1300   52.9680   18.6410 C.2     7  LYS7        0.2260
      4  O          0.3130   53.7020   17.6860 O.2     7  LYS7       -0.2867
      5  CB        -2.1390   52.8130   19.7620 C.3     7  LYS7        0.0271
      6  CG        -2.7720   54.1150   19.2080 C.3     7  LYS7        0.0035
      7  CD        -3.7740   54.7890   20.1870 C.3     7  LYS7        0.0206
      8  CE        -4.9110   55.4920   19.4240 C.3     7  LYS7        0.1093
      9  NZ        -6.0940   55.8030   20.3060 N.3     7  LYS7       -0.1314
     10  N          2.0600   51.7320   15.4220 N.3    10  ASP10      -0.1239
     11  CA         1.5090   52.3320   14.2360 C.3    10  ASP10       0.1674
     12  C          1.9710   53.7900   14.1320 C.2    10  ASP10       0.2266
     13  O          2.4440   54.2160   13.0740 O.2    10  ASP10      -0.2867
     14  CB        -0.0240   52.3320   14.2740 C.3    10  ASP10       0.1410
     15  CG        -0.6280   50.9780   14.0760 C.2    10  ASP10       0.3668
     16  OD1       -0.1200   50.1820   13.2400 O.co2  10  ASP10      -0.2456
     17  OD2       -1.6430   50.7170   14.7600 O.co2  10  ASP10      -0.2456
     18  N         -2.8950   50.5940    5.8270 N.3    25  MET25      -0.1245
     19  CA        -4.2960   50.1950    5.7230 C.3    25  MET25       0.1570
     20  C         -4.4800   49.2400    4.5070 C.2    25  MET25       0.2261
     21  O         -5.1240   48.2110    4.6010 O.2    25  MET25      -0.2867
     22  CB        -5.1910   51.4030    5.6000 C.3    25  MET25       0.0387
     23  CG        -6.6780   51.0610    5.5890 C.3    25  MET25       0.0595
     24  SD        -7.7980   52.4230    5.9800 S.3    25  MET25      -0.1393
     25  CE        -7.6600   52.5260    7.8210 C.3    25  MET25       0.0692
     26  N        -17.1050   53.5300   11.3280 N.3    54  GLY54      -0.1210
     27  CA       -16.5610   54.7860   10.8270 C.3    54  GLY54       0.1956
     28  C        -15.1000   55.0490   11.1330 C.2    54  GLY54       0.2612
     29  O        -14.6060   56.1580   10.8450 O.2    54  GLY54      -0.2717
     30  N        -14.4360   54.1090   11.8250 N.am   55  GLY55      -0.1942
     31  CA       -13.0080   54.2760   12.2300 C.3    55  GLY55       0.2014
     32  C        -12.0880   53.5510   11.2840 C.2    55  GLY55       0.2639
     33  O        -12.5060   53.1610   10.1760 O.2    55  GLY55      -0.2714
     34  N        -10.8430   53.3480   11.6830 N.am   56  ASN56      -0.1958
     35  CA        -9.9030   52.7180   10.7830 C.3    56  ASN56       0.1819
     36  C        -10.1290   51.1990   10.6390 C.2    56  ASN56       0.2621
     37  O         -9.6830   50.6040    9.6820 O.2    56  ASN56      -0.2715
     38  CB        -8.4630   53.0340   11.2030 C.3    56  ASN56       0.1195
     39  CG        -8.0710   54.4940   10.9460 C.2    56  ASN56       0.2630
     40  OD1       -8.6940   55.1980   10.1700 O.2    56  ASN56      -0.2716
     41  ND2       -7.0430   54.9570   11.6740 N.am   56  ASN56      -0.0877
     42  N        -10.8640   50.5770   11.5720 N.am   57  ASN57      -0.1958
     43  CA       -11.2490   49.1880   11.4000 C.3    57  ASN57       0.1819
     44  C        -12.1880   49.0900   10.1740 C.2    57  ASN57       0.2621
     45  O        -12.0050   48.2740    9.2900 O.2    57  ASN57      -0.2715
     46  CB       -11.9480   48.6680   12.6780 C.3    57  ASN57       0.1195
     47  CG       -12.0040   47.1550   12.7370 C.2    57  ASN57       0.2630
     48  OD1      -13.0870   46.5490   12.7730 O.2    57  ASN57      -0.2716
     49  ND2      -10.8480   46.5420   12.8350 N.am   57  ASN57      -0.0877
     50  N        -13.1630   49.9850   10.1220 N.am   58  GLY58      -0.1954
     51  CA       -14.0240   50.0810    8.9700 C.3    58  GLY58       0.1869
     52  C        -13.2350   50.4140    7.7270 C.2    58  GLY58       0.2309
     53  O        -13.4940   49.8610    6.6750 O.2    58  GLY58      -0.2863
     54  N        -10.1140   49.4810    7.0100 N.3    60  ASP60      -0.1239
     55  CA        -9.5660   48.1760    6.6650 C.3    60  ASP60       0.1674
     56  C        -10.6400   47.3580    5.9260 C.2    60  ASP60       0.2266
     57  O        -10.3430   46.7300    4.9090 O.2    60  ASP60      -0.2867
     58  CB        -9.0370   47.3830    7.8820 C.3    60  ASP60       0.1410
     59  CG        -7.8200   48.0010    8.5730 C.2    60  ASP60       0.3668
     60  OD1       -7.1090   48.8660    7.9960 O.co2  60  ASP60      -0.2456
     61  OD2       -7.5270   47.5250    9.7200 O.co2  60  ASP60      -0.2456
     62  N        -21.4030   53.5640   10.5750 N.3    81  GLY81      -0.1225
     63  CA       -21.0440   54.8140   11.2560 C.3    81  GLY81       0.1811
     64  C        -21.7750   56.0780   10.8670 C.2    81  GLY81       0.2280
     65  O        -22.6330   56.0580    9.9810 O.2    81  GLY81      -0.2866
     66  N        -19.8220   59.0420   10.5920 N.3    83  LYS83      -0.1245
     67  CA       -18.7510   59.8240    9.9760 C.3    83  LYS83       0.1561
     68  C        -17.5810   58.8770    9.7660 C.2    83  LYS83       0.2260
     69  O        -17.6360   57.7240   10.2170 O.2    83  LYS83      -0.2867
     70  CB       -18.2960   60.9910   10.8540 C.3    83  LYS83       0.0271
     71  CG       -17.7310   60.6040   12.2430 C.3    83  LYS83       0.0035
     72  CD       -17.8890   61.8000   13.2650 C.3    83  LYS83       0.0206
     73  CE       -17.1100   61.6400   14.6030 C.3    83  LYS83       0.1093
     74  NZ       -15.6240   61.2880   14.4490 N.3    83  LYS83      -0.1314
     75  N        -13.1710   58.3950    9.5610 N.3    85  THR85      -0.1218
     76  CA       -11.8090   58.8740    9.7040 C.3    85  THR85       0.1862
     77  C        -11.2280   59.1190    8.3080 C.2    85  THR85       0.2287
     78  O        -11.7860   58.6570    7.2980 O.2    85  THR85      -0.2866
     79  CB       -10.9040   57.9050   10.4470 C.3    85  THR85       0.1770
     80  OG1      -10.8160   56.7060    9.6900 O.3    85  THR85      -0.2211
     81  CG2      -11.3430   57.6400   11.8610 C.3    85  THR85       0.0375
     82  N        -16.3880   46.3350   12.1010 N.3   121  ILE121     -0.1231
     83  CA       -17.1690   47.3580   12.7940 C.3   121  ILE121      0.1692
     84  C        -16.2900   48.1080   13.7910 C.2   121  ILE121      0.2592
     85  O        -15.9890   49.2840   13.6060 O.2   121  ILE121     -0.2718
     86  CB       -18.4000   46.7530   13.5010 C.3   121  ILE121      0.0266
     87  CG1      -19.2680   46.0070   12.4990 C.3   121  ILE121      0.0019
     88  CG2      -19.1480   47.8950   14.2810 C.3   121  ILE121      0.0020
     89  CD1      -20.4090   45.2200   13.0940 C.3   121  ILE121      0.0001
     90  N        -15.8170   47.4070   14.8210 N.am  122  PHE122     -0.1962
     91  CA       -14.8550   47.9760   15.8000 C.3   122  PHE122      0.1771
     92  C        -13.6160   47.1200   15.9580 C.2   122  PHE122      0.2620
     93  O        -13.6920   45.8930   16.0300 O.2   122  PHE122     -0.2715
     94  CB       -15.4970   48.0280   17.1930 C.3   122  PHE122      0.0574
     95  CG       -16.8300   48.7210   17.2330 C.ar  122  PHE122     -0.0200
     96  CD1      -16.9510   50.0250   16.8290 C.ar  122  PHE122     -0.0042
     97  CD2      -17.9450   48.0800   17.7380 C.ar  122  PHE122     -0.0042
     98  CE1      -18.1950   50.6640   16.8810 C.ar  122  PHE122     -0.0003
     99  CE2      -19.1820   48.7020   17.7940 C.ar  122  PHE122     -0.0003
    100  CZ       -19.3010   49.9870   17.3370 C.ar  122  PHE122     -0.0000
    101  N        -12.4700   47.7640   16.0620 N.am  123  GLY123     -0.1940
    102  CA       -11.2400   47.0380   16.3700 C.3   123  GLY123      0.2014
    103  C        -10.7430   47.4530   17.7510 C.2   123  GLY123      0.2640
    104  O        -11.4670   47.3680   18.7400 O.2   123  GLY123     -0.2714
    105  N         -9.5100   47.9310   17.7950 N.am  124  THR124     -0.1936
    106  CA        -8.9050   48.3740   19.0410 C.3   124  THR124      0.2028
    107  C         -9.5070   49.6790   19.5410 C.2   124  THR124      0.2643
    108  O         -9.2160   50.0860   20.6360 O.2   124  THR124     -0.2714
    109  CB        -7.3640   48.5870   18.8720 C.3   124  THR124      0.1808
    110  OG1       -7.1460   49.5150   17.8020 O.3   124  THR124     -0.2208
    111  CG2       -6.6730   47.2450   18.5990 C.3   124  THR124      0.0379
    112  N        -10.3190   50.3540   18.7230 N.am  125  GLY125     -0.1939
    113  CA       -10.9110   51.6390   19.1040 C.3   125  GLY125      0.2014
    114  C        -12.2350   51.5370   19.8500 C.2   125  GLY125      0.2639
    115  O        -12.8290   52.5480   20.2550 O.2   125  GLY125     -0.2714
    116  N        -12.7000   50.3270   20.0600 N.am  126  LEU126     -0.1963
    117  CA       -13.8980   50.1090   20.8590 C.3   126  LEU126      0.1728
    118  C        -13.7460   50.8050   22.1800 C.2   126  LEU126      0.2616
    119  O        -12.7190   50.6420   22.8460 O.2   126  LEU126     -0.2715
    120  CB       -14.0870   48.6240   21.1100 C.3   126  LEU126      0.0311
    121  CG       -15.2660   48.2560   22.0130 C.3   126  LEU126      0.0022
    122  CD1      -16.6280   48.5630   21.3930 C.3   126  LEU126      0.0001
    123  CD2      -15.1220   46.8190   22.3900 C.3   126  LEU126      0.0001
    124  N        -14.7460   51.5780   22.5710 N.am  127  ARG127     -0.1963
    125  CA       -14.7530   52.1870   23.8920 C.3   127  ARG127      0.1729
    126  C        -16.1800   52.0390   24.4440 C.2   127  ARG127      0.2617
    127  O        -17.1310   52.4880   23.8160 O.2   127  ARG127     -0.2715
    128  CB       -14.3930   53.6820   23.8640 C.3   127  ARG127      0.0348
    129  CG       -12.9510   53.9720   23.4500 C.3   127  ARG127      0.0492
    130  CD       -11.8770   53.6340   24.5680 C.3   127  ARG127      0.2205
    131  NE       -10.5280   53.8870   24.0270 N.pl3 127  ARG127     -0.0865
    132  CZ        -9.8500   53.0640   23.2180 C.cat 127  ARG127      0.5346
    133  NH1      -10.3430   51.8740   22.8610 N.pl3 127  ARG127      0.1354
    134  NH2       -8.6480   53.4250   22.7810 N.pl3 127  ARG127      0.1354
    135  N        -16.3000   51.4000   25.5820 N.am  128  GLY128     -0.1940
    136  CA       -17.5750   51.2010   26.2380 C.3   128  GLY128      0.2014
    137  C        -18.4620   50.1550   25.5910 C.2   128  GLY128      0.2639
    138  O        -18.1730   49.6090   24.4920 O.2   128  GLY128     -0.2714
    139  N        -19.5630   49.8910   26.2860 N.am  129  GLU129     -0.1963
    140  CA       -20.5450   48.9300   25.8990 C.3   129  GLU129      0.1733
    141  C        -21.1070   49.2460   24.5330 C.2   129  GLU129      0.2616
    142  O        -21.3490   50.4220   24.2080 O.2   129  GLU129     -0.2715
    143  CB       -21.7350   48.9280   26.8950 C.3   129  GLU129      0.0429
    144  CG       -21.3390   48.7260   28.3080 C.3   129  GLU129      0.1163
    145  CD       -21.0410   47.2820   28.6580 C.2   129  GLU129      0.3649
    146  OE1      -19.8460   46.9270   28.6820 O.co2 129  GLU129     -0.2457
    147  OE2      -21.9900   46.5130   28.9340 O.co2 129  GLU129     -0.2457
    148  N        -21.3400   48.1790   23.7730 N.am  130  ILE130     -0.1963
    149  CA       -22.0490   48.2500   22.4830 C.3   130  ILE130      0.1727
    150  C        -23.5810   48.1740   22.6330 C.2   130  ILE130      0.2616
    151  O        -24.1400   47.1930   23.1490 O.2   130  ILE130     -0.2715
    152  CB       -21.6190   47.1170   21.5620 C.3   130  ILE130      0.0290
    153  CG1      -20.1370   47.2090   21.2470 C.3   130  ILE130      0.0022
    154  CG2      -22.3840   47.1360   20.1950 C.3   130  ILE130      0.0023
    155  CD1      -19.6870   46.0790   20.2860 C.3   130  ILE130      0.0001
    156  N        -24.2800   49.1650   22.1080 N.am  131  THR131     -0.1951
    157  CA       -25.7300   49.1330   22.1700 C.3   131  THR131      0.1897
    158  C        -26.3390   49.4810   20.8330 C.2   131  THR131      0.2313
    159  O        -25.6330   49.6550   19.8370 O.2   131  THR131     -0.2863
    160  CB       -26.2270   50.1300   23.2200 C.3   131  THR131      0.1794
    161  OG1      -25.5590   51.3830   22.9900 O.3   131  THR131     -0.2208
    162  CG2      -25.9360   49.6140   24.6290 C.3   131  THR131      0.0378
    163  N        -25.7520   48.9200   16.4290 N.3   134  TYR134     -0.1241
    164  CA       -24.5500   48.0780   16.4730 C.3   134  TYR134      0.1605
    165  C        -24.7990   46.7200   17.1530 C.2   134  TYR134      0.2264
    166  O        -24.4860   45.6870   16.5800 O.2   134  TYR134     -0.2867
    167  CB       -23.3940   48.8060   17.1780 C.3   134  TYR134      0.0534
    168  CG       -22.8770   50.0320   16.4890 C.ar  134  TYR134     -0.0201
    169  CD1      -22.1170   49.9260   15.3310 C.ar  134  TYR134     -0.0009
    170  CD2      -23.1000   51.3090   17.0080 C.ar  134  TYR134     -0.0009
    171  CE1      -21.5950   51.0520   14.7040 C.ar  134  TYR134      0.0417
    172  CE2      -22.5790   52.4540   16.3670 C.ar  134  TYR134      0.0417
    173  CZ       -21.8090   52.2860   15.2160 C.ar  134  TYR134      0.1957
    174  OH       -21.2370   53.3540   14.5520 O.3   134  TYR134     -0.2866
    175  N         -9.0050   42.5270   12.7190 N.3   152  ASP152     -0.1239
    176  CA        -8.1750   42.8780   13.8940 C.3   152  ASP152      0.1674
    177  C         -8.6080   42.2050   15.2070 C.2   152  ASP152      0.2266
    178  O         -7.8400   41.4580   15.8040 O.2   152  ASP152     -0.2867
    179  CB        -8.0260   44.3630   14.0710 C.3   152  ASP152      0.1410
    180  CG        -6.7020   44.7390   14.7970 C.2   152  ASP152      0.3668
    181  OD1       -5.7570   43.9120   14.8400 O.co2 152  ASP152     -0.2456
    182  OD2       -6.6210   45.8820   15.3110 O.co2 152  ASP152     -0.2456
    183  N         -3.1800   42.4190   13.2050 N.3   177  PHE177     -0.1241
    184  CA        -2.0840   43.0770   12.4860 C.3   177  PHE177      0.1605
    185  C         -0.9020   43.3360   13.4290 C.2   177  PHE177      0.2264
    186  O         -1.0810   43.8680   14.5610 O.2   177  PHE177     -0.2867
    187  CB        -2.6310   44.3690   11.8060 C.3   177  PHE177      0.0534
    188  CG        -3.8800   44.1380   11.0410 C.ar  177  PHE177     -0.0203
    189  CD1       -3.9200   43.1840   10.0470 C.ar  177  PHE177     -0.0042
    190  CD2       -5.0380   44.7960   11.3380 C.ar  177  PHE177     -0.0042
    191  CE1       -5.1030   42.9080    9.3480 C.ar  177  PHE177     -0.0003
    192  CE2       -6.1870   44.5320   10.6320 C.ar  177  PHE177     -0.0003
    193  CZ        -6.2200   43.5780    9.6450 C.ar  177  PHE177     -0.0000
@<TRIPOS>BOND
     1    20    21    2
     2    20    19    1
     3    57    56    2
     4    23    22    1
     5    23    24    1
     6    22    19    1
     7    19    18    1
     8    56    55    1
     9    24    25    1
    10    55    54    1
    11    55    58    1
    12    53    52    2
    13    78    77    2
    14    52    51    1
    15    58    59    1
    16    60    59   ar
    17    77    76    1
    18    59    61   ar
    19    51    50    1
    20    45    44    2
    21   191   193   ar
    22   191   189   ar
    23    75    76    1
    24   193   192   ar
    25    37    36    2
    26    80    79    1
    27    76    79    1
    28    68    67    1
    29    68    69    2
    30    67    66    1
    31    67    70    1
    32    65    64    2
    33   189   188   ar
    34    50    44   am
    35    40    39    2
    36    44    43    1
    37    33    32    2
    38    79    81    1
    39    62    63    1
    40   192   190   ar
    41    36    35    1
    42    36    42   am
    43    35    38    1
    44    35    34    1
    45    27    28    1
    46    27    26    1
    47    29    28    2
    48    70    71    1
    49    64    63    1
    50    39    38    1
    51    39    41   am
    52   188   190   ar
    53   188   187    1
    54    28    30   am
    55    32    34   am
    56    32    31    1
    57    43    42    1
    58    43    46    1
    59   187   184    1
    60    30    31    1
    61    82    83    1
    62    71    72    1
    63   184   183    1
    64   184   185    1
    65    87    89    1
    66    87    86    1
    67    46    47    1
    68   175   176    1
    69    47    48    2
    70    47    49   am
    71    83    86    1
    72    83    84    1
    73    13    12    2
    74    16    15   ar
    75    72    73    1
    76   185   186    2
    77    86    88    1
    78    85    84    2
    79    84    90   am
    80   176   179    1
    81   176   177    1
    82   179   180    1
    83    15    14    1
    84    15    17   ar
    85    12    11    1
    86    11    14    1
    87    11    10    1
    88    74    73    1
    89   174   173    1
    90   171   173   ar
    91   171   169   ar
    92   180   181   ar
    93   180   182   ar
    94    90    91    1
    95   177   178    2
    96   173   172   ar
    97   169   168   ar
    98    91    92    1
    99    91    94    1
   100    92    93    2
   101    92   101   am
   102   101   102    1
   103   172   170   ar
   104   102   103    1
   105   163   164    1
   106   164   165    1
   107   164   167    1
   108   168   170   ar
   109   168   167    1
   110   166   165    2
   111    96    98   ar
   112    96    95   ar
   113    98   100   ar
   114    94    95    1
   115    95    97   ar
   116   100    99   ar
   117     4     3    2
   118    97    99   ar
   119   103   105   am
   120   103   104    2
   121   105   106    1
   122   110   109    1
   123   111   109    1
   124     3     2    1
   125   112   113    1
   126   112   107   am
   127     2     1    1
   128     2     5    1
   129   109   106    1
   130   106   107    1
   131   113   114    1
   132     6     5    1
   133     6     7    1
   134     8     7    1
   135     8     9    1
   136   107   108    2
   137   159   158    2
   138   114   116   am
   139   114   115    2
   140   116   117    1
   141   154   152    1
   142   155   153    1
   143   158   157    1
   144   117   120    1
   145   117   118    1
   146   120   121    1
   147   153   152    1
   148   122   121    1
   149   152   149    1
   150   121   123    1
   151   156   157    1
   152   156   150   am
   153   157   160    1
   154   118   124   am
   155   118   119    2
   156   149   150    1
   157   149   148    1
   158   124   125    1
   159   150   151    2
   160   134   132    1
   161   133   132    1
   162   161   160    1
   163   132   131    2
   164   160   162    1
   165   129   128    1
   166   129   130    1
   167   148   141   am
   168   127   126    2
   169   128   125    1
   170   125   126    1
   171   131   130    1
   172   142   141    2
   173   126   135   am
   174   138   137    2
   175   141   140    1
   176   135   136    1
   177   137   136    1
   178   137   139   am
   179   140   139    1
   180   140   143    1
   181   143   144    1
   182   144   145    1
   183   145   146   ar
   184   145   147   ar
