@<TRIPOS>MOLECULE
tmp/3rsvA00.pdb
 204 192 0 0 0
SMALL
GASTEIGER

@<TRIPOS>ATOM
      1  N         22.0100  -33.6420    2.1700 N.3    32  LEU32      -0.1245
      2  CA        21.2810  -34.8790    1.9420 C.3    32  LEU32       0.1561
      3  C         19.7980  -34.6110    1.6250 C.2    32  LEU32       0.2260
      4  O         19.1290  -33.8350    2.3190 O.2    32  LEU32      -0.2867
      5  CB        21.4330  -35.7650    3.1710 C.3    32  LEU32       0.0270
      6  CG        21.1950  -37.2600    3.0570 C.3    32  LEU32       0.0019
      7  CD1       22.3850  -37.9290    2.3770 C.3    32  LEU32       0.0001
      8  CD2       20.9760  -37.8390    4.4590 C.3    32  LEU32       0.0001
      9  N         16.1900  -35.8540    1.7120 N.3    34  ASP34      -0.1239
     10  CA        15.4830  -36.8260    2.5360 C.3    34  ASP34       0.1674
     11  C         13.9630  -36.6060    2.5510 C.2    34  ASP34       0.2266
     12  O         13.4720  -35.7020    3.2370 O.2    34  ASP34      -0.2867
     13  CB        16.0610  -36.7840    3.9610 C.3    34  ASP34       0.1410
     14  CG        15.4150  -37.7910    4.8960 C.2    34  ASP34       0.3668
     15  OD1       14.8270  -38.7810    4.4160 O.co2  34  ASP34      -0.2456
     16  OD2       15.5030  -37.6010    6.1250 O.co2  34  ASP34      -0.2456
     17  N         11.9450  -38.5040    3.9770 N.3    36  GLY36      -0.1210
     18  CA        11.4810  -39.1430    5.2100 C.3    36  GLY36       0.1956
     19  C         11.7310  -38.3850    6.5120 C.2    36  GLY36       0.2612
     20  O         11.6730  -38.9820    7.5980 O.2    36  GLY36      -0.2717
     21  N         12.0150  -37.0870    6.4070 N.am   37  SER37      -0.1952
     22  CA        12.1280  -36.1930    7.5590 C.3    37  SER37       0.1924
     23  C         11.7640  -34.7740    7.1170 C.2    37  SER37       0.2314
     24  O         11.6010  -34.5350    5.9280 O.2    37  SER37      -0.2863
     25  CB        13.5380  -36.2540    8.1690 C.3    37  SER37       0.2116
     26  OG        14.5140  -35.6500    7.3310 O.3    37  SER37      -0.2180
     27  N         17.1610  -33.9480   18.6780 N.3    71  VAL71      -0.1231
     28  CA        16.5700  -34.9290   17.7680 C.3    71  VAL71       0.1678
     29  C         17.1920  -36.3100   17.9780 C.2    71  VAL71       0.2434
     30  O         18.2210  -36.6350   17.3810 O.2    71  VAL71      -0.2733
     31  CB        16.6670  -34.4770   16.2730 C.3    71  VAL71       0.0265
     32  CG1       16.0270  -35.5040   15.3440 C.3    71  VAL71       0.0020
     33  CG2       16.0150  -33.1180   16.0750 C.3    71  VAL71       0.0020
     34  N         16.5770  -37.1200   18.8530 N.am   72  PRO72      -0.2718
     35  CA        17.0310  -38.4990   19.0080 C.3    72  PRO72       0.1535
     36  C         16.5110  -39.3940   17.8930 C.2    72  PRO72       0.2598
     37  O         15.4320  -39.1630   17.3520 O.2    72  PRO72      -0.2715
     38  CB        16.4270  -38.9310   20.3480 C.3    72  PRO72       0.0310
     39  CG        15.2990  -37.9950   20.6070 C.3    72  PRO72       0.0237
     40  CD        15.5400  -36.7460   19.8350 C.3    72  PRO72       0.0939
     41  N         17.2940  -40.4040   17.5540 N.am   73  TYR73      -0.1974
     42  CA        16.8730  -41.4270   16.6190 C.3    73  TYR73       0.1639
     43  C         17.0820  -42.7740   17.3080 C.2    73  TYR73       0.2290
     44  O         17.6950  -42.8270   18.3710 O.2    73  TYR73      -0.2864
     45  CB        17.6850  -41.3180   15.3190 C.3    73  TYR73       0.0560
     46  CG        17.3430  -42.3430   14.2560 C.ar   73  TYR73      -0.0198
     47  CD1       16.0220  -42.5670   13.8680 C.ar   73  TYR73      -0.0009
     48  CD2       18.3490  -43.0810   13.6280 C.ar   73  TYR73      -0.0009
     49  CE1       15.7100  -43.5080   12.9010 C.ar   73  TYR73       0.0417
     50  CE2       18.0440  -44.0230   12.6500 C.ar   73  TYR73       0.0417
     51  CZ        16.7210  -44.2270   12.2980 C.ar   73  TYR73       0.1957
     52  OH        16.4150  -45.1450   11.3300 O.3    73  TYR73      -0.2866
     53  N         19.1280  -44.9970   16.7710 N.3    75  GLN75      -0.1245
     54  CA        20.5470  -44.9650   17.1170 C.3    75  GLN75       0.1566
     55  C         21.1590  -43.5740   16.9450 C.2    75  GLN75       0.2260
     56  O         21.1230  -43.0050   15.8530 O.2    75  GLN75      -0.2867
     57  CB        21.3430  -46.0150   16.3390 C.3    75  GLN75       0.0367
     58  CG        22.6920  -46.3380   16.9860 C.3    75  GLN75       0.0905
     59  CD        22.5920  -46.6070   18.5010 C.2    75  GLN75       0.2608
     60  OE1       22.1410  -47.6760   18.9310 O.2    75  GLN75      -0.2717
     61  NE2       23.0300  -45.6360   19.3080 N.am   75  GLN75      -0.0878
     62  N         21.9780  -39.3810   17.7440 N.3    77  LYS77      -0.1231
     63  CA        21.1960  -38.1490   17.7690 C.3    77  LYS77       0.1693
     64  C         21.8830  -36.9850   17.0580 C.2    77  LYS77       0.2592
     65  O         23.0610  -37.0520   16.7060 O.2    77  LYS77      -0.2718
     66  CB        20.8670  -37.7500   19.2170 C.3    77  LYS77       0.0285
     67  CG        22.0760  -37.5140   20.1360 C.3    77  LYS77       0.0035
     68  CD        22.5820  -36.0630   20.0980 C.3    77  LYS77       0.0206
     69  CE        23.2920  -35.6630   21.3920 C.3    77  LYS77       0.1093
     70  NZ        24.5300  -36.4640   21.6530 N.3    77  LYS77      -0.1314
     71  N         21.1250  -35.9220   16.8350 N.am   78  TRP78      -0.1976
     72  CA        21.7220  -34.6160   16.6300 C.3    78  TRP78       0.1640
     73  C         20.9460  -33.6010   17.4320 C.2    78  TRP78       0.2290
     74  O         19.7650  -33.8040   17.7450 O.2    78  TRP78      -0.2864
     75  CB        21.8530  -34.2150   15.1450 C.3    78  TRP78       0.0576
     76  CG        20.5710  -33.9850   14.3750 C.ar   78  TRP78       0.0006
     77  CD1       19.9410  -34.8780   13.5560 C.ar   78  TRP78       0.0946
     78  CD2       19.7980  -32.7700   14.3100 C.ar   78  TRP78       0.0152
     79  NE1       18.8200  -34.3080   13.0070 N.ar   78  TRP78      -0.2442
     80  CE2       18.7050  -33.0180   13.4520 C.ar   78  TRP78       0.0810
     81  CE3       19.9170  -31.5020   14.9060 C.ar   78  TRP78       0.0012
     82  CZ2       17.7330  -32.0420   13.1640 C.ar   78  TRP78       0.0191
     83  CZ3       18.9450  -30.5300   14.6200 C.ar   78  TRP78       0.0001
     84  CH2       17.8700  -30.8100   13.7560 C.ar   78  TRP78       0.0015
     85  N         26.4760  -40.3850   15.8370 N.3   109  LYS109     -0.1231
     86  CA        26.1070  -41.3390   14.7700 C.3   109  LYS109      0.1693
     87  C         25.2230  -40.7300   13.6700 C.2   109  LYS109      0.2592
     88  O         24.4860  -41.4330   12.9750 O.2   109  LYS109     -0.2718
     89  CB        25.4850  -42.6220   15.3440 C.3   109  LYS109      0.0285
     90  CG        26.3680  -43.3600   16.3640 C.3   109  LYS109      0.0035
     91  CD        25.9410  -44.8130   16.5190 C.3   109  LYS109      0.0206
     92  CE        26.7450  -45.5340   17.6050 C.3   109  LYS109      0.1093
     93  NZ        26.1380  -45.3370   18.9660 N.3   109  LYS109     -0.1314
     94  N         25.3170  -39.4140   13.5160 N.am  110  PHE110     -0.1976
     95  CA        24.6160  -38.7170   12.4440 C.3   110  PHE110      0.1639
     96  C         25.5020  -38.5830   11.2090 C.2   110  PHE110      0.2290
     97  O         25.1800  -39.1310   10.1670 O.2   110  PHE110     -0.2864
     98  CB        24.1000  -37.3530   12.9120 C.3   110  PHE110      0.0560
     99  CG        23.3730  -36.5810   11.8420 C.ar  110  PHE110     -0.0200
    100  CD1       22.0950  -36.9750   11.4240 C.ar  110  PHE110     -0.0042
    101  CD2       23.9640  -35.4630   11.2500 C.ar  110  PHE110     -0.0042
    102  CE1       21.4110  -36.2610   10.4370 C.ar  110  PHE110     -0.0003
    103  CE2       23.2920  -34.7420   10.2630 C.ar  110  PHE110     -0.0003
    104  CZ        22.0090  -35.1370    9.8560 C.ar  110  PHE110     -0.0000
    105  N         21.2230  -32.0290    6.0360 N.3   120  ILE120     -0.1245
    106  CA        20.0630  -32.7860    5.6020 C.3   120  ILE120      0.1561
    107  C         18.8940  -31.8470    5.2600 C.2   120  ILE120      0.2260
    108  O         18.6180  -30.8890    5.9800 O.2   120  ILE120     -0.2867
    109  CB        19.6690  -33.8150    6.6710 C.3   120  ILE120      0.0252
    110  CG1       18.4780  -34.6630    6.2090 C.3   120  ILE120      0.0019
    111  CG2       19.4040  -33.1200    8.0200 C.3   120  ILE120      0.0019
    112  CD1       18.2900  -35.9290    7.0150 C.3   120  ILE120      0.0001
    113  N          5.8230  -33.8400   11.2200 N.3   128  ILE128     -0.1245
    114  CA         6.9400  -34.6140   11.7780 C.3   128  ILE128      0.1561
    115  C          8.2040  -33.7780   11.9830 C.2   128  ILE128      0.2260
    116  O          9.2640  -34.3200   12.3170 O.2   128  ILE128     -0.2867
    117  CB         7.2490  -35.9100   10.9620 C.3   128  ILE128      0.0252
    118  CG1        7.5880  -35.5680    9.5030 C.3   128  ILE128      0.0019
    119  CG2        6.0770  -36.9020   11.0830 C.3   128  ILE128      0.0019
    120  CD1        8.3300  -36.6560    8.7650 C.3   128  ILE128      0.0001
    121  N         10.7590  -31.2200   13.8780 N.3   130  ARG130     -0.1245
    122  CA        11.1720  -31.0130   15.2720 C.3   130  ARG130      0.1563
    123  C         11.4700  -29.5290   15.4720 C.2   130  ARG130      0.2260
    124  O         11.9680  -28.8780   14.5500 O.2   130  ARG130     -0.2867
    125  CB        12.3940  -31.8730   15.6400 C.3   130  ARG130      0.0307
    126  CG        12.2830  -33.3600   15.2950 C.3   130  ARG130      0.0489
    127  CD        11.2990  -34.0790   16.1760 C.3   130  ARG130      0.2205
    128  NE        11.3260  -35.5290   15.9500 N.pl3 130  ARG130     -0.0865
    129  CZ        10.3200  -36.2450   15.4510 C.cat 130  ARG130      0.5346
    130  NH1        9.1640  -35.6710   15.1150 N.pl3 130  ARG130      0.1354
    131  NH2       10.4710  -37.5510   15.2960 N.pl3 130  ARG130      0.1354
    132  N          4.5690  -37.8800    6.9360 N.3   190  TYR190     -0.1241
    133  CA         5.4280  -38.5510    5.9730 C.3   190  TYR190      0.1605
    134  C          4.7100  -38.5070    4.6170 C.2   190  TYR190      0.2264
    135  O          3.5500  -38.0850    4.5400 O.2   190  TYR190     -0.2867
    136  CB         5.6060  -40.0180    6.3590 C.3   190  TYR190      0.0534
    137  CG         6.3880  -40.2600    7.6260 C.ar  190  TYR190     -0.0201
    138  CD1        7.7660  -40.4580    7.5840 C.ar  190  TYR190     -0.0009
    139  CD2        5.7490  -40.3020    8.8670 C.ar  190  TYR190     -0.0009
    140  CE1        8.4900  -40.6890    8.7400 C.ar  190  TYR190      0.0417
    141  CE2        6.4640  -40.5270   10.0340 C.ar  190  TYR190      0.0417
    142  CZ         7.8350  -40.7240    9.9620 C.ar  190  TYR190      0.1957
    143  OH         8.5590  -40.9520   11.1060 O.3   190  TYR190     -0.2866
    144  N          2.1820  -48.0290    8.8080 N.3   216  LYS216     -0.1245
    145  CA         2.1830  -47.1010    7.6790 C.3   216  LYS216      0.1561
    146  C          3.0160  -47.6220    6.5220 C.2   216  LYS216      0.2260
    147  O          3.7710  -48.5880    6.6770 O.2   216  LYS216     -0.2867
    148  CB         2.6730  -45.7100    8.1080 C.3   216  LYS216      0.0271
    149  CG         4.1320  -45.6370    8.5390 C.3   216  LYS216      0.0035
    150  CD         4.4530  -44.2450    9.0960 C.3   216  LYS216      0.0206
    151  CE         5.8270  -44.2020    9.7770 C.3   216  LYS216      0.1093
    152  NZ         5.8650  -45.0800   10.9830 N.3   216  LYS216     -0.1314
    153  N          5.4880  -45.6960    3.4570 N.3   218  ILE218     -0.1245
    154  CA         6.0130  -44.3860    3.0750 C.3   218  ILE218      0.1561
    155  C          7.0130  -44.4620    1.9470 C.2   218  ILE218      0.2260
    156  O          7.5980  -45.5150    1.6850 O.2   218  ILE218     -0.2867
    157  CB         6.6480  -43.6110    4.2730 C.3   218  ILE218      0.0252
    158  CG1        7.9390  -44.2980    4.7570 C.3   218  ILE218      0.0019
    159  CG2        5.6600  -43.4380    5.3920 C.3   218  ILE218      0.0019
    160  CD1        8.7840  -43.4480    5.7030 C.3   218  ILE218      0.0001
    161  N         10.5170  -42.9770    0.8320 N.3   220  ASP220     -0.1239
    162  CA        11.6260  -42.3850    1.5740 C.3   220  ASP220      0.1674
    163  C         12.9990  -42.4220    0.9090 C.2   220  ASP220      0.2266
    164  O         13.6740  -43.4600    0.8930 O.2   220  ASP220     -0.2867
    165  CB        11.7240  -43.0240    2.9470 C.3   220  ASP220      0.1410
    166  CG        12.7210  -42.3210    3.8370 C.2   220  ASP220      0.3668
    167  OD1       13.2810  -41.2620    3.4280 O.co2 220  ASP220     -0.2456
    168  OD2       12.9340  -42.8410    4.9520 O.co2 220  ASP220     -0.2456
    169  N         15.6850  -41.1470    1.9760 N.3   222  GLY222     -0.1210
    170  CA        16.7520  -41.2240    2.9640 C.3   222  GLY222      0.1956
    171  C         17.0350  -42.6360    3.4590 C.2   222  GLY222      0.2612
    172  O         17.9820  -42.8480    4.2240 O.2   222  GLY222     -0.2717
    173  N         16.2150  -43.5980    3.0350 N.am  223  THR223     -0.1952
    174  CA        16.4010  -45.0080    3.3990 C.3   223  THR223      0.1897
    175  C         16.9330  -45.7620    2.1930 C.2   223  THR223      0.2313
    176  O         16.5200  -45.5220    1.0570 O.2   223  THR223     -0.2863
    177  CB        15.0800  -45.6600    3.8740 C.3   223  THR223      0.1794
    178  OG1       14.6390  -45.0290    5.0790 O.3   223  THR223     -0.2208
    179  CG2       15.2560  -47.1450    4.1480 C.3   223  THR223      0.0378
    180  N         11.8740  -51.6910    3.0800 N.3   227  ARG227     -0.1245
    181  CA        11.6150  -52.1040    4.4410 C.3   227  ARG227      0.1563
    182  C         10.1630  -52.5700    4.5860 C.2   227  ARG227      0.2260
    183  O          9.2340  -51.8450    4.2320 O.2   227  ARG227     -0.2867
    184  CB        11.9290  -50.9460    5.3860 C.3   227  ARG227      0.0307
    185  CG        12.9540  -51.3030    6.4330 C.3   227  ARG227      0.0489
    186  CD        13.6770  -50.1070    7.0440 C.3   227  ARG227      0.2205
    187  NE        13.8430  -50.2650    8.4990 N.pl3 227  ARG227     -0.0865
    188  CZ        14.4870  -51.2700    9.1150 C.cat 227  ARG227      0.5346
    189  NH1       15.0490  -52.2630    8.4260 N.pl3 227  ARG227      0.1354
    190  NH2       14.5630  -51.2860   10.4460 N.pl3 227  ARG227      0.1354
    191  N          8.3800  -49.9180   11.9300 N.3   308  THR308     -0.1218
    192  CA         7.9130  -48.5650   11.6130 C.3   308  THR308      0.1862
    193  C          6.8690  -48.5710   10.4820 C.2   308  THR308      0.2287
    194  O          6.1310  -47.6000   10.3060 O.2   308  THR308     -0.2866
    195  CB         9.0930  -47.6110   11.2530 C.3   308  THR308      0.1770
    196  OG1        9.9780  -48.2600   10.3360 O.3   308  THR308     -0.2211
    197  CG2        9.8800  -47.2310   12.4950 C.3   308  THR308      0.0375
    198  N          8.6990  -49.1620    4.1820 N.3   311  VAL311     -0.1245
    199  CA         9.5030  -48.0270    3.7650 C.3   311  VAL311      0.1561
    200  C         10.0000  -48.2830    2.3520 C.2   311  VAL311      0.2260
    201  O         10.7960  -49.1910    2.1060 O.2   311  VAL311     -0.2867
    202  CB        10.6700  -47.7140    4.7500 C.3   311  VAL311      0.0252
    203  CG1       11.5080  -46.5440    4.2520 C.3   311  VAL311      0.0019
    204  CG2       10.1360  -47.4000    6.1390 C.3   311  VAL311      0.0019
@<TRIPOS>BOND
     1   161   162    1
     2   164   163    2
     3   163   162    1
     4   176   175    2
     5   162   165    1
     6     3     2    1
     7     3     4    2
     8   156   155    2
     9     9    10    1
    10     2     1    1
    11     2     5    1
    12   155   154    1
    13   169   170    1
    14   201   200    2
    15   175   174    1
    16   200   199    1
    17     7     6    1
    18    10    11    1
    19    10    13    1
    20    11    12    2
    21   165   166    1
    22   170   171    1
    23   173   174    1
    24   173   171   am
    25     6     5    1
    26     6     8    1
    27   154   153    1
    28   154   157    1
    29   180   181    1
    30   174   177    1
    31   167   166   ar
    32   171   172    2
    33   199   198    1
    34   199   202    1
    35   166   168   ar
    36   177   179    1
    37   177   178    1
    38    13    14    1
    39    17    18    1
    40   183   182    2
    41   203   202    1
    42   157   158    1
    43   157   159    1
    44    15    14   ar
    45   181   182    1
    46   181   184    1
    47   135   134    2
    48   134   133    1
    49   202   204    1
    50   158   160    1
    51    14    16   ar
    52    18    19    1
    53   107   106    1
    54   107   108    2
    55   184   185    1
    56   106   105    1
    57   106   109    1
    58    24    23    2
    59   133   136    1
    60   133   132    1
    61   110   109    1
    62   110   112    1
    63   136   137    1
    64    21    19   am
    65    21    22    1
    66   185   186    1
    67    19    20    2
    68   146   147    2
    69   146   145    1
    70   109   111    1
    71   186   187    1
    72    23    22    1
    73    26    25    1
    74    22    25    1
    75   138   137   ar
    76   138   140   ar
    77   137   139   ar
    78   145   148    1
    79   145   144    1
    80   148   149    1
    81   189   188    1
    82   187   188    2
    83   149   150    1
    84   140   142   ar
    85   120   118    1
    86   139   141   ar
    87   150   151    1
    88   188   190    1
    89   118   117    1
    90   151   152    1
    91   104   103   ar
    92   104   102   ar
    93   142   141   ar
    94   142   143    1
    95    97    96    2
    96   103   101   ar
    97   194   193    2
    98   196   195    1
    99   102   100   ar
   100   193   192    1
   101   117   119    1
   102   117   114    1
   103    96    95    1
   104   113   114    1
   105   101    99   ar
   106   195   192    1
   107   195   197    1
   108    52    51    1
   109   100    99   ar
   110   192   191    1
   111   114   115    1
   112    99    98    1
   113   115   116    2
   114    51    50   ar
   115    51    49   ar
   116    95    98    1
   117    95    94    1
   118    50    48   ar
   119    49    47   ar
   120    88    87    2
   121    79    80   ar
   122    79    77   ar
   123    82    80   ar
   124    82    84   ar
   125    80    78   ar
   126    94    87   am
   127    77    76   ar
   128    48    46   ar
   129    87    86    1
   130    84    83   ar
   131    47    46   ar
   132   121   122    1
   133    46    45    1
   134    78    76   ar
   135    78    81   ar
   136    76    75    1
   137   124   123    2
   138    83    81   ar
   139    86    89    1
   140    86    85    1
   141   130   129    1
   142    75    72    1
   143   122   123    1
   144   122   125    1
   145   126   125    1
   146   126   127    1
   147   131   129    1
   148    45    42    1
   149    32    31    1
   150    89    90    1
   151   129   128    2
   152    56    55    2
   153   128   127    1
   154    33    31    1
   155    31    28    1
   156    57    58    1
   157    57    54    1
   158    90    91    1
   159    91    92    1
   160    42    43    1
   161    42    41    1
   162    72    71    1
   163    72    73    1
   164    65    64    2
   165    53    54    1
   166    71    64   am
   167    55    54    1
   168    58    59    1
   169    64    63    1
   170    43    44    2
   171    37    36    2
   172    30    29    2
   173    73    74    2
   174    41    36   am
   175    92    93    1
   176    62    63    1
   177    28    29    1
   178    28    27    1
   179    63    66    1
   180    36    35    1
   181    29    34   am
   182    59    60    2
   183    59    61   am
   184    34    35    1
   185    34    40    1
   186    35    38    1
   187    66    67    1
   188    40    39    1
   189    68    67    1
   190    68    69    1
   191    38    39    1
   192    69    70    1
