@<TRIPOS>MOLECULE
tmp/3rsxA00.pdb
 120 115 0 0 0
SMALL
GASTEIGER

@<TRIPOS>ATOM
      1  N         68.5360   53.5620    1.2060 N.3    34  ASP34      -0.1239
      2  CA        67.8300   52.6220    2.0540 C.3    34  ASP34       0.1674
      3  C         66.3110   52.8280    2.0250 C.2    34  ASP34       0.2266
      4  O         65.7930   53.7240    2.6830 O.2    34  ASP34      -0.2867
      5  CB        68.4050   52.7040    3.4840 C.3    34  ASP34       0.1410
      6  CG        67.6830   51.8070    4.4770 C.2    34  ASP34       0.3668
      7  OD1       67.1550   50.7460    4.0900 O.co2  34  ASP34      -0.2456
      8  OD2       67.6520   52.1640    5.6730 O.co2  34  ASP34      -0.2456
      9  N         64.3070   51.0280    3.4520 N.3    36  GLY36      -0.1210
     10  CA        63.8270   50.4650    4.7150 C.3    36  GLY36       0.1956
     11  C         63.8090   51.3920    5.9270 C.2    36  GLY36       0.2612
     12  O         63.4540   50.9660    7.0190 O.2    36  GLY36      -0.2717
     13  N         64.1840   52.6550    5.7540 N.am   37  SER37      -0.1952
     14  CA        64.1530   53.6140    6.8620 C.3    37  SER37       0.1924
     15  C         63.8480   55.0010    6.3280 C.2    37  SER37       0.2314
     16  O         63.7050   55.1590    5.1230 O.2    37  SER37      -0.2863
     17  CB        65.4660   53.5930    7.6700 C.3    37  SER37       0.2116
     18  OG        66.5450   54.1050    6.9290 O.3    37  SER37      -0.2180
     19  N         68.8680   56.2390   18.0500 N.3    71  VAL71      -0.1245
     20  CA        68.3070   55.2020   17.1840 C.3    71  VAL71       0.1561
     21  C         68.9320   53.8290   17.4670 C.2    71  VAL71       0.2260
     22  O         69.9770   53.4780   16.9020 O.2    71  VAL71      -0.2867
     23  CB        68.4390   55.5600   15.6650 C.3    71  VAL71       0.0252
     24  CG1       67.8230   54.4770   14.7820 C.3    71  VAL71       0.0019
     25  CG2       67.7980   56.9050   15.3620 C.3    71  VAL71       0.0019
     26  N         69.0220   49.7380   17.1010 N.3    73  TYR73      -0.1241
     27  CA        68.5870   48.6580   16.2420 C.3    73  TYR73       0.1605
     28  C         68.8090   47.3900   17.0570 C.2    73  TYR73       0.2264
     29  O         69.2480   47.4800   18.2050 O.2    73  TYR73      -0.2867
     30  CB        69.3920   48.6720   14.9290 C.3    73  TYR73       0.0534
     31  CG        68.9190   47.7000   13.8550 C.ar   73  TYR73      -0.0201
     32  CD1       67.6220   47.7660   13.3410 C.ar   73  TYR73      -0.0009
     33  CD2       69.7830   46.7260   13.3470 C.ar   73  TYR73      -0.0009
     34  CE1       67.1890   46.8780   12.3630 C.ar   73  TYR73       0.0417
     35  CE2       69.3690   45.8370   12.3690 C.ar   73  TYR73       0.0417
     36  CZ        68.0680   45.9170   11.8780 C.ar   73  TYR73       0.1957
     37  OH        67.6510   45.0340   10.9030 O.3    73  TYR73      -0.2866
     38  N         71.0940   44.9660   16.7790 N.3    75  GLN75      -0.1231
     39  CA        72.5190   44.8550   17.0900 C.3    75  GLN75       0.1698
     40  C         73.0730   46.0450   17.8740 C.2    75  GLN75       0.2593
     41  O         73.4450   45.8840   19.0420 O.2    75  GLN75      -0.2718
     42  CB        73.3280   44.6210   15.8030 C.3    75  GLN75       0.0381
     43  CG        72.9410   45.0050   14.5890 C.3    75  GLN75       0.0905
     44  CD        72.8550   43.9730   13.4930 C.2    75  GLN75       0.2608
     45  OE1       72.9680   42.7750   13.7470 O.2    75  GLN75      -0.2717
     46  NE2       72.6430   44.4280   12.2680 N.am   75  GLN75      -0.0878
     47  N         73.1290   47.2240   17.2460 N.am   76  GLY76      -0.1942
     48  CA        73.7550   48.4050   17.8530 C.3    76  GLY76       0.2014
     49  C         72.9050   49.6640   17.8360 C.2    76  GLY76       0.2639
     50  O         71.7150   49.6160   18.1190 O.2    76  GLY76      -0.2714
     51  N         73.5190   50.7960   17.5050 N.am   77  LYS77      -0.1963
     52  CA        72.8370   52.0870   17.5360 C.3    77  LYS77       0.1728
     53  C         73.5350   53.1640   16.7070 C.2    77  LYS77       0.2616
     54  O         74.6910   53.0020   16.3210 O.2    77  LYS77      -0.2715
     55  CB        72.6600   52.5680   18.9890 C.3    77  LYS77       0.0311
     56  CG        73.9620   52.8000   19.7740 C.3    77  LYS77       0.0038
     57  CD        74.2800   54.2740   19.9290 C.3    77  LYS77       0.0206
     58  CE        75.7270   54.4920   20.3480 C.3    77  LYS77       0.1093
     59  NZ        76.0330   53.9570   21.7010 N.3    77  LYS77      -0.1314
     60  N         72.8050   54.2410   16.4070 N.am   78  TRP78      -0.1974
     61  CA        73.4220   55.5310   16.0700 C.3    78  TRP78       0.1640
     62  C         72.7380   56.6730   16.8190 C.2    78  TRP78       0.2290
     63  O         71.5860   56.5680   17.2160 O.2    78  TRP78      -0.2864
     64  CB        73.5540   55.8040   14.5500 C.3    78  TRP78       0.0576
     65  CG        72.2760   56.0960   13.7440 C.ar   78  TRP78       0.0006
     66  CD1       71.6390   55.2330   12.8970 C.ar   78  TRP78       0.0946
     67  CD2       71.5390   57.3340   13.6740 C.ar   78  TRP78       0.0152
     68  NE1       70.5520   55.8400   12.3210 N.ar   78  TRP78      -0.2442
     69  CE2       70.4600   57.1260   12.7780 C.ar   78  TRP78       0.0810
     70  CE3       71.6790   58.5910   14.2870 C.ar   78  TRP78       0.0012
     71  CZ2       69.5110   58.1270   12.4800 C.ar   78  TRP78       0.0191
     72  CZ3       70.7390   59.5930   13.9870 C.ar   78  TRP78       0.0001
     73  CH2       69.6630   59.3470   13.0880 C.ar   78  TRP78       0.0015
     74  N         78.1230   49.5870   15.6260 N.3   109  LYS109     -0.1231
     75  CA        77.6870   48.6250   14.6260 C.3   109  LYS109      0.1693
     76  C         76.7640   49.2480   13.5760 C.2   109  LYS109      0.2592
     77  O         75.8630   48.5960   13.0730 O.2   109  LYS109     -0.2718
     78  CB        77.0500   47.3990   15.2950 C.3   109  LYS109      0.0285
     79  CG        78.0890   46.4040   15.8250 C.3   109  LYS109      0.0035
     80  CD        77.5310   45.4980   16.9160 C.3   109  LYS109      0.0206
     81  CE        78.6030   44.5460   17.4250 C.3   109  LYS109      0.1093
     82  NZ        78.1310   43.8170   18.6220 N.3   109  LYS109     -0.1314
     83  N         76.9990   50.5180   13.2590 N.am  110  PHE110     -0.1976
     84  CA        76.2590   51.1680   12.2040 C.3   110  PHE110      0.1639
     85  C         77.1020   51.2730   10.9360 C.2   110  PHE110      0.2290
     86  O         76.7650   50.6810    9.9150 O.2   110  PHE110     -0.2864
     87  CB        75.7290   52.5430   12.6260 C.3   110  PHE110      0.0560
     88  CG        75.0350   53.2710   11.5130 C.ar  110  PHE110     -0.0200
     89  CD1       73.8090   52.8160   11.0290 C.ar  110  PHE110     -0.0042
     90  CD2       75.6250   54.3720   10.9120 C.ar  110  PHE110     -0.0042
     91  CE1       73.1690   53.4600    9.9770 C.ar  110  PHE110     -0.0003
     92  CE2       74.9890   55.0300    9.8580 C.ar  110  PHE110     -0.0003
     93  CZ        73.7600   54.5730    9.3880 C.ar  110  PHE110     -0.0000
     94  N         73.4070   57.6350    5.5830 N.3   120  ILE120     -0.1245
     95  CA        72.2660   56.8560    5.1480 C.3   120  ILE120      0.1561
     96  C         71.1480   57.7800    4.6480 C.2   120  ILE120      0.2260
     97  O         70.8800   58.8360    5.2320 O.2   120  ILE120     -0.2867
     98  CB        71.7880   55.8960    6.2820 C.3   120  ILE120      0.0252
     99  CG1       70.6590   54.9820    5.8050 C.3   120  ILE120      0.0019
    100  CG2       71.4050   56.6620    7.5590 C.3   120  ILE120      0.0019
    101  CD1       70.6150   53.6640    6.5480 C.3   120  ILE120      0.0001
    102  N         62.9870   46.4700    0.4870 N.3   221  ASP221     -0.1239
    103  CA        64.0770   47.0810    1.2790 C.3   221  ASP221      0.1674
    104  C         65.4580   47.0030    0.6330 C.2   221  ASP221      0.2266
    105  O         66.1310   45.9750    0.7120 O.2   221  ASP221     -0.2867
    106  CB        64.1090   46.4700    2.6830 C.3   221  ASP221      0.1410
    107  CG        65.1500   47.1150    3.5920 C.2   221  ASP221      0.3668
    108  OD1       65.6500   48.2190    3.2650 O.co2 221  ASP221     -0.2456
    109  OD2       65.4610   46.5110    4.6500 O.co2 221  ASP221     -0.2456
    110  N         68.0970   48.2420    1.6630 N.3   223  GLY223     -0.1210
    111  CA        69.1200   48.2390    2.7070 C.3   223  GLY223      0.1956
    112  C         69.4270   46.8810    3.3210 C.2   223  GLY223      0.2612
    113  O         70.3250   46.7660    4.1610 O.2   223  GLY223     -0.2717
    114  N         68.6790   45.8610    2.9050 N.am  224  THR224     -0.1952
    115  CA        68.8960   44.4750    3.3400 C.3   224  THR224      0.1897
    116  C         69.4400   43.6750    2.1690 C.2   224  THR224      0.2313
    117  O         69.0740   43.9240    1.0140 O.2   224  THR224     -0.2863
    118  CB        67.5780   43.8260    3.8260 C.3   224  THR224      0.1794
    119  OG1       67.0440   44.5800    4.9160 O.3   224  THR224     -0.2208
    120  CG2       67.7700   42.3790    4.2740 C.3   224  THR224      0.0378
@<TRIPOS>BOND
     1   102   103    1
     2   104   105    2
     3   104   103    1
     4   117   116    2
     5     1     2    1
     6   103   106    1
     7   110   111    1
     8     3     2    1
     9     3     4    2
    10     2     5    1
    11   116   115    1
    12   106   107    1
    13   111   112    1
    14   114   112   am
    15   114   115    1
    16   108   107   ar
    17   112   113    2
    18   115   118    1
    19     9    10    1
    20     5     6    1
    21   107   109   ar
    22   118   120    1
    23   118   119    1
    24     7     6   ar
    25     6     8   ar
    26    96    95    1
    27    96    97    2
    28    10    11    1
    29    16    15    2
    30    95    94    1
    31    95    98    1
    32    13    11   am
    33    13    14    1
    34    99    98    1
    35    99   101    1
    36    11    12    2
    37    98   100    1
    38    15    14    1
    39    14    17    1
    40    18    17    1
    41    93    92   ar
    42    93    91   ar
    43    92    90   ar
    44    86    85    2
    45    91    89   ar
    46    37    36    1
    47    90    88   ar
    48    85    84    1
    49    89    88   ar
    50    88    87    1
    51    36    34   ar
    52    36    35   ar
    53    84    87    1
    54    84    83    1
    55    46    44   am
    56    68    69   ar
    57    68    66   ar
    58    34    32   ar
    59    35    33   ar
    60    71    69   ar
    61    71    73   ar
    62    69    67   ar
    63    66    65   ar
    64    77    76    2
    65    73    72   ar
    66    83    76   am
    67    32    31   ar
    68    33    31   ar
    69    44    45    2
    70    44    43    1
    71    76    75    1
    72    67    65   ar
    73    67    70   ar
    74    65    64    1
    75    31    30    1
    76    72    70   ar
    77    64    61    1
    78    43    42    1
    79    75    78    1
    80    75    74    1
    81    24    23    1
    82    30    27    1
    83    78    79    1
    84    25    23    1
    85    23    20    1
    86    42    39    1
    87    79    80    1
    88    61    60    1
    89    61    62    1
    90    27    28    1
    91    27    26    1
    92    54    53    2
    93    60    53   am
    94    53    52    1
    95    38    39    1
    96    62    63    2
    97    22    21    2
    98    80    81    1
    99    28    29    2
   100    39    40    1
   101    20    21    1
   102    20    19    1
   103    47    48    1
   104    47    40   am
   105    81    82    1
   106    51    52    1
   107    51    49   am
   108    52    55    1
   109    49    48    1
   110    49    50    2
   111    40    41    2
   112    55    56    1
   113    56    57    1
   114    57    58    1
   115    58    59    1
