@<TRIPOS>MOLECULE
tmp/3rszD00.pdb
 126 121 0 0 0
SMALL
GASTEIGER

@<TRIPOS>ATOM
      1  N          9.4510  -13.6250   56.0020 N.3    19  ARG19      -0.1245
      2  CA         8.9830  -14.3830   54.8630 C.3    19  ARG19       0.1563
      3  C          8.8520  -15.8510   55.2450 C.2    19  ARG19       0.2260
      4  O          9.8260  -16.5260   55.5360 O.2    19  ARG19      -0.2867
      5  CB         9.9300  -14.2130   53.6840 C.3    19  ARG19       0.0307
      6  CG         9.3410  -14.6810   52.3800 C.3    19  ARG19       0.0489
      7  CD        10.4060  -14.7130   51.3350 C.3    19  ARG19       0.2205
      8  NE        11.2680  -13.5400   51.4470 N.pl3  19  ARG19      -0.0865
      9  CZ        11.0670  -12.4070   50.7830 C.cat  19  ARG19       0.5346
     10  NH1       10.0270  -12.2990   49.9620 N.pl3  19  ARG19       0.1354
     11  NH2       11.9040  -11.3860   50.9380 N.pl3  19  ARG19       0.1354
     12  N          5.7070  -17.1910   53.9750 N.3    21  GLY21      -0.1210
     13  CA         4.5380  -17.4060   53.1460 C.3    21  GLY21       0.1956
     14  C          4.4960  -16.4380   51.9800 C.2    21  GLY21       0.2612
     15  O          5.4900  -15.7800   51.6710 O.2    21  GLY21      -0.2717
     16  N          3.3520  -16.3580   51.3140 N.am   22  GLY22      -0.1956
     17  CA         3.1840  -15.4150   50.2250 C.3    22  GLY22       0.1869
     18  C          2.5020  -14.1680   50.7390 C.2    22  GLY22       0.2309
     19  O          2.5330  -13.1190   50.1070 O.2    22  GLY22      -0.2863
     20  N          4.5900  -11.2530   50.9550 N.3    25  SER25      -0.1217
     21  CA         4.6410  -10.4770   49.7270 C.3    25  SER25       0.1889
     22  C          3.4630   -9.5330   49.5790 C.2    25  SER25       0.2288
     23  O          3.6500   -8.3690   49.2300 O.2    25  SER25      -0.2866
     24  CB         4.7390  -11.3870   48.5070 C.3    25  SER25       0.2089
     25  OG         6.0620  -11.8680   48.3630 O.3    25  SER25      -0.2183
     26  N          7.8940   -1.2580   40.3630 N.3   272  LYS272     -0.1231
     27  CA         9.0880   -2.0140   40.7390 C.3   272  LYS272      0.1693
     28  C          9.5410   -2.9690   39.6340 C.2   272  LYS272      0.2592
     29  O         10.6250   -3.5530   39.7130 O.2   272  LYS272     -0.2718
     30  CB         8.8600   -2.7580   42.0670 C.3   272  LYS272      0.0285
     31  CG         9.2200   -4.2470   42.0560 C.3   272  LYS272      0.0035
     32  CD         8.9200   -4.9110   43.4040 C.3   272  LYS272      0.0206
     33  CE         9.3660   -6.3730   43.4280 C.3   272  LYS272      0.1093
     34  NZ         9.6290   -6.8530   44.8190 N.3   272  LYS272     -0.1314
     35  N          8.7080   -3.1200   38.6060 N.am  273  PHE273     -0.1976
     36  CA         9.0590   -3.9170   37.4330 C.3   273  PHE273      0.1639
     37  C          9.4820   -2.9960   36.2870 C.2   273  PHE273      0.2290
     38  O         10.6820   -2.7850   36.0560 O.2   273  PHE273     -0.2864
     39  CB         7.8880   -4.8100   37.0110 C.3   273  PHE273      0.0560
     40  CG         7.4700   -5.7930   38.0690 C.ar  273  PHE273     -0.0200
     41  CD1        6.6050   -5.4140   39.0830 C.ar  273  PHE273     -0.0042
     42  CD2        7.9540   -7.0910   38.0610 C.ar  273  PHE273     -0.0042
     43  CE1        6.2270   -6.3120   40.0690 C.ar  273  PHE273     -0.0003
     44  CE2        7.5780   -7.9940   39.0430 C.ar  273  PHE273     -0.0003
     45  CZ         6.7130   -7.6010   40.0490 C.ar  273  PHE273     -0.0000
     46  N          7.2060  -21.8860   38.8810 N.3   310  GLY310     -0.1210
     47  CA         6.5860  -21.7500   40.1920 C.3   310  GLY310      0.1956
     48  C          6.9590  -22.9120   41.0910 C.2   310  GLY310      0.2612
     49  O          7.7500  -23.7610   40.6880 O.2   310  GLY310     -0.2717
     50  N          6.3910  -22.9510   42.2950 N.am  311  ARG311     -0.1965
     51  CA         6.6240  -24.0520   43.2290 C.3   311  ARG311      0.1729
     52  C          6.5110  -25.3840   42.5060 C.2   311  ARG311      0.2616
     53  O          5.7100  -25.5240   41.5920 O.2   311  ARG311     -0.2715
     54  CB         5.5980  -24.0200   44.3570 C.3   311  ARG311      0.0348
     55  CG         6.1900  -23.9770   45.7520 C.3   311  ARG311      0.0492
     56  CD         5.1200  -24.1000   46.8300 C.3   311  ARG311      0.2205
     57  NE         3.8810  -23.4040   46.4840 N.pl3 311  ARG311     -0.0865
     58  CZ         3.7570  -22.0830   46.3800 C.cat 311  ARG311      0.5346
     59  NH1        4.8050  -21.2930   46.5830 N.pl3 311  ARG311      0.1354
     60  NH2        2.5790  -21.5550   46.0600 N.pl3 311  ARG311      0.1354
     61  N          7.3100  -26.3640   42.9130 N.am  312  TYR312     -0.1974
     62  CA         7.2210  -27.6850   42.3100 C.3   312  TYR312      0.1639
     63  C          6.0220  -28.4650   42.8450 C.2   312  TYR312      0.2290
     64  O          6.1720  -29.5290   43.4370 O.2   312  TYR312     -0.2864
     65  CB         8.5050  -28.4700   42.5410 C.3   312  TYR312      0.0560
     66  CG         8.5850  -29.7730   41.7670 C.ar  312  TYR312     -0.0198
     67  CD1        7.4810  -30.2890   41.1090 C.ar  312  TYR312     -0.0009
     68  CD2        9.7710  -30.4830   41.6920 C.ar  312  TYR312     -0.0009
     69  CE1        7.5590  -31.4750   40.4060 C.ar  312  TYR312      0.0417
     70  CE2        9.8570  -31.6670   40.9920 C.ar  312  TYR312      0.0417
     71  CZ         8.7520  -32.1580   40.3520 C.ar  312  TYR312      0.1957
     72  OH         8.8540  -33.3400   39.6630 O.3   312  TYR312     -0.2866
     73  N         11.9250  -25.6010   40.8470 N.3   349  PRO349     -0.2116
     74  CA        13.0550  -26.0560   41.6550 C.3   349  PRO349      0.1372
     75  C         12.7940  -27.4270   42.2380 C.2   349  PRO349      0.2244
     76  O         11.7170  -27.6440   42.7690 O.2   349  PRO349     -0.2868
     77  CB        13.1050  -25.0230   42.7800 C.3   349  PRO349      0.0268
     78  CG        12.3820  -23.8320   42.2500 C.3   349  PRO349      0.0207
     79  CD        11.2900  -24.4040   41.4210 C.3   349  PRO349      0.0892
     80  N         16.0600  -22.4350   40.7300 N.3   459  PHE459     -0.1227
     81  CA        15.8080  -21.0270   40.4990 C.3   459  PHE459      0.1736
     82  C         16.8080  -20.4690   39.4940 C.2   459  PHE459      0.2595
     83  O         17.9670  -20.8950   39.4480 O.2   459  PHE459     -0.2718
     84  CB        15.9070  -20.2590   41.8100 C.3   459  PHE459      0.0547
     85  CG        14.9510  -20.7350   42.8530 C.ar  459  PHE459     -0.0202
     86  CD1       13.6300  -20.3220   42.8310 C.ar  459  PHE459     -0.0042
     87  CD2       15.3670  -21.6040   43.8540 C.ar  459  PHE459     -0.0042
     88  CE1       12.7360  -20.7600   43.7940 C.ar  459  PHE459     -0.0003
     89  CE2       14.4780  -22.0470   44.8220 C.ar  459  PHE459     -0.0003
     90  CZ        13.1620  -21.6250   44.7910 C.ar  459  PHE459     -0.0000
     91  N         16.3540  -19.5160   38.6900 N.am  460  LEU460     -0.1980
     92  CA        17.2270  -18.8670   37.7270 C.3   460  LEU460      0.1596
     93  C         18.0230  -17.7400   38.3810 C.2   460  LEU460      0.2287
     94  O         17.4670  -16.9130   39.1180 O.2   460  LEU460     -0.2864
     95  CB        16.4060  -18.3360   36.5450 C.3   460  LEU460      0.0297
     96  CG        15.7120  -19.3960   35.6920 C.3   460  LEU460      0.0022
     97  CD1       14.7540  -18.7730   34.7020 C.3   460  LEU460      0.0001
     98  CD2       16.7450  -20.2260   34.9710 C.3   460  LEU460      0.0001
     99  N         15.1440  -14.4230   36.9950 N.3   471  TYR471     -0.1241
    100  CA        13.7950  -14.7990   36.5990 C.3   471  TYR471      0.1605
    101  C         13.1820  -13.7040   35.7360 C.2   471  TYR471      0.2264
    102  O         12.7940  -13.9570   34.6020 O.2   471  TYR471     -0.2867
    103  CB        12.9260  -15.0710   37.8220 C.3   471  TYR471      0.0534
    104  CG        11.5290  -15.5310   37.5090 C.ar  471  TYR471     -0.0201
    105  CD1       11.2850  -16.8280   37.0990 C.ar  471  TYR471     -0.0009
    106  CD2       10.4510  -14.6710   37.6530 C.ar  471  TYR471     -0.0009
    107  CE1       10.0080  -17.2600   36.8220 C.ar  471  TYR471      0.0417
    108  CE2        9.1670  -15.0910   37.3770 C.ar  471  TYR471      0.0417
    109  CZ         8.9510  -16.3940   36.9600 C.ar  471  TYR471      0.1957
    110  OH         7.6730  -16.8330   36.6840 O.3   471  TYR471     -0.2866
    111  N          2.4980  -15.9940   40.2740 N.3   493  THR493     -0.1218
    112  CA         3.3660  -16.2590   39.1230 C.3   493  THR493      0.1862
    113  C          2.7960  -15.7940   37.7690 C.2   493  THR493      0.2287
    114  O          3.4850  -15.0840   37.0320 O.2   493  THR493     -0.2866
    115  CB         3.8200  -17.7210   39.0880 C.3   493  THR493      0.1770
    116  OG1        3.0640  -18.4630   40.0540 O.3   493  THR493     -0.2211
    117  CG2        5.2810  -17.8120   39.4720 C.3   493  THR493      0.0375
    118  N          2.3360  -11.8130   37.8090 N.3   496  GLU496     -0.1245
    119  CA         3.5250  -11.0020   37.6250 C.3   496  GLU496      0.1567
    120  C          4.0940  -11.2270   36.2420 C.2   496  GLU496      0.2260
    121  O          4.8350  -10.4010   35.7270 O.2   496  GLU496     -0.2867
    122  CB         4.5590  -11.2770   38.7200 C.3   496  GLU496      0.0388
    123  CG         5.5420  -12.3940   38.4400 C.3   496  GLU496      0.1160
    124  CD         6.6870  -12.3910   39.4390 C.2   496  GLU496      0.3649
    125  OE1        7.7800  -12.9120   39.1010 O.co2 496  GLU496     -0.2457
    126  OE2        6.4860  -11.8550   40.5580 O.co2 496  GLU496     -0.2457
@<TRIPOS>BOND
     1   102   101    2
     2    97    96    1
     3    98    96    1
     4    96    95    1
     5   121   120    2
     6   101   100    1
     7    38    37    2
     8   120   119    1
     9    37    36    1
    10    95    92    1
    11   100    99    1
    12   100   103    1
    13   110   109    1
    14   107   109   ar
    15   107   105   ar
    16   109   108   ar
    17    39    36    1
    18    39    40    1
    19   114   113    2
    20   105   104   ar
    21   108   106   ar
    22    36    35    1
    23   104   106   ar
    24   104   103    1
    25   119   118    1
    26   119   122    1
    27    92    93    1
    28    92    91    1
    29   113   112    1
    30    42    40   ar
    31    42    44   ar
    32    40    41   ar
    33    93    94    2
    34   123   122    1
    35   123   124    1
    36    35    28   am
    37    91    82   am
    38    46    47    1
    39    44    45   ar
    40    41    43   ar
    41   115   112    1
    42   115   117    1
    43   115   116    1
    44   125   124   ar
    45   112   111    1
    46   124   126   ar
    47    83    82    2
    48    82    81    1
    49    28    29    2
    50    28    27    1
    51    72    71    1
    52    45    43   ar
    53    47    48    1
    54    71    69   ar
    55    71    70   ar
    56    26    27    1
    57    69    67   ar
    58    81    80    1
    59    81    84    1
    60    49    48    2
    61    27    30    1
    62    73    79    1
    63    73    74    1
    64    70    68   ar
    65    48    50   am
    66    67    66   ar
    67    79    78    1
    68    53    52    2
    69    74    75    1
    70    74    77    1
    71    68    66   ar
    72    66    65    1
    73    84    85    1
    74    31    30    1
    75    31    32    1
    76    75    76    2
    77    78    77    1
    78    50    51    1
    79    62    65    1
    80    62    63    1
    81    62    61    1
    82    52    61   am
    83    52    51    1
    84    86    85   ar
    85    86    88   ar
    86    63    64    2
    87    85    87   ar
    88    51    54    1
    89    32    33    1
    90    33    34    1
    91    88    90   ar
    92    87    89   ar
    93    54    55    1
    94    90    89   ar
    95    55    56    1
    96    60    58    1
    97    58    57    2
    98    58    59    1
    99    57    56    1
   100    25    24    1
   101    24    21    1
   102    23    22    2
   103    22    21    1
   104    21    20    1
   105    10     9    1
   106    19    18    2
   107    17    18    1
   108    17    16    1
   109     9    11    1
   110     9     8    2
   111    16    14   am
   112     7     8    1
   113     7     6    1
   114    15    14    2
   115    14    13    1
   116     6     5    1
   117    13    12    1
   118     5     2    1
   119     2     3    1
   120     2     1    1
   121     3     4    2
