@<TRIPOS>MOLECULE
tmp/3rszB01.pdb
 139 135 0 0 0
SMALL
GASTEIGER

@<TRIPOS>ATOM
      1  N         39.3220   23.7340    7.5220 N.3   355  THR355     -0.1218
      2  CA        39.2750   23.7310    6.0710 C.3   355  THR355      0.1862
      3  C         38.3250   22.6590    5.5450 C.2   355  THR355      0.2287
      4  O         38.3360   21.5180    6.0100 O.2   355  THR355     -0.2866
      5  CB        40.6760   23.5010    5.4610 C.3   355  THR355      0.1770
      6  OG1       41.1210   22.1640    5.7200 O.3   355  THR355     -0.2211
      7  CG2       41.6700   24.4630    6.0510 C.3   355  THR355      0.0375
      8  N         38.6080   20.9370    3.1760 N.3   357  GLU357     -0.1245
      9  CA        39.4300   19.7970    2.8110 C.3   357  GLU357      0.1567
     10  C         39.6560   18.8610    4.0080 C.2   357  GLU357      0.2260
     11  O         39.4010   17.6550    3.9230 O.2   357  GLU357     -0.2867
     12  CB        40.7560   20.2790    2.2040 C.3   357  GLU357      0.0388
     13  CG        41.7080   19.1700    1.7830 C.3   357  GLU357      0.1160
     14  CD        42.6740   19.6190    0.6890 C.2   357  GLU357      0.3649
     15  OE1       43.5600   18.8160    0.2990 O.co2 357  GLU357     -0.2457
     16  OE2       42.5340   20.7750    0.2150 O.co2 357  GLU357     -0.2457
     17  N         44.4720   14.3020   -8.4490 N.3   413  GLU413     -0.1231
     18  CA        45.8480   13.9730   -8.8180 C.3   413  GLU413      0.1699
     19  C         46.7910   15.1420   -8.5530 C.2   413  GLU413      0.2593
     20  O         46.4630   16.3010   -8.8360 O.2   413  GLU413     -0.2718
     21  CB        45.9370   13.5120  -10.2750 C.3   413  GLU413      0.0402
     22  CG        46.8880   12.3410  -10.4850 C.3   413  GLU413      0.1161
     23  CD        46.5260   11.5060  -11.7020 C.2   413  GLU413      0.3649
     24  OE1       46.6150   12.0300  -12.8340 O.co2 413  GLU413     -0.2457
     25  OE2       46.1450   10.3250  -11.5230 O.co2 413  GLU413     -0.2457
     26  N         47.9500   14.8260   -7.9790 N.am  414  GLY414     -0.1942
     27  CA        48.9440   15.8290   -7.6420 C.3   414  GLY414      0.2014
     28  C         48.6560   16.6650   -6.4010 C.2   414  GLY414      0.2639
     29  O         49.5090   17.4460   -5.9740 O.2   414  GLY414     -0.2714
     30  N         47.4610   16.5230   -5.8290 N.am  415  GLN415     -0.1963
     31  CA        47.1160   17.2230   -4.5880 C.3   415  GLN415      0.1733
     32  C         47.7320   16.5200   -3.3730 C.2   415  GLN415      0.2616
     33  O         47.7110   15.2910   -3.2690 O.2   415  GLN415     -0.2715
     34  CB        45.6000   17.3480   -4.4260 C.3   415  GLN415      0.0408
     35  CG        45.1720   17.6830   -3.0120 C.3   415  GLN415      0.0908
     36  CD        43.6660   17.8420   -2.8690 C.2   415  GLN415      0.2608
     37  OE1       43.0430   17.2490   -1.9820 O.2   415  GLN415     -0.2717
     38  NE2       43.0740   18.6540   -3.7390 N.am  415  GLN415     -0.0878
     39  N         48.2910   17.3030   -2.4580 N.am  416  LEU416     -0.1964
     40  CA        48.9860   16.7480   -1.3070 C.3   416  LEU416      0.1713
     41  C         48.2230   17.0080   -0.0060 C.2   416  LEU416      0.2458
     42  O         47.3460   17.8780    0.0510 O.2   416  LEU416     -0.2730
     43  CB        50.3880   17.3380   -1.2170 C.3   416  LEU416      0.0310
     44  CG        51.3740   16.9020   -2.2920 C.3   416  LEU416      0.0022
     45  CD1       52.6210   17.7660   -2.2580 C.3   416  LEU416      0.0001
     46  CD2       51.7270   15.4520   -2.0850 C.3   416  LEU416      0.0001
     47  N         48.5520   16.2460    1.0490 N.am  417  PRO417     -0.2716
     48  CA        47.9520   16.4530    2.3760 C.3   417  PRO417      0.1521
     49  C         48.3350   17.8240    2.9450 C.2   417  PRO417      0.2440
     50  O         49.5260   18.1130    3.0980 O.2   417  PRO417     -0.2731
     51  CB        48.5870   15.3460    3.2220 C.3   417  PRO417      0.0310
     52  CG        49.0340   14.3050    2.2310 C.3   417  PRO417      0.0237
     53  CD        49.4590   15.0830    1.0210 C.3   417  PRO417      0.0939
     54  N         47.3310   18.6620    3.2600 N.am  418  PRO418     -0.2716
     55  CA        47.5100   20.0460    3.7170 C.3   418  PRO418      0.1536
     56  C         48.4890   20.1770    4.8670 C.2   418  PRO418      0.2598
     57  O         48.5610   19.2800    5.6930 O.2   418  PRO418     -0.2715
     58  CB        46.1140   20.4270    4.1960 C.3   418  PRO418      0.0310
     59  CG        45.2140   19.6380    3.3490 C.3   418  PRO418      0.0237
     60  CD        45.9050   18.3090    3.1610 C.3   418  PRO418      0.0939
     61  N         49.2330   21.2770    4.9100 N.am  419  ILE419     -0.1964
     62  CA        50.1170   21.5540    6.0360 C.3   419  ILE419      0.1727
     63  C         49.3650   22.2820    7.1450 C.2   419  ILE419      0.2616
     64  O         49.9320   22.6200    8.1810 O.2   419  ILE419     -0.2715
     65  CB        51.3060   22.4320    5.6380 C.3   419  ILE419      0.0290
     66  CG1       50.8040   23.6900    4.9420 C.3   419  ILE419      0.0022
     67  CG2       52.2630   21.6730    4.7550 C.3   419  ILE419      0.0023
     68  CD1       51.8690   24.7130    4.6700 C.3   419  ILE419      0.0001
     69  N         48.0820   22.5280    6.9370 N.am  420  VAL420     -0.1977
     70  CA        47.3060   23.2290    7.9480 C.3   420  VAL420      0.1596
     71  C         45.8560   22.7270    8.0060 C.2   420  VAL420      0.2287
     72  O         45.2580   22.3880    6.9750 O.2   420  VAL420     -0.2864
     73  CB        47.3390   24.7430    7.6920 C.3   420  VAL420      0.0276
     74  CG1       46.5300   25.0890    6.4550 C.3   420  VAL420      0.0022
     75  CG2       46.8300   25.4980    8.9030 C.3   420  VAL420      0.0022
     76  N         43.2350   24.4640    9.4100 N.3   422  HIS422     -0.1226
     77  CA        42.2530   25.5490    9.5150 C.3   422  HIS422      0.1752
     78  C         42.3070   26.5780    8.4080 C.2   422  HIS422      0.2596
     79  O         43.2870   26.6750    7.6720 O.2   422  HIS422     -0.2718
     80  CB        42.4170   26.2900   10.8330 C.3   422  HIS422      0.0759
     81  CG        41.9310   25.5230   12.0130 C.ar  422  HIS422      0.0818
     82  ND1       42.4060   24.2700   12.3310 N.ar  422  HIS422     -0.2268
     83  CD2       40.9990   25.8250   12.9460 C.ar  422  HIS422      0.1154
     84  CE1       41.7900   23.8340   13.4150 C.ar  422  HIS422      0.1986
     85  NE2       40.9360   24.7610   13.8110 N.ar  422  HIS422     -0.2212
     86  N         41.2380   27.3570    8.3140 N.am  423  ASN423     -0.1960
     87  CA        41.2110   28.5170    7.4390 C.3   423  ASN423      0.1819
     88  C         42.0050   29.6540    8.0780 C.2   423  ASN423      0.2621
     89  O         41.5550   30.2630    9.0620 O.2   423  ASN423     -0.2715
     90  CB        39.7670   28.9660    7.1880 C.3   423  ASN423      0.1195
     91  CG        39.0170   28.0430    6.2320 C.2   423  ASN423      0.2630
     92  OD1       39.5880   27.5210    5.2580 O.2   423  ASN423     -0.2716
     93  ND2       37.7210   27.8450    6.5050 N.am  423  ASN423     -0.0877
     94  N         43.1870   29.9400    7.5330 N.am  424  MET424     -0.1977
     95  CA        43.9870   31.0480    8.0460 C.3   424  MET424      0.1605
     96  C         43.3670   32.4010    7.6900 C.2   424  MET424      0.2287
     97  O         42.9490   32.6310    6.5480 O.2   424  MET424     -0.2864
     98  CB        45.4300   30.9740    7.5400 C.3   424  MET424      0.0413
     99  CG        46.1940   29.7540    8.0330 C.3   424  MET424      0.0598
    100  SD        46.0620   29.5140    9.8240 S.3   424  MET424     -0.1393
    101  CE        47.3560   30.5920   10.4240 C.3   424  MET424      0.0692
    102  N         46.8170   34.1450    5.3630 N.3   427  ASP427     -0.1239
    103  CA        47.6320   33.0740    4.8370 C.3   427  ASP427      0.1674
    104  C         48.9670   33.6230    4.3530 C.2   427  ASP427      0.2266
    105  O         49.9710   32.9000    4.2840 O.2   427  ASP427     -0.2867
    106  CB        46.8880   32.3900    3.6900 C.3   427  ASP427      0.1410
    107  CG        46.8630   30.8880    3.8310 C.2   427  ASP427      0.3668
    108  OD1       47.6900   30.2170    3.1620 O.co2 427  ASP427     -0.2456
    109  OD2       46.0230   30.3890    4.6190 O.co2 427  ASP427     -0.2456
    110  N         53.3670   29.4200    8.7020 N.3   433  LEU433     -0.1245
    111  CA        53.1480   28.9370    7.3360 C.3   433  LEU433      0.1561
    112  C         54.3200   29.3180    6.4310 C.2   433  LEU433      0.2260
    113  O         54.9250   28.4450    5.7790 O.2   433  LEU433     -0.2867
    114  CB        51.8290   29.4490    6.7580 C.3   433  LEU433      0.0270
    115  CG        50.5800   28.7450    7.2860 C.3   433  LEU433      0.0019
    116  CD1       49.3010   29.4520    6.8500 C.3   433  LEU433      0.0001
    117  CD2       50.5820   27.2920    6.8380 C.3   433  LEU433      0.0001
    118  N         56.8070   26.9730    4.3010 N.3   437  ARG437     -0.1245
    119  CA        56.9310   27.1460    2.8520 C.3   437  ARG437      0.1563
    120  C         58.4080   27.2820    2.4640 C.2   437  ARG437      0.2260
    121  O         58.9220   26.5080    1.6650 O.2   437  ARG437     -0.2867
    122  CB        56.1240   28.3510    2.3840 C.3   437  ARG437      0.0307
    123  CG        54.6180   28.1360    2.4040 C.3   437  ARG437      0.0489
    124  CD        53.9040   29.4730    2.3360 C.3   437  ARG437      0.2205
    125  NE        52.4460   29.3660    2.2410 N.pl3 437  ARG437     -0.0865
    126  CZ        51.5980   30.2720    2.7360 C.cat 437  ARG437      0.5346
    127  NH1       52.0610   31.3420    3.3730 N.pl3 437  ARG437      0.1354
    128  NH2       50.2870   30.1110    2.6060 N.pl3 437  ARG437      0.1354
    129  N         55.9510   19.7480    2.4380 N.3   442  PHE442     -0.1241
    130  CA        54.6230   19.8930    1.8560 C.3   442  PHE442      0.1605
    131  C         53.8240   18.5940    1.9130 C.2   442  PHE442      0.2264
    132  O         52.7200   18.5040    1.3760 O.2   442  PHE442     -0.2867
    133  CB        54.7350   20.4330    0.4250 C.3   442  PHE442      0.0534
    134  CG        55.0750   21.9020    0.3520 C.ar  442  PHE442     -0.0203
    135  CD1       54.4450   22.8190    1.1830 C.ar  442  PHE442     -0.0042
    136  CD2       56.0230   22.3660   -0.5460 C.ar  442  PHE442     -0.0042
    137  CE1       54.7490   24.1710    1.1150 C.ar  442  PHE442     -0.0003
    138  CE2       56.3320   23.7190   -0.6180 C.ar  442  PHE442     -0.0003
    139  CZ        55.6930   24.6180    0.2180 C.ar  442  PHE442     -0.0000
@<TRIPOS>BOND
     1    24    23   ar
     2    23    25   ar
     3    23    22    1
     4    22    21    1
     5    21    18    1
     6    20    19    2
     7    18    19    1
     8    18    17    1
     9    19    26   am
    10    26    27    1
    11    27    28    1
    12    28    29    2
    13    28    30   am
    14    30    31    1
    15    31    34    1
    16    31    32    1
    17    34    35    1
    18    38    36   am
    19    32    33    2
    20    32    39   am
    21    35    36    1
    22    36    37    2
    23    39    40    1
    24    44    45    1
    25    44    46    1
    26    44    43    1
    27    40    43    1
    28    40    41    1
    29   138   136   ar
    30   138   139   ar
    31   136   134   ar
    32    41    42    2
    33    41    47   am
    34    16    14   ar
    35   139   137   ar
    36    15    14   ar
    37   134   133    1
    38   134   135   ar
    39   133   130    1
    40    14    13    1
    41    53    47    1
    42    53    52    1
    43    47    48    1
    44   137   135   ar
    45   132   131    2
    46   121   120    2
    47    13    12    1
    48   130   131    1
    49   130   129    1
    50    12     9    1
    51    52    51    1
    52   125   124    1
    53   125   126    2
    54   124   123    1
    55    48    49    1
    56    48    51    1
    57   122   123    1
    58   122   119    1
    59   120   119    1
    60   128   126    1
    61   126   127    1
    62     9     8    1
    63     9    10    1
    64   119   118    1
    65    49    50    2
    66    49    54   am
    67    60    54    1
    68    60    59    1
    69   108   107   ar
    70    54    55    1
    71    59    58    1
    72   106   107    1
    73   106   103    1
    74    55    58    1
    75    55    56    1
    76   107   109   ar
    77    11    10    2
    78   105   104    2
    79   104   103    1
    80    68    66    1
    81    67    65    1
    82   103   102    1
    83    56    61   am
    84    56    57    2
    85    61    62    1
    86    66    65    1
    87    92    91    2
    88     5     6    1
    89     5     7    1
    90     5     2    1
    91     3     4    2
    92     3     2    1
    93    65    62    1
    94   113   112    2
    95    62    63    1
    96     2     1    1
    97    91    93   am
    98    91    90    1
    99   112   111    1
   100    74    73    1
   101    97    96    2
   102   114   115    1
   103   114   111    1
   104   117   115    1
   105   116   115    1
   106    69    63   am
   107    69    70    1
   108    72    71    2
   109    63    64    2
   110    90    87    1
   111   111   110    1
   112    87    88    1
   113    87    86    1
   114    94    95    1
   115    94    88   am
   116    98    99    1
   117    98    95    1
   118    79    78    2
   119    96    95    1
   120    73    70    1
   121    73    75    1
   122    70    71    1
   123    99   100    1
   124    88    89    2
   125    86    78   am
   126    78    77    1
   127    76    77    1
   128    77    80    1
   129   100   101    1
   130    80    81    1
   131    81    82   ar
   132    81    83   ar
   133    82    84   ar
   134    83    85   ar
   135    84    85   ar
