@<TRIPOS>MOLECULE
tmp/3rszB00.pdb
 151 149 0 0 0
SMALL
GASTEIGER

@<TRIPOS>ATOM
      1  N         36.9540   55.0640   54.9700 N.3    85  ARG85      -0.1245
      2  CA        37.6170   56.1120   54.2050 C.3    85  ARG85       0.1563
      3  C         37.2600   56.0630   52.7220 C.2    85  ARG85       0.2260
      4  O         37.7760   56.8520   51.9250 O.2    85  ARG85      -0.2867
      5  CB        39.1340   56.0390   54.3980 C.3    85  ARG85       0.0307
      6  CG        39.5590   55.5100   55.7620 C.3    85  ARG85       0.0489
      7  CD        40.1640   56.5880   56.6590 C.3    85  ARG85       0.2205
      8  NE        41.6170   56.6570   56.5370 N.pl3  85  ARG85      -0.0865
      9  CZ        42.2570   57.3480   55.5960 C.cat  85  ARG85       0.5346
     10  NH1       41.5750   58.0380   54.6810 N.pl3  85  ARG85       0.1354
     11  NH2       43.5830   57.3440   55.5690 N.pl3  85  ARG85       0.1354
     12  N         41.9100   59.6200   44.7270 N.3   113  TYR113     -0.1241
     13  CA        43.2690   59.7390   45.2470 C.3   113  TYR113      0.1605
     14  C         44.3460   59.5430   44.1540 C.2   113  TYR113      0.2264
     15  O         45.5340   59.4660   44.4490 O.2   113  TYR113     -0.2867
     16  CB        43.5080   58.7010   46.3490 C.3   113  TYR113      0.0534
     17  CG        42.7800   58.8850   47.6700 C.ar  113  TYR113     -0.0201
     18  CD1       41.4430   58.5360   47.8120 C.ar  113  TYR113     -0.0009
     19  CD2       43.4620   59.3400   48.8040 C.ar  113  TYR113     -0.0009
     20  CE1       40.7880   58.6720   49.0360 C.ar  113  TYR113      0.0417
     21  CE2       42.8210   59.4790   50.0320 C.ar  113  TYR113      0.0417
     22  CZ        41.4820   59.1440   50.1440 C.ar  113  TYR113      0.1957
     23  OH        40.8420   59.2850   51.3650 O.3   113  TYR113     -0.2866
     24  N         46.9330   62.8260   43.7290 N.3   116  GLU116     -0.1231
     25  CA        47.6780   62.9730   44.9700 C.3   116  GLU116      0.1699
     26  C         48.7890   61.9290   45.0090 C.2   116  GLU116      0.2592
     27  O         49.7980   62.1160   45.6990 O.2   116  GLU116     -0.2718
     28  CB        46.7830   62.8440   46.2180 C.3   116  GLU116      0.0402
     29  CG        47.5610   63.0380   47.5310 C.3   116  GLU116      0.1161
     30  CD        46.7380   62.7680   48.7970 C.2   116  GLU116      0.3649
     31  OE1       47.3440   62.5780   49.8810 O.co2 116  GLU116     -0.2457
     32  OE2       45.4910   62.7510   48.7140 O.co2 116  GLU116     -0.2457
     33  N         48.6030   60.8450   44.2440 N.am  117  TRP117     -0.1976
     34  CA        49.4440   59.6440   44.3420 C.3   117  TRP117      0.1640
     35  C         50.5180   59.5440   43.2670 C.2   117  TRP117      0.2290
     36  O         51.6770   59.2560   43.5660 O.2   117  TRP117     -0.2864
     37  CB        48.5890   58.3740   44.3580 C.3   117  TRP117      0.0576
     38  CG        47.9550   58.0650   45.6920 C.ar  117  TRP117      0.0006
     39  CD1       48.2160   58.6630   46.9010 C.ar  117  TRP117      0.0946
     40  CD2       46.9430   57.0870   45.9440 C.ar  117  TRP117      0.0152
     41  NE1       47.4320   58.1030   47.8860 N.ar  117  TRP117     -0.2442
     42  CE2       46.6450   57.1340   47.3220 C.ar  117  TRP117      0.0810
     43  CE3       46.2580   56.1740   45.1340 C.ar  117  TRP117      0.0012
     44  CZ2       45.7000   56.3030   47.9030 C.ar  117  TRP117      0.0191
     45  CZ3       45.3230   55.3510   45.7150 C.ar  117  TRP117      0.0001
     46  CH2       45.0530   55.4180   47.0860 C.ar  117  TRP117      0.0015
     47  N         52.8980   61.8060   44.8920 N.3   120  ASP120     -0.1239
     48  CA        53.5880   61.3030   46.0820 C.3   120  ASP120      0.1674
     49  C         54.5750   60.1990   45.7460 C.2   120  ASP120      0.2266
     50  O         55.4840   59.9250   46.5270 O.2   120  ASP120     -0.2867
     51  CB        52.6100   60.8000   47.1430 C.3   120  ASP120      0.1410
     52  CG        53.3090   60.3940   48.4390 C.2   120  ASP120      0.3668
     53  OD1       53.3460   61.2230   49.3740 O.co2 120  ASP120     -0.2456
     54  OD2       53.8210   59.2520   48.5270 O.co2 120  ASP120     -0.2456
     55  N         49.3500   51.9310   46.1720 N.3   144  TYR144     -0.1241
     56  CA        49.0160   52.7770   47.3030 C.3   144  TYR144      0.1605
     57  C         47.9720   52.1580   48.2200 C.2   144  TYR144      0.2264
     58  O         48.0550   52.2800   49.4490 O.2   144  TYR144     -0.2867
     59  CB        48.5900   54.1610   46.8290 C.3   144  TYR144      0.0534
     60  CG        49.7810   55.0500   46.6020 C.ar  144  TYR144     -0.0201
     61  CD1       50.4210   55.6590   47.6750 C.ar  144  TYR144     -0.0009
     62  CD2       50.2920   55.2550   45.3300 C.ar  144  TYR144     -0.0009
     63  CE1       51.5270   56.4600   47.4860 C.ar  144  TYR144      0.0417
     64  CE2       51.3960   56.0560   45.1330 C.ar  144  TYR144      0.0417
     65  CZ        52.0140   56.6540   46.2150 C.ar  144  TYR144      0.1957
     66  OH        53.1170   57.4570   46.0370 O.3   144  TYR144     -0.2866
     67  N         49.6180   49.2130   50.3090 N.3   147  ALA147     -0.1231
     68  CA        50.5820   49.6780   51.2980 C.3   147  ALA147      0.1694
     69  C         49.7910   50.2330   52.4690 C.2   147  ALA147      0.2592
     70  O         50.0880   49.9690   53.6420 O.2   147  ALA147     -0.2718
     71  CB        51.4800   50.7430   50.6980 C.3   147  ALA147      0.0304
     72  N         48.7730   51.0070   52.1100 N.am  148  TRP148     -0.1976
     73  CA        47.7450   51.4650   53.0210 C.3   148  TRP148      0.1640
     74  C         47.2260   50.2990   53.8670 C.2   148  TRP148      0.2290
     75  O         47.3850   50.2770   55.0910 O.2   148  TRP148     -0.2864
     76  CB        46.6270   52.0710   52.1790 C.3   148  TRP148      0.0576
     77  CG        45.4910   52.7220   52.9200 C.ar  148  TRP148      0.0006
     78  CD1       45.1790   52.6000   54.2450 C.ar  148  TRP148      0.0946
     79  CD2       44.5130   53.6040   52.3560 C.ar  148  TRP148      0.0152
     80  NE1       44.0640   53.3510   54.5350 N.ar  148  TRP148     -0.2442
     81  CE2       43.6390   53.9760   53.3910 C.ar  148  TRP148      0.0810
     82  CE3       44.2980   54.1150   51.0720 C.ar  148  TRP148      0.0012
     83  CZ2       42.5720   54.8380   53.1850 C.ar  148  TRP148      0.0191
     84  CZ3       43.2370   54.9660   50.8670 C.ar  148  TRP148      0.0001
     85  CH2       42.3850   55.3210   51.9170 C.ar  148  TRP148      0.0015
     86  N         49.8400   48.8920   56.0540 N.3   151  GLY151     -0.1210
     87  CA        50.0740   49.8560   57.1130 C.3   151  GLY151      0.1956
     88  C         49.1400   49.5870   58.2720 C.2   151  GLY151      0.2611
     89  O         49.5960   49.2820   59.3780 O.2   151  GLY151     -0.2717
     90  N         47.8370   49.6750   57.9990 N.am  152  GLU152     -0.1979
     91  CA        46.8040   49.4190   59.0030 C.3   152  GLU152      0.1602
     92  C         47.0090   48.1290   59.7720 C.2   152  GLU152      0.2287
     93  O         47.0080   48.1300   61.0050 O.2   152  GLU152     -0.2864
     94  CB        45.4200   49.3940   58.3720 C.3   152  GLU152      0.0415
     95  CG        44.9220   50.7530   57.9010 C.3   152  GLU152      0.1163
     96  CD        44.6730   51.7490   59.0360 C.2   152  GLU152      0.3649
     97  OE1       44.5280   51.3290   60.2180 O.co2 152  GLU152     -0.2457
     98  OE2       44.6190   52.9610   58.7160 O.co2 152  GLU152     -0.2457
     99  N         49.6740   46.3150   60.0660 N.3   154  ALA154     -0.1231
    100  CA        50.9420   46.4060   60.7980 C.3   154  ALA154      0.1694
    101  C         50.7180   47.1290   62.1120 C.2   154  ALA154      0.2592
    102  O         51.3260   46.8030   63.1420 O.2   154  ALA154     -0.2718
    103  CB        51.9830   47.1470   59.9650 C.3   154  ALA154      0.0304
    104  N         49.8310   48.1180   62.0390 N.am  155  HIS155     -0.1976
    105  CA        49.4300   48.9360   63.1680 C.3   155  HIS155      0.1656
    106  C         48.5840   48.1560   64.1770 C.2   155  HIS155      0.2291
    107  O         48.9730   48.0040   65.3340 O.2   155  HIS155     -0.2864
    108  CB        48.6580   50.1510   62.6610 C.3   155  HIS155      0.0771
    109  CG        48.2710   51.1090   63.7390 C.ar  155  HIS155      0.0820
    110  ND1       46.9820   51.5640   63.8990 N.ar  155  HIS155     -0.2267
    111  CD2       49.0020   51.6890   64.7200 C.ar  155  HIS155      0.1154
    112  CE1       46.9330   52.3880   64.9300 C.ar  155  HIS155      0.1986
    113  NE2       48.1460   52.4800   65.4460 N.ar  155  HIS155     -0.2212
    114  N         58.1660   54.2300   54.3000 N.3   181  ARG181     -0.1231
    115  CA        57.3410   54.5330   55.4600 C.3   181  ARG181      0.1694
    116  C         57.6690   53.6400   56.6630 C.2   181  ARG181      0.2592
    117  O         56.8710   53.5230   57.5950 O.2   181  ARG181     -0.2718
    118  CB        55.8630   54.3720   55.0950 C.3   181  ARG181      0.0321
    119  CG        55.3950   55.2190   53.9100 C.3   181  ARG181      0.0489
    120  CD        53.9040   54.9870   53.6310 C.3   181  ARG181      0.2205
    121  NE        53.4330   55.6380   52.4060 N.pl3 181  ARG181     -0.0865
    122  CZ        52.2960   55.3200   51.7890 C.cat 181  ARG181      0.5346
    123  NH1       51.5190   54.3600   52.2830 N.pl3 181  ARG181      0.1354
    124  NH2       51.9360   55.9540   50.6790 N.pl3 181  ARG181      0.1354
    125  N         58.8420   53.0170   56.6430 N.am  182  ARG182     -0.1966
    126  CA        59.2580   52.0790   57.6940 C.3   182  ARG182      0.1729
    127  C         58.1220   51.2200   58.2810 C.2   182  ARG182      0.2616
    128  O         58.1170   50.9350   59.4810 O.2   182  ARG182     -0.2715
    129  CB        60.0020   52.8060   58.8240 C.3   182  ARG182      0.0348
    130  CG        61.3190   52.1510   59.2600 C.3   182  ARG182      0.0492
    131  CD        62.4630   52.5520   58.3410 C.3   182  ARG182      0.2205
    132  NE        62.2480   53.8890   57.7890 N.pl3 182  ARG182     -0.0865
    133  CZ        63.2030   54.7970   57.6000 C.cat 182  ARG182      0.5346
    134  NH1       64.4670   54.5290   57.9220 N.pl3 182  ARG182      0.1354
    135  NH2       62.8930   55.9830   57.0860 N.pl3 182  ARG182      0.1354
    136  N         57.1810   50.8030   57.4320 N.am  183  ILE183     -0.1963
    137  CA        56.0760   49.9190   57.8280 C.3   183  ILE183      0.1727
    138  C         56.6040   48.5840   58.3500 C.2   183  ILE183      0.2616
    139  O         57.5570   48.0470   57.7960 O.2   183  ILE183     -0.2715
    140  CB        55.1650   49.6230   56.6240 C.3   183  ILE183      0.0290
    141  CG1       54.5470   50.9100   56.0800 C.3   183  ILE183      0.0022
    142  CG2       54.0930   48.6310   56.9930 C.3   183  ILE183      0.0023
    143  CD1       53.5310   50.6720   54.9930 C.3   183  ILE183      0.0001
    144  N         55.9910   48.0330   59.3980 N.am  184  ASP184     -0.1971
    145  CA        56.5430   46.8110   59.9970 C.3   184  ASP184      0.1709
    146  C         56.0880   45.4680   59.3720 C.2   184  ASP184      0.2293
    147  O         55.6590   44.5340   60.0680 O.2   184  ASP184     -0.2864
    148  CB        56.4100   46.8070   61.5230 C.3   184  ASP184      0.1436
    149  CG        57.4120   45.8740   62.1800 C.2   184  ASP184      0.3671
    150  OD1       58.3810   45.4770   61.4890 O.co2 184  ASP184     -0.2456
    151  OD2       57.2450   45.5380   63.3740 O.co2 184  ASP184     -0.2456
@<TRIPOS>BOND
     1    35    36    2
     2    35    34    1
     3    24    25    1
     4    14    15    2
     5    14    13    1
     6    33    34    1
     7    33    26   am
     8    34    37    1
     9    37    38    1
    10    12    13    1
    11    47    48    1
    12    25    26    1
    13    25    28    1
    14    26    27    2
    15    64    62   ar
    16    64    65   ar
    17    43    45   ar
    18    43    40   ar
    19    13    16    1
    20    62    60   ar
    21    38    40   ar
    22    38    39   ar
    23    45    46   ar
    24    49    48    1
    25    49    50    2
    26    40    42   ar
    27    66    65    1
    28    48    51    1
    29    55    56    1
    30    65    63   ar
    31    28    29    1
    32    16    17    1
    33    60    59    1
    34    60    61   ar
    35    59    56    1
    36    39    41   ar
    37    46    44   ar
    38    51    52    1
    39    56    57    1
    40    42    41   ar
    41    42    44   ar
    42    63    61   ar
    43    29    30    1
    44    17    18   ar
    45    17    19   ar
    46    18    20   ar
    47    57    58    2
    48    52    54   ar
    49    52    53   ar
    50    32    30   ar
    51    30    31   ar
    52    19    21   ar
    53    20    22   ar
    54    21    22   ar
    55    22    23    1
    56    67    68    1
    57   124   122    1
    58    71    68    1
    59    84    82   ar
    60    84    85   ar
    61    82    79   ar
    62    68    69    1
    63   122   123    1
    64   122   121    2
    65    85    83   ar
    66     4     3    2
    67    72    69   am
    68    72    73    1
    69    76    77    1
    70    76    73    1
    71    79    77   ar
    72    79    81   ar
    73   121   120    1
    74    69    70    2
    75     3     2    1
    76    77    78   ar
    77    73    74    1
    78    83    81   ar
    79    81    80   ar
    80   120   119    1
    81    74    75    2
    82   119   118    1
    83     2     5    1
    84     2     1    1
    85    78    80   ar
    86   114   115    1
    87     5     6    1
    88    10     9    1
    89   143   141    1
    90   118   115    1
    91   115   116    1
    92    11     9    1
    93     9     8    2
    94     6     7    1
    95    86    87    1
    96   141   140    1
    97     8     7    1
    98   140   142    1
    99   140   137    1
   100   125   116   am
   101   125   126    1
   102   116   117    2
   103   135   133    1
   104    87    88    1
   105   136   137    1
   106   136   127   am
   107   133   132    2
   108   133   134    1
   109   126   127    1
   110   126   129    1
   111   132   131    1
   112   139   138    2
   113   137   138    1
   114    95    94    1
   115    95    96    1
   116    90    88   am
   117    90    91    1
   118    88    89    2
   119   127   128    2
   120   131   130    1
   121   138   144   am
   122    94    91    1
   123    98    96   ar
   124   129   130    1
   125    91    92    1
   126    96    97   ar
   127   146   145    1
   128   146   147    2
   129   144   145    1
   130    92    93    2
   131   103   100    1
   132   145   148    1
   133    99   100    1
   134   100   101    1
   135   150   149   ar
   136   148   149    1
   137   104   101   am
   138   104   105    1
   139   101   102    2
   140   149   151   ar
   141   108   105    1
   142   108   109    1
   143   105   106    1
   144   109   110   ar
   145   109   111   ar
   146   110   112   ar
   147   106   107    2
   148   111   113   ar
   149   112   113   ar
