@<TRIPOS>MOLECULE
tmp/3rt1C02.pdb
 128 124 0 0 0
SMALL
GASTEIGER

@<TRIPOS>ATOM
      1  N         88.4540   79.5750  145.6120 N.3    85  ARG85      -0.1245
      2  CA        89.6180   78.7200  145.8310 C.3    85  ARG85       0.1563
      3  C         90.1310   78.1390  144.5090 C.2    85  ARG85       0.2260
      4  O         91.0640   77.3360  144.4940 O.2    85  ARG85      -0.2867
      5  CB        89.2830   77.5930  146.8210 C.3    85  ARG85       0.0307
      6  CG        89.2730   78.0020  148.2990 C.3    85  ARG85       0.0489
      7  CD        90.6450   77.8190  148.9310 C.3    85  ARG85       0.2205
      8  NE        90.6880   78.2650  150.3220 N.pl3  85  ARG85      -0.0865
      9  CZ        91.7990   78.3350  151.0540 C.cat  85  ARG85       0.5346
     10  NH1       92.9690   77.9890  150.5290 N.pl3  85  ARG85       0.1354
     11  NH2       91.7420   78.7540  152.3110 N.pl3  85  ARG85       0.1354
     12  N         99.3550   66.2980  145.1740 N.3   116  GLU116     -0.1231
     13  CA        99.1180   66.3150  146.6050 C.3   116  GLU116      0.1699
     14  C         98.1180   65.2380  147.0150 C.2   116  GLU116      0.2592
     15  O         98.2180   64.6700  148.1060 O.2   116  GLU116     -0.2718
     16  CB        98.6000   67.6950  147.0040 C.3   116  GLU116      0.0402
     17  CG        98.4550   67.9200  148.4900 C.3   116  GLU116      0.1161
     18  CD        97.7600   69.2280  148.7880 C.2   116  GLU116      0.3649
     19  OE1       97.1480   69.3470  149.8710 O.co2 116  GLU116     -0.2457
     20  OE2       97.8140   70.1340  147.9270 O.co2 116  GLU116     -0.2457
     21  N         97.1690   64.9490  146.1270 N.am  117  TRP117     -0.1976
     22  CA        96.0330   64.0910  146.4660 C.3   117  TRP117      0.1640
     23  C         96.2560   62.5810  146.2860 C.2   117  TRP117      0.2290
     24  O         95.8870   61.7980  147.1610 O.2   117  TRP117     -0.2864
     25  CB        94.7600   64.5650  145.7480 C.3   117  TRP117      0.0576
     26  CG        94.2490   65.8930  146.2630 C.ar  117  TRP117      0.0006
     27  CD1       94.6860   66.5610  147.3700 C.ar  117  TRP117      0.0946
     28  CD2       93.1870   66.6880  145.7100 C.ar  117  TRP117      0.0152
     29  NE1       93.9770   67.7280  147.5310 N.ar  117  TRP117     -0.2442
     30  CE2       93.0500   67.8280  146.5290 C.ar  117  TRP117      0.0810
     31  CE3       92.3450   66.5490  144.6010 C.ar  117  TRP117      0.0012
     32  CZ2       92.1090   68.8220  146.2750 C.ar  117  TRP117      0.0191
     33  CZ3       91.4100   67.5350  144.3530 C.ar  117  TRP117      0.0001
     34  CH2       91.3010   68.6570  145.1860 C.ar  117  TRP117      0.0015
     35  N         98.3040   61.9160  149.3140 N.3   120  ASP120     -0.1239
     36  CA        97.5970   61.9470  150.5950 C.3   120  ASP120      0.1674
     37  C         96.7400   60.6910  150.7090 C.2   120  ASP120      0.2266
     38  O         96.5060   60.1790  151.8040 O.2   120  ASP120     -0.2867
     39  CB        96.7280   63.2070  150.7200 C.3   120  ASP120      0.1410
     40  CG        96.0150   63.3060  152.0700 C.2   120  ASP120      0.3668
     41  OD1       96.6810   63.1540  153.1200 O.co2 120  ASP120     -0.2456
     42  OD2       94.7870   63.5480  152.0810 O.co2 120  ASP120     -0.2456
     43  N         97.0910   57.8470  153.9060 N.3   124  LEU124     -0.1245
     44  CA        95.8820   58.0030  154.7220 C.3   124  LEU124      0.1561
     45  C         95.0040   56.7540  154.7270 C.2   124  LEU124      0.2260
     46  O         94.3800   56.4300  155.7360 O.2   124  LEU124     -0.2867
     47  CB        95.0390   59.1940  154.2510 C.3   124  LEU124      0.0270
     48  CG        95.4060   60.6130  154.6930 C.3   124  LEU124      0.0019
     49  CD1       94.2310   61.5510  154.4380 C.3   124  LEU124      0.0001
     50  CD2       95.7970   60.6490  156.1570 C.3   124  LEU124      0.0001
     51  N         87.9520   63.9880  146.1170 N.3   144  TYR144     -0.1241
     52  CA        88.6010   65.0260  146.9180 C.3   144  TYR144      0.1605
     53  C         87.9210   66.3810  146.7650 C.2   144  TYR144      0.2264
     54  O         87.9620   67.2070  147.6750 O.2   144  TYR144     -0.2867
     55  CB        90.0870   65.1410  146.5750 C.3   144  TYR144      0.0534
     56  CG        90.9840   64.3250  147.4750 C.ar  144  TYR144     -0.0201
     57  CD1       91.3940   64.8190  148.7100 C.ar  144  TYR144     -0.0009
     58  CD2       91.4190   63.0630  147.0950 C.ar  144  TYR144     -0.0009
     59  CE1       92.2160   64.0750  149.5430 C.ar  144  TYR144      0.0417
     60  CE2       92.2390   62.3110  147.9190 C.ar  144  TYR144      0.0417
     61  CZ        92.6340   62.8200  149.1420 C.ar  144  TYR144      0.1957
     62  OH        93.4510   62.0740  149.9640 O.3   144  TYR144     -0.2866
     63  N         84.5970   65.6890  148.9110 N.3   147  ALA147     -0.1231
     64  CA        84.9240   65.8030  150.3270 C.3   147  ALA147      0.1694
     65  C         85.1880   67.2620  150.7000 C.2   147  ALA147      0.2592
     66  O         84.7440   67.7360  151.7460 O.2   147  ALA147     -0.2718
     67  CB        86.1230   64.9430  150.6640 C.3   147  ALA147      0.0304
     68  N         85.9150   67.9650  149.8340 N.am  148  TRP148     -0.1976
     69  CA        86.1910   69.3910  150.0040 C.3   148  TRP148      0.1640
     70  C         84.8790   70.1610  150.1320 C.2   148  TRP148      0.2290
     71  O         84.7470   71.0620  150.9640 O.2   148  TRP148     -0.2864
     72  CB        86.9830   69.9050  148.7930 C.3   148  TRP148      0.0576
     73  CG        87.4810   71.3460  148.8630 C.ar  148  TRP148      0.0006
     74  CD1       87.0350   72.3430  149.6910 C.ar  148  TRP148      0.0946
     75  CD2       88.4910   71.9420  148.0320 C.ar  148  TRP148      0.0152
     76  NE1       87.7210   73.5100  149.4400 N.ar  148  TRP148     -0.2442
     77  CE2       88.6170   73.2910  148.4260 C.ar  148  TRP148      0.0810
     78  CE3       89.3080   71.4610  146.9990 C.ar  148  TRP148      0.0012
     79  CZ2       89.5250   74.1630  147.8240 C.ar  148  TRP148      0.0191
     80  CZ3       90.2080   72.3280  146.4020 C.ar  148  TRP148      0.0001
     81  CH2       90.3100   73.6640  146.8160 C.ar  148  TRP148      0.0015
     82  N         82.6880   69.3680  153.2110 N.3   151  GLY151     -0.1210
     83  CA        83.3570   69.9000  154.3820 C.3   151  GLY151      0.1956
     84  C         82.9620   71.3410  154.6310 C.2   151  GLY151      0.2611
     85  O         82.8300   71.7700  155.7800 O.2   151  GLY151     -0.2717
     86  N         82.7740   72.0870  153.5450 N.am  152  GLU152     -0.1979
     87  CA        82.3600   73.4840  153.6240 C.3   152  GLU152      0.1602
     88  C         80.8680   73.6000  153.9170 C.2   152  GLU152      0.2287
     89  O         80.4370   74.4940  154.6440 O.2   152  GLU152     -0.2864
     90  CB        82.7090   74.2360  152.3320 C.3   152  GLU152      0.0415
     91  CG        84.1970   74.5330  152.1420 C.3   152  GLU152      0.1163
     92  CD        84.7300   75.6080  153.0870 C.2   152  GLU152      0.3649
     93  OE1       84.0230   75.9830  154.0510 O.co2 152  GLU152     -0.2457
     94  OE2       85.8670   76.0770  152.8620 O.co2 152  GLU152     -0.2457
     95  N         79.3010   71.5220  155.6620 N.3   154  ALA154     -0.1231
     96  CA        79.2420   71.1870  157.0820 C.3   154  ALA154      0.1694
     97  C         79.6760   72.3640  157.9570 C.2   154  ALA154      0.2592
     98  O         79.1960   72.5230  159.0810 O.2   154  ALA154     -0.2718
     99  CB        80.0970   69.9570  157.3800 C.3   154  ALA154      0.0304
    100  N         80.5800   73.1870  157.4290 N.am  155  HIS155     -0.1976
    101  CA        81.1640   74.2970  158.1850 C.3   155  HIS155      0.1656
    102  C         80.2970   75.5610  158.1800 C.2   155  HIS155      0.2291
    103  O         80.3230   76.3400  159.1350 O.2   155  HIS155     -0.2864
    104  CB        82.5780   74.6060  157.6650 C.3   155  HIS155      0.0771
    105  CG        83.2260   75.7900  158.3170 C.ar  155  HIS155      0.0820
    106  ND1       83.8940   76.7600  157.6000 N.ar  155  HIS155     -0.2267
    107  CD2       83.3050   76.1620  159.6180 C.ar  155  HIS155      0.1154
    108  CE1       84.3590   77.6770  158.4310 C.ar  155  HIS155      0.1986
    109  NE2       84.0150   77.3380  159.6610 N.ar  155  HIS155     -0.2212
    110  N         88.2700   62.3310  158.2570 N.3   181  ARG181     -0.1245
    111  CA        88.2500   63.7570  158.5580 C.3   181  ARG181      0.1563
    112  C         87.0770   64.0810  159.4680 C.2   181  ARG181      0.2260
    113  O         86.8780   65.2320  159.8540 O.2   181  ARG181     -0.2867
    114  CB        88.1280   64.5760  157.2720 C.3   181  ARG181      0.0307
    115  CG        89.2870   64.4240  156.3050 C.3   181  ARG181      0.0489
    116  CD        88.9960   65.1590  155.0120 C.3   181  ARG181      0.2205
    117  NE        90.1110   65.0800  154.0810 N.pl3 181  ARG181     -0.0865
    118  CZ        90.0530   65.4960  152.8240 C.cat 181  ARG181      0.5346
    119  NH1       88.9260   66.0140  152.3520 N.pl3 181  ARG181      0.1354
    120  NH2       91.1180   65.3910  152.0390 N.pl3 181  ARG181      0.1354
    121  N         84.1530   64.6920  158.8550 N.3   183  ILE183     -0.1245
    122  CA        83.2710   65.7270  158.3350 C.3   183  ILE183      0.1561
    123  C         81.8850   65.4370  158.8800 C.2   183  ILE183      0.2260
    124  O         81.4340   64.2920  158.8220 O.2   183  ILE183     -0.2867
    125  CB        83.1940   65.6720  156.8050 C.3   183  ILE183      0.0252
    126  CG1       84.5920   65.5540  156.2020 C.3   183  ILE183      0.0019
    127  CG2       82.4760   66.8920  156.2700 C.3   183  ILE183      0.0019
    128  CD1       84.5870   65.1630  154.7560 C.3   183  ILE183      0.0001
@<TRIPOS>BOND
     1    33    31   ar
     2    33    34   ar
     3     4     3    2
     4     3     2    1
     5    31    28   ar
     6    12    13    1
     7    34    32   ar
     8     1     2    1
     9    28    26   ar
    10    28    30   ar
    11    25    26    1
    12    25    22    1
    13     2     5    1
    14    51    52    1
    15    21    22    1
    16    21    14   am
    17    26    27   ar
    18    32    30   ar
    19    23    22    1
    20    23    24    2
    21    80    81   ar
    22    80    78   ar
    23    30    29   ar
    24    55    52    1
    25    55    56    1
    26    13    16    1
    27    13    14    1
    28    53    52    1
    29    53    54    2
    30    81    79   ar
    31     5     6    1
    32    78    75   ar
    33    16    17    1
    34    14    15    2
    35    58    56   ar
    36    58    60   ar
    37    27    29   ar
    38    56    57   ar
    39    79    77   ar
    40    60    61   ar
    41    20    18   ar
    42    75    77   ar
    43    75    73   ar
    44     6     7    1
    45    77    76   ar
    46    17    18    1
    47    57    59   ar
    48    18    19   ar
    49    72    73    1
    50    72    69    1
    51    73    74   ar
    52    63    64    1
    53     7     8    1
    54    61    59   ar
    55    61    62    1
    56    35    36    1
    57    76    74   ar
    58    68    69    1
    59    68    65   am
    60    69    70    1
    61    70    71    2
    62     8     9    2
    63    64    67    1
    64    64    65    1
    65    10     9    1
    66    36    37    1
    67    36    39    1
    68    65    66    2
    69    37    38    2
    70    39    40    1
    71     9    11    1
    72   120   118    1
    73    40    42   ar
    74    40    41   ar
    75    91    90    1
    76    91    92    1
    77    90    87    1
    78   119   118    1
    79   118   117    2
    80    94    92   ar
    81    92    93   ar
    82    82    83    1
    83    86    87    1
    84    86    84   am
    85    87    88    1
    86    43    44    1
    87    88    89    2
    88   117   116    1
    89    47    48    1
    90    47    44    1
    91    83    84    1
    92    49    48    1
    93    84    85    2
    94    48    50    1
    95    44    45    1
    96    45    46    2
    97   128   126    1
    98   116   115    1
    99    95    96    1
   100   126   125    1
   101   127   125    1
   102   115   114    1
   103   125   122    1
   104    96    99    1
   105    96    97    1
   106   114   111    1
   107   100    97   am
   108   100   101    1
   109   106   105   ar
   110   106   108   ar
   111   104   101    1
   112   104   105    1
   113    97    98    2
   114   102   101    1
   115   102   103    2
   116   110   111    1
   117   105   107   ar
   118   122   121    1
   119   122   123    1
   120   108   109   ar
   121   111   112    1
   122   124   123    2
   123   112   113    2
   124   107   109   ar
