@<TRIPOS>MOLECULE
tmp/3rt1B02.pdb
 155 151 0 0 0
SMALL
GASTEIGER

@<TRIPOS>ATOM
      1  N         68.8110   32.9360   68.2530 N.3    15  GLU15      -0.1245
      2  CA        68.0440   33.6010   69.3000 C.3    15  GLU15       0.1567
      3  C         66.5440   33.4580   69.0630 C.2    15  GLU15       0.2260
      4  O         65.8030   34.4400   69.1070 O.2    15  GLU15      -0.2867
      5  CB        68.4240   35.0810   69.3850 C.3    15  GLU15       0.0388
      6  CG        69.9220   35.3340   69.4400 C.3    15  GLU15       0.1160
      7  CD        70.5330   35.5170   68.0650 C.2    15  GLU15       0.3649
      8  OE1       71.7390   35.8310   67.9860 O.co2  15  GLU15      -0.2457
      9  OE2       69.8070   35.3470   67.0630 O.co2  15  GLU15      -0.2457
     10  N         70.3720   37.4890   72.4160 N.3    21  GLY21      -0.1210
     11  CA        70.7150   38.8060   71.9020 C.3    21  GLY21       0.1956
     12  C         69.5980   39.6020   71.2470 C.2    21  GLY21       0.2612
     13  O         68.4760   39.1170   71.1040 O.2    21  GLY21      -0.2717
     14  N         69.9270   40.8270   70.8370 N.am   22  GLY22      -0.1942
     15  CA        68.9640   41.7710   70.2930 C.3    22  GLY22       0.2014
     16  C         68.0510   41.2670   69.1850 C.2    22  GLY22       0.2638
     17  O         67.0180   41.8790   68.9010 O.2    22  GLY22      -0.2714
     18  N         68.4300   40.1600   68.5510 N.am   23  ILE23      -0.1977
     19  CA        67.6180   39.5810   67.4850 C.3    23  ILE23       0.1596
     20  C         66.3970   38.8720   68.0540 C.2    23  ILE23       0.2287
     21  O         65.4030   38.6940   67.3570 O.2    23  ILE23      -0.2864
     22  CB        68.4310   38.6100   66.5960 C.3    23  ILE23       0.0276
     23  CG1       69.5410   39.3670   65.8600 C.3    23  ILE23       0.0022
     24  CG2       67.5200   37.8870   65.6050 C.3    23  ILE23       0.0022
     25  CD1       70.5550   38.4700   65.1750 C.3    23  ILE23       0.0001
     26  N         71.5120   36.4240   61.1060 N.3   168  GLU168     -0.1245
     27  CA        72.8770   36.4920   61.6530 C.3   168  GLU168      0.1567
     28  C         73.7910   35.2840   61.3490 C.2   168  GLU168      0.2260
     29  O         73.3230   34.1860   61.0530 O.2   168  GLU168     -0.2867
     30  CB        72.8560   36.8290   63.1510 C.3   168  GLU168      0.0388
     31  CG        73.9930   37.7600   63.5990 C.3   168  GLU168      0.1160
     32  CD        74.0210   39.0960   62.8420 C.2   168  GLU168      0.3649
     33  OE1       74.9300   39.9190   63.0990 O.co2 168  GLU168     -0.2457
     34  OE2       73.1350   39.3290   61.9860 O.co2 168  GLU168     -0.2457
     35  N         75.5090   33.2570   63.1150 N.3   170  LEU170     -0.1245
     36  CA        75.3850   32.0870   63.9750 C.3   170  LEU170      0.1561
     37  C         74.4070   31.0720   63.4000 C.2   170  LEU170      0.2260
     38  O         74.5660   29.8670   63.5890 O.2   170  LEU170     -0.2867
     39  CB        74.9230   32.5070   65.3630 C.3   170  LEU170      0.0270
     40  CG        75.7430   33.6470   65.9520 C.3   170  LEU170      0.0019
     41  CD1       75.0440   34.2060   67.1830 C.3   170  LEU170      0.0001
     42  CD2       77.1550   33.1650   66.2670 C.3   170  LEU170      0.0001
     43  N         72.4470   41.4910   60.5690 N.3   192  HIS192     -0.1226
     44  CA        72.0710   42.6160   61.4190 C.3   192  HIS192      0.1752
     45  C         73.2740   43.4760   61.7660 C.2   192  HIS192      0.2595
     46  O         73.1390   44.5420   62.3550 O.2   192  HIS192     -0.2718
     47  CB        71.3450   42.1290   62.6730 C.3   192  HIS192      0.0759
     48  CG        70.0590   41.4210   62.3820 C.ar  192  HIS192      0.0818
     49  ND1       68.8420   42.0680   62.3670 N.ar  192  HIS192     -0.2268
     50  CD2       69.8020   40.1280   62.0720 C.ar  192  HIS192      0.1154
     51  CE1       67.8890   41.2020   62.0710 C.ar  192  HIS192      0.1986
     52  NE2       68.4450   40.0180   61.8840 N.ar  192  HIS192     -0.2212
     53  N         74.4510   43.0070   61.3770 N.am  193  ALA193     -0.1980
     54  CA        75.6650   43.8080   61.4400 C.3   193  ALA193      0.1597
     55  C         76.7260   43.1060   60.6140 C.2   193  ALA193      0.2287
     56  O         76.4370   42.1190   59.9420 O.2   193  ALA193     -0.2864
     57  CB        76.1210   43.9560   62.8660 C.3   193  ALA193      0.0319
     58  N         81.9550   46.0650   63.4830 N.3   198  ARG198     -0.1245
     59  CA        81.9680   46.5050   64.8760 C.3   198  ARG198      0.1563
     60  C         83.3730   46.5030   65.4800 C.2   198  ARG198      0.2260
     61  O         83.7090   47.3810   66.2750 O.2   198  ARG198     -0.2867
     62  CB        80.9580   45.7400   65.7520 C.3   198  ARG198      0.0307
     63  CG        81.2420   44.2710   66.0010 C.3   198  ARG198      0.0489
     64  CD        80.4960   43.8000   67.2510 C.3   198  ARG198      0.2205
     65  NE        79.3040   44.6070   67.5030 N.pl3 198  ARG198     -0.0865
     66  CZ        78.0550   44.2180   67.2520 C.cat 198  ARG198      0.5346
     67  NH1       77.8120   43.0140   66.7510 N.pl3 198  ARG198      0.1354
     68  NH2       77.0480   45.0390   67.5110 N.pl3 198  ARG198      0.1354
     69  N         73.5670   47.8350   75.3610 N.3   319  ARG319     -0.1245
     70  CA        74.6730   47.0280   75.8740 C.3   319  ARG319      0.1563
     71  C         75.8710   47.8830   76.2690 C.2   319  ARG319      0.2260
     72  O         76.0790   48.9710   75.7250 O.2   319  ARG319     -0.2867
     73  CB        75.1020   45.9930   74.8420 C.3   319  ARG319      0.0307
     74  CG        74.8450   44.5510   75.2330 C.3   319  ARG319      0.0489
     75  CD        75.2980   43.6360   74.1050 C.3   319  ARG319      0.2205
     76  NE        76.0630   44.3880   73.1090 N.pl3 319  ARG319     -0.0865
     77  CZ        75.5770   44.7870   71.9350 C.cat 319  ARG319      0.5346
     78  NH1       74.3270   44.4870   71.5980 N.pl3 319  ARG319      0.1354
     79  NH2       76.3410   45.4780   71.0970 N.pl3 319  ARG319      0.1354
     80  N         78.9040   49.1400   75.7250 N.3   321  GLU321     -0.1245
     81  CA        79.8170   49.2940   74.6080 C.3   321  GLU321      0.1567
     82  C         80.3340   50.7220   74.6210 C.2   321  GLU321      0.2260
     83  O         79.8380   51.5800   73.8910 O.2   321  GLU321     -0.2867
     84  CB        79.1090   48.9990   73.2820 C.3   321  GLU321      0.0388
     85  CG        79.1530   47.5390   72.8490 C.3   321  GLU321      0.1160
     86  CD        79.4880   47.3900   71.3650 C.2   321  GLU321      0.3649
     87  OE1       80.6560   47.0410   71.0610 O.co2 321  GLU321     -0.2457
     88  OE2       78.6020   47.6400   70.5040 O.co2 321  GLU321     -0.2457
     89  N         78.3720   52.5490   71.3690 N.3   325  LYS325     -0.1245
     90  CA        77.0220   53.0030   71.7020 C.3   325  LYS325      0.1561
     91  C         76.9610   54.4640   72.1450 C.2   325  LYS325      0.2260
     92  O         75.8760   55.0470   72.1970 O.2   325  LYS325     -0.2867
     93  CB        76.3560   52.0870   72.7360 C.3   325  LYS325      0.0271
     94  CG        75.7850   50.8040   72.1540 C.3   325  LYS325      0.0035
     95  CD        74.8260   51.1020   71.0180 C.3   325  LYS325      0.0206
     96  CE        74.3300   49.8300   70.3550 C.3   325  LYS325      0.1093
     97  NZ        73.7250   50.1240   69.0210 N.3   325  LYS325     -0.1314
     98  N         78.5800   52.9940   66.1630 N.3   507  TYR507     -0.1227
     99  CA        78.1810   51.8100   65.4370 C.3   507  TYR507      0.1736
    100  C         76.7740   51.3690   65.8120 C.2   507  TYR507      0.2595
    101  O         76.5350   50.8730   66.9160 O.2   507  TYR507     -0.2718
    102  CB        79.1560   50.6640   65.6570 C.3   507  TYR507      0.0548
    103  CG        78.9380   49.5510   64.6650 C.ar  507  TYR507     -0.0200
    104  CD1       79.0140   49.8010   63.2980 C.ar  507  TYR507     -0.0009
    105  CD2       78.6400   48.2590   65.0850 C.ar  507  TYR507     -0.0009
    106  CE1       78.8100   48.8000   62.3750 C.ar  507  TYR507      0.0417
    107  CE2       78.4360   47.2440   64.1710 C.ar  507  TYR507      0.0417
    108  CZ        78.5220   47.5190   62.8110 C.ar  507  TYR507      0.1957
    109  OH        78.3200   46.5160   61.8820 O.3   507  TYR507     -0.2866
    110  N         75.8500   51.5380   64.8730 N.am  508  GLU508     -0.1966
    111  CA        74.4600   51.1590   65.0830 C.3   508  GLU508      0.1718
    112  C         73.7720   50.8350   63.7510 C.2   508  GLU508      0.2458
    113  O         73.1740   51.7120   63.1170 O.2   508  GLU508     -0.2730
    114  CB        73.7180   52.2750   65.8260 C.3   508  GLU508      0.0428
    115  CG        72.4970   51.8190   66.6070 C.3   508  GLU508      0.1163
    116  CD        72.0730   52.8380   67.6530 C.2   508  GLU508      0.3649
    117  OE1       72.1360   52.5030   68.8590 O.co2 508  GLU508     -0.2457
    118  OE2       71.6930   53.9760   67.2760 O.co2 508  GLU508     -0.2457
    119  N         73.8850   49.5710   63.3140 N.am  509  PRO509     -0.2716
    120  CA        73.1870   49.0730   62.1320 C.3   509  PRO509      0.1536
    121  C         71.7190   49.4810   62.1260 C.2   509  PRO509      0.2599
    122  O         71.3150   50.1770   61.2010 O.2   509  PRO509     -0.2715
    123  CB        73.3400   47.5600   62.2600 C.3   509  PRO509      0.0310
    124  CG        74.6630   47.4010   62.8990 C.3   509  PRO509      0.0237
    125  CD        74.7910   48.5530   63.8730 C.3   509  PRO509      0.0939
    126  N         70.9260   49.0780   63.1170 N.am  510  TRP510     -0.1960
    127  CA        69.5540   49.5950   63.1700 C.3   510  TRP510      0.1771
    128  C         69.3560   50.7050   64.1920 C.2   510  TRP510      0.2620
    129  O         69.2480   51.8760   63.8310 O.2   510  TRP510     -0.2715
    130  CB        68.5010   48.5090   63.3650 C.3   510  TRP510      0.0590
    131  CG        67.1300   49.1170   63.4870 C.ar  510  TRP510      0.0006
    132  CD1       66.1920   48.8380   64.4360 C.ar  510  TRP510      0.0946
    133  CD2       66.5640   50.1470   62.6590 C.ar  510  TRP510      0.0152
    134  NE1       65.0730   49.6130   64.2430 N.ar  510  TRP510     -0.2442
    135  CE2       65.2760   50.4270   63.1610 C.ar  510  TRP510      0.0810
    136  CE3       67.0180   50.8530   61.5400 C.ar  510  TRP510      0.0012
    137  CZ2       64.4330   51.3790   62.5790 C.ar  510  TRP510      0.0191
    138  CZ3       66.1830   51.7990   60.9640 C.ar  510  TRP510      0.0001
    139  CH2       64.9050   52.0500   61.4840 C.ar  510  TRP510      0.0015
    140  N         69.3010   50.3480   65.4650 N.am  511  GLY511     -0.1940
    141  CA        69.0320   51.3520   66.4770 C.3   511  GLY511      0.2014
    142  C         67.6130   51.2470   66.9960 C.2   511  GLY511      0.2638
    143  O         66.8500   52.2150   67.0240 O.2   511  GLY511     -0.2714
    144  N         67.2640   50.0310   67.3830 N.am  512  TYR512     -0.1973
    145  CA        66.0130   49.7420   68.0450 C.3   512  TYR512      0.1639
    146  C         65.7890   50.6910   69.2260 C.2   512  TYR512      0.2290
    147  O         64.6540   50.9320   69.6210 O.2   512  TYR512     -0.2864
    148  CB        66.0680   48.3000   68.5450 C.3   512  TYR512      0.0560
    149  CG        67.4690   47.9100   68.9860 C.ar  512  TYR512     -0.0198
    150  CD1       68.1390   48.6470   69.9610 C.ar  512  TYR512     -0.0009
    151  CD2       68.1340   46.8230   68.4160 C.ar  512  TYR512     -0.0009
    152  CE1       69.4250   48.3140   70.3640 C.ar  512  TYR512      0.0417
    153  CE2       69.4230   46.4810   68.8200 C.ar  512  TYR512      0.0417
    154  CZ        70.0600   47.2330   69.7950 C.ar  512  TYR512      0.1957
    155  OH        71.3300   46.9120   70.2080 O.3   512  TYR512     -0.2866
@<TRIPOS>BOND
     1    56    55    2
     2    43    44    1
     3    55    54    1
     4   138   139   ar
     5   138   136   ar
     6    29    28    2
     7    26    27    1
     8   122   121    2
     9    28    27    1
    10    53    54    1
    11    53    45   am
    12    44    45    1
    13    44    47    1
    14    54    57    1
    15   139   137   ar
    16   136   133   ar
    17    27    30    1
    18    45    46    2
    19   109   108    1
    20    52    51   ar
    21    52    50   ar
    22    34    32   ar
    23    51    49   ar
    24    50    48   ar
    25   121   120    1
    26   121   126   am
    27   120   123    1
    28   120   119    1
    29   123   124    1
    30    49    48   ar
    31   106   108   ar
    32   106   104   ar
    33    48    47    1
    34   137   135   ar
    35   133   135   ar
    36   133   131   ar
    37   108   107   ar
    38    32    33   ar
    39    32    31    1
    40   124   125    1
    41    35    36    1
    42   126   127    1
    43   113   112    2
    44    30    31    1
    45   135   134   ar
    46   127   130    1
    47   127   128    1
    48   104   103   ar
    49   119   112   am
    50   119   125    1
    51   130   131    1
    52    37    38    2
    53    37    36    1
    54    58    59    1
    55   131   132   ar
    56   112   111    1
    57   129   128    2
    58    36    39    1
    59   107   105   ar
    60   128   140   am
    61   134   132   ar
    62   103   105   ar
    63   103   102    1
    64   110   111    1
    65   110   100   am
    66    59    60    1
    67    59    62    1
    68   111   114    1
    69    25    23    1
    70    39    40    1
    71    99   102    1
    72    99   100    1
    73    99    98    1
    74   140   141    1
    75    60    61    2
    76    24    22    1
    77    62    63    1
    78   100   101    2
    79   114   115    1
    80    23    22    1
    81    40    42    1
    82    40    41    1
    83    63    64    1
    84   141   142    1
    85    22    19    1
    86   115   116    1
    87    67    66    1
    88   142   143    2
    89   142   144   am
    90     9     7   ar
    91    64    65    1
    92    66    65    2
    93    66    68    1
    94   118   116   ar
    95    21    20    2
    96   144   145    1
    97    19    20    1
    98    19    18    1
    99   116   117   ar
   100     8     7   ar
   101   145   148    1
   102   145   146    1
   103     7     6    1
   104     1     2    1
   105   151   153   ar
   106   151   149   ar
   107   148   149    1
   108    18    16   am
   109   153   154   ar
   110    17    16    2
   111   149   150   ar
   112    97    96    1
   113     3     4    2
   114     3     2    1
   115    16    15    1
   116   146   147    2
   117     2     5    1
   118     5     6    1
   119   154   155    1
   120   154   152   ar
   121   150   152   ar
   122    15    14    1
   123    96    95    1
   124    88    86   ar
   125    14    12   am
   126    95    94    1
   127    87    86   ar
   128    79    77    1
   129    13    12    2
   130    12    11    1
   131    86    85    1
   132    89    90    1
   133    78    77    1
   134    90    91    1
   135    90    93    1
   136    11    10    1
   137    77    76    2
   138    91    92    2
   139    94    93    1
   140    85    84    1
   141    76    75    1
   142    84    81    1
   143    83    82    2
   144    75    74    1
   145    81    82    1
   146    81    80    1
   147    73    74    1
   148    73    70    1
   149    69    70    1
   150    72    71    2
   151    70    71    1
