@<TRIPOS>MOLECULE
tmp/3rt1A01.pdb
 222 216 0 0 0
SMALL
GASTEIGER

@<TRIPOS>ATOM
      1  N          3.2800   82.2190   74.3270 N.3   204  GLY204     -0.1210
      2  CA         3.8350   81.0880   73.6080 C.3   204  GLY204      0.1956
      3  C          2.9010   80.5880   72.5290 C.2   204  GLY204      0.2613
      4  O          3.1680   79.5690   71.8920 O.2   204  GLY204     -0.2717
      5  N          1.8000   81.3060   72.3330 N.am  205  SER205     -0.1938
      6  CA         0.8440   80.9820   71.2840 C.3   205  SER205      0.2055
      7  C          1.1090   81.8160   70.0250 C.2   205  SER205      0.2643
      8  O          0.6430   81.4830   68.9380 O.2   205  SER205     -0.2714
      9  CB        -0.5820   81.2120   71.7870 C.3   205  SER205      0.2130
     10  OG        -0.7520   82.5500   72.2280 O.3   205  SER205     -0.2179
     11  N          1.8710   82.8950   70.1820 N.am  206  PHE206     -0.1959
     12  CA         2.1800   83.8100   69.0790 C.3   206  PHE206      0.1771
     13  C          3.2600   83.2440   68.1530 C.2   206  PHE206      0.2619
     14  O          4.2770   82.7220   68.6110 O.2   206  PHE206     -0.2715
     15  CB         2.6130   85.1730   69.6410 C.3   206  PHE206      0.0574
     16  CG         2.6980   86.2660   68.6160 C.ar  206  PHE206     -0.0200
     17  CD1        1.5790   86.6470   67.8910 C.ar  206  PHE206     -0.0042
     18  CD2        3.8900   86.9350   68.3960 C.ar  206  PHE206     -0.0042
     19  CE1        1.6500   87.6580   66.9520 C.ar  206  PHE206     -0.0003
     20  CE2        3.9690   87.9470   67.4570 C.ar  206  PHE206     -0.0003
     21  CZ         2.8470   88.3090   66.7330 C.ar  206  PHE206     -0.0000
     22  N          3.0280   83.3450   66.8500 N.am  207  ASP207     -0.1971
     23  CA         3.9990   82.8960   65.8570 C.3   207  ASP207      0.1709
     24  C          5.0230   83.9930   65.5660 C.2   207  ASP207      0.2293
     25  O          4.9610   84.6580   64.5350 O.2   207  ASP207     -0.2864
     26  CB         3.2850   82.4950   64.5640 C.3   207  ASP207      0.1436
     27  CG         4.2370   81.9370   63.5260 C.2   207  ASP207      0.3671
     28  OD1        5.4530   81.8180   63.8280 O.co2 207  ASP207     -0.2456
     29  OD2        3.7660   81.6160   62.4160 O.co2 207  ASP207     -0.2456
     30  N          8.3100   84.6800   64.6620 N.3   209  TYR209     -0.1227
     31  CA         9.2670   84.9710   63.5930 C.3   209  TYR209      0.1736
     32  C          8.6350   85.1980   62.2190 C.2   209  TYR209      0.2595
     33  O          9.3180   85.5570   61.2530 O.2   209  TYR209     -0.2718
     34  CB        10.3560   83.8960   63.5570 C.3   209  TYR209      0.0548
     35  CG        11.1910   83.9210   64.8110 C.ar  209  TYR209     -0.0200
     36  CD1       12.1260   84.9210   65.0170 C.ar  209  TYR209     -0.0009
     37  CD2       11.0060   82.9730   65.8140 C.ar  209  TYR209     -0.0009
     38  CE1       12.8750   84.9650   66.1650 C.ar  209  TYR209      0.0417
     39  CE2       11.7480   83.0110   66.9710 C.ar  209  TYR209      0.0417
     40  CZ        12.6860   84.0080   67.1410 C.ar  209  TYR209      0.1957
     41  OH        13.4350   84.0560   68.2940 O.3   209  TYR209     -0.2866
     42  N          7.3230   85.0200   62.1530 N.am  210  ASN210     -0.1974
     43  CA         6.5960   85.1740   60.9060 C.3   210  ASN210      0.1688
     44  C          5.6310   86.3650   60.8970 C.2   210  ASN210      0.2292
     45  O          5.2320   86.8460   59.8330 O.2   210  ASN210     -0.2864
     46  CB         5.8550   83.8760   60.5720 C.3   210  ASN210      0.1181
     47  CG         6.7980   82.7150   60.3460 C.2   210  ASN210      0.2629
     48  OD1        7.7380   82.8080   59.5570 O.2   210  ASN210     -0.2716
     49  ND2        6.5530   81.6130   61.0380 N.am  210  ASN210     -0.0877
     50  N          8.2680   76.5080   76.8810 N.3   323  LYS323     -0.1245
     51  CA         8.1170   76.7390   75.4370 C.3   323  LYS323      0.1561
     52  C          9.3140   77.4720   74.8070 C.2   323  LYS323      0.2260
     53  O          9.8440   77.0220   73.8030 O.2   323  LYS323     -0.2867
     54  CB         6.7660   77.4180   75.1240 C.3   323  LYS323      0.0271
     55  CG         6.7050   78.2150   73.8150 C.3   323  LYS323      0.0035
     56  CD         6.7190   77.3090   72.5770 C.3   323  LYS323      0.0206
     57  CE         7.0910   78.0770   71.2970 C.3   323  LYS323      0.1093
     58  NZ         5.9100   78.6540   70.5770 N.3   323  LYS323     -0.1314
     59  N          9.8500   71.3320   75.5030 N.3   328  ASP328     -0.1225
     60  CA         8.8340   70.5240   74.8400 C.3   328  ASP328      0.1805
     61  C          9.4100   69.7270   73.6550 C.2   328  ASP328      0.2597
     62  O          9.2810   68.5040   73.6030 O.2   328  ASP328     -0.2718
     63  CB         7.6090   71.3690   74.4590 C.3   328  ASP328      0.1424
     64  CG         7.9450   72.5720   73.5700 C.2   328  ASP328      0.3668
     65  OD1        6.9930   73.1630   73.0130 O.co2 328  ASP328     -0.2456
     66  OD2        9.1280   72.9400   73.4220 O.co2 328  ASP328     -0.2456
     67  N         10.0720   70.4110   72.7280 N.am  329  MET329     -0.1979
     68  CA        10.7540   69.7350   71.6240 C.3   329  MET329      0.1605
     69  C         11.7120   68.6750   72.1270 C.2   329  MET329      0.2287
     70  O         11.8630   67.6170   71.5220 O.2   329  MET329     -0.2864
     71  CB        11.5740   70.7250   70.8000 C.3   329  MET329      0.0413
     72  CG        10.8100   71.3830   69.6940 C.3   329  MET329      0.0598
     73  SD        11.9060   72.3210   68.6220 S.3   329  MET329     -0.1393
     74  CE        12.8740   71.0230   67.8680 C.3   329  MET329      0.0692
     75  N          9.7790   65.6710   73.4780 N.3   332  GLU332     -0.1245
     76  CA         9.2060   65.0720   72.2820 C.3   332  GLU332      0.1567
     77  C         10.2670   64.3460   71.4410 C.2   332  GLU332      0.2260
     78  O         10.1040   63.1770   71.1010 O.2   332  GLU332     -0.2867
     79  CB         8.4740   66.1320   71.4540 C.3   332  GLU332      0.0388
     80  CG         7.6950   65.5830   70.2740 C.3   332  GLU332      0.1160
     81  CD         6.7280   64.4870   70.6600 C.2   332  GLU332      0.3649
     82  OE1        5.9630   64.6620   71.6310 O.co2 332  GLU332     -0.2457
     83  OE2        6.7200   63.4490   69.9760 O.co2 332  GLU332     -0.2457
     84  N          4.5140   66.4970   80.2310 N.3   457  LYS457     -0.1245
     85  CA         5.0000   66.1300   78.9110 C.3   457  LYS457      0.1561
     86  C          5.6660   64.7680   78.9790 C.2   457  LYS457      0.2260
     87  O          5.4680   63.9330   78.0970 O.2   457  LYS457     -0.2867
     88  CB         5.9780   67.1730   78.3760 C.3   457  LYS457      0.0271
     89  CG         5.8230   67.4420   76.8970 C.3   457  LYS457      0.0035
     90  CD         6.1520   66.2320   76.0500 C.3   457  LYS457      0.0206
     91  CE         5.2190   66.0890   74.8130 C.3   457  LYS457      0.1093
     92  NZ         5.4500   67.0140   73.6720 N.3   457  LYS457     -0.1314
     93  N         13.6060   78.8340   71.4270 N.3   506  TYR506     -0.1241
     94  CA        12.7070   79.5510   70.5360 C.3   506  TYR506      0.1605
     95  C         12.9500   81.0330   70.6630 C.2   506  TYR506      0.2264
     96  O         12.9570   81.7500   69.6760 O.2   506  TYR506     -0.2867
     97  CB        11.2590   79.2710   70.8980 C.3   506  TYR506      0.0534
     98  CG        10.2420   79.9380   69.9900 C.ar  506  TYR506     -0.0201
     99  CD1       10.0740   79.5120   68.6800 C.ar  506  TYR506     -0.0009
    100  CD2        9.4220   80.9650   70.4550 C.ar  506  TYR506     -0.0009
    101  CE1        9.1360   80.0970   67.8550 C.ar  506  TYR506      0.0417
    102  CE2        8.4790   81.5540   69.6350 C.ar  506  TYR506      0.0417
    103  CZ         8.3410   81.1120   68.3340 C.ar  506  TYR506      0.1957
    104  OH         7.4110   81.6860   67.4960 O.3   506  TYR506     -0.2866
    105  N         18.4790   78.0880   64.9320 N.3   528  ASN528     -0.1240
    106  CA        18.8120   79.2740   64.1570 C.3   528  ASN528      0.1653
    107  C         18.0570   80.5150   64.6160 C.2   528  ASN528      0.2266
    108  O         18.3430   81.6200   64.1580 O.2   528  ASN528     -0.2867
    109  CB        18.6490   79.0420   62.6530 C.3   528  ASN528      0.1155
    110  CG        17.2540   78.6150   62.2720 C.2   528  ASN528      0.2627
    111  OD1       16.3830   78.4750   63.1210 O.2   528  ASN528     -0.2716
    112  ND2       17.0330   78.4050   60.9780 N.am  528  ASN528     -0.0877
    113  N         26.1090   79.7990   62.5100 N.3   537  GLU537     -0.1245
    114  CA        25.7550   79.5930   61.1120 C.3   537  GLU537      0.1567
    115  C         26.6830   80.3720   60.1930 C.2   537  GLU537      0.2260
    116  O         27.1170   79.8640   59.1630 O.2   537  GLU537     -0.2867
    117  CB        24.3270   80.0470   60.8530 C.3   537  GLU537      0.0388
    118  CG        23.3030   78.9460   60.9070 C.3   537  GLU537      0.1160
    119  CD        21.9070   79.4530   60.5980 C.2   537  GLU537      0.3649
    120  OE1       21.6590   80.6630   60.8230 O.co2 537  GLU537     -0.2457
    121  OE2       21.0640   78.6480   60.1320 O.co2 537  GLU537     -0.2457
    122  N         16.7040   74.0300   62.5240 N.3   554  ASP554     -0.1225
    123  CA        15.9610   75.0840   61.8320 C.3   554  ASP554      0.1805
    124  C         14.5540   75.2330   62.4030 C.2   554  ASP554      0.2598
    125  O         13.7380   74.3250   62.3070 O.2   554  ASP554     -0.2718
    126  CB        15.8780   74.7540   60.3420 C.3   554  ASP554      0.1424
    127  CG        15.2820   75.8760   59.5230 C.2   554  ASP554      0.3668
    128  OD1       14.9910   76.9430   60.0910 O.co2 554  ASP554     -0.2456
    129  OD2       15.1070   75.6860   58.3030 O.co2 554  ASP554     -0.2456
    130  N         14.2740   76.3880   62.9930 N.am  555  ARG555     -0.1966
    131  CA        12.9960   76.6340   63.6380 C.3   555  ARG555      0.1729
    132  C         12.3190   77.7770   62.9230 C.2   555  ARG555      0.2616
    133  O         11.3590   78.3650   63.4210 O.2   555  ARG555     -0.2715
    134  CB        13.2180   77.0280   65.0940 C.3   555  ARG555      0.0348
    135  CG        13.3580   75.8850   66.0750 C.3   555  ARG555      0.0492
    136  CD        12.0760   75.7490   66.8410 C.3   555  ARG555      0.2205
    137  NE        12.2860   75.6220   68.2760 N.pl3 555  ARG555     -0.0865
    138  CZ        11.2970   75.6120   69.1630 C.cat 555  ARG555      0.5346
    139  NH1       10.0440   75.7290   68.7520 N.pl3 555  ARG555      0.1354
    140  NH2       11.5560   75.4850   70.4600 N.pl3 555  ARG555      0.1354
    141  N         12.8230   78.0940   61.7400 N.am  556  ARG556     -0.1963
    142  CA        12.3690   79.2800   61.0360 C.3   556  ARG556      0.1729
    143  C         11.7750   78.9770   59.6520 C.2   556  ARG556      0.2616
    144  O         10.7930   79.5970   59.2530 O.2   556  ARG556     -0.2715
    145  CB        13.5180   80.2870   60.9400 C.3   556  ARG556      0.0348
    146  CG        13.0760   81.7110   61.1100 C.3   556  ARG556      0.0492
    147  CD        14.2260   82.6680   60.9780 C.3   556  ARG556      0.2205
    148  NE        13.7400   83.9790   60.5650 N.pl3 556  ARG556     -0.0865
    149  CZ        14.5310   84.9950   60.2410 C.cat 556  ARG556      0.5346
    150  NH1       15.8540   84.8570   60.2880 N.pl3 556  ARG556      0.1354
    151  NH2       13.9950   86.1530   59.8690 N.pl3 556  ARG556      0.1354
    152  N         12.3620   78.0300   58.9280 N.am  557  PHE557     -0.1960
    153  CA        11.8790   77.7110   57.5830 C.3   557  PHE557      0.1771
    154  C         11.4640   76.2570   57.4440 C.2   557  PHE557      0.2619
    155  O         11.3260   75.7570   56.3360 O.2   557  PHE557     -0.2715
    156  CB        12.9260   78.0630   56.5160 C.3   557  PHE557      0.0574
    157  CG        13.4660   79.4490   56.6500 C.ar  557  PHE557     -0.0200
    158  CD1       12.6360   80.5450   56.4800 C.ar  557  PHE557     -0.0042
    159  CD2       14.7980   79.6640   56.9700 C.ar  557  PHE557     -0.0042
    160  CE1       13.1230   81.8330   56.6230 C.ar  557  PHE557     -0.0003
    161  CE2       15.2980   80.9520   57.1150 C.ar  557  PHE557     -0.0003
    162  CZ        14.4580   82.0380   56.9440 C.ar  557  PHE557     -0.0000
    163  N         11.2860   75.5730   58.5680 N.am  558  LYS558     -0.1963
    164  CA        10.7460   74.2220   58.5440 C.3   558  LYS558      0.1728
    165  C          9.4230   74.2350   59.2680 C.2   558  LYS558      0.2616
    166  O          9.1390   75.1650   60.0100 O.2   558  LYS558     -0.2715
    167  CB        11.6970   73.2290   59.2050 C.3   558  LYS558      0.0311
    168  CG        13.0120   73.0590   58.4750 C.3   558  LYS558      0.0038
    169  CD        13.6040   71.6820   58.7070 C.3   558  LYS558      0.0206
    170  CE        14.6880   71.3950   57.6950 C.3   558  LYS558      0.1093
    171  NZ        14.8010   69.9400   57.4170 N.3   558  LYS558     -0.1314
    172  N          8.6030   73.2200   59.0330 N.am  559  ALA559     -0.1964
    173  CA         7.3560   73.0680   59.7770 C.3   559  ALA559      0.1713
    174  C          7.7200   72.6390   61.1800 C.2   559  ALA559      0.2458
    175  O          8.8140   72.1290   61.4010 O.2   559  ALA559     -0.2730
    176  CB         6.4540   72.0270   59.1200 C.3   559  ALA559      0.0333
    177  N          6.8100   72.8370   62.1350 N.am  560  PRO560     -0.2716
    178  CA         7.1440   72.4690   63.5110 C.3   560  PRO560      0.1536
    179  C          7.5570   71.0030   63.5920 C.2   560  PRO560      0.2599
    180  O          8.5650   70.6830   64.2240 O.2   560  PRO560     -0.2715
    181  CB         5.8270   72.6800   64.2590 C.3   560  PRO560      0.0310
    182  CG         5.0670   73.6390   63.4200 C.3   560  PRO560      0.0237
    183  CD         5.4230   73.2990   62.0070 C.3   560  PRO560      0.0939
    184  N          6.7950   70.1240   62.9480 N.am  561  ASP561     -0.1958
    185  CA         7.0960   68.7030   63.0090 C.3   561  ASP561      0.1840
    186  C          8.3930   68.3660   62.2960 C.2   561  ASP561      0.2622
    187  O          9.0190   67.3580   62.5960 O.2   561  ASP561     -0.2715
    188  CB         5.9630   67.8680   62.4280 C.3   561  ASP561      0.1450
    189  CG         5.9310   66.4540   62.9950 C.2   561  ASP561      0.3671
    190  OD1        6.5480   65.5460   62.3840 O.co2 561  ASP561     -0.2456
    191  OD2        5.2920   66.2570   64.0580 O.co2 561  ASP561     -0.2456
    192  N          8.8070   69.1980   61.3530 N.am  562  GLU562     -0.1963
    193  CA        10.0580   68.9310   60.6500 C.3   562  GLU562      0.1733
    194  C         11.2560   69.3150   61.5160 C.2   562  GLU562      0.2617
    195  O         12.3220   68.7070   61.4210 O.2   562  GLU562     -0.2715
    196  CB        10.1110   69.6590   59.3050 C.3   562  GLU562      0.0429
    197  CG         9.0240   69.2610   58.3130 C.3   562  GLU562      0.1163
    198  CD         8.9020   70.2560   57.1660 C.2   562  GLU562      0.3649
    199  OE1        9.9470   70.7890   56.7220 O.co2 562  GLU562     -0.2457
    200  OE2        7.7620   70.5100   56.7120 O.co2 562  GLU562     -0.2457
    201  N         11.0680   70.3310   62.3540 N.am  563  SER563     -0.1936
    202  CA        12.0860   70.7590   63.3040 C.3   563  SER563      0.2055
    203  C         12.3570   69.6330   64.3120 C.2   563  SER563      0.2642
    204  O         13.5100   69.3150   64.6150 O.2   563  SER563     -0.2714
    205  CB        11.6320   72.0250   64.0400 C.3   563  SER563      0.2130
    206  OG        11.4430   73.1160   63.1570 O.3   563  SER563     -0.2179
    207  N         11.2870   69.0320   64.8270 N.am  564  VAL564     -0.1977
    208  CA        11.4110   67.9330   65.7750 C.3   564  VAL564      0.1596
    209  C         12.1620   66.7710   65.1270 C.2   564  VAL564      0.2287
    210  O         13.0340   66.1650   65.7470 O.2   564  VAL564     -0.2864
    211  CB        10.0280   67.4610   66.2730 C.3   564  VAL564      0.0276
    212  CG1       10.1740   66.3400   67.2720 C.3   564  VAL564      0.0022
    213  CG2        9.2600   68.6190   66.8880 C.3   564  VAL564      0.0022
    214  N         14.2730   66.8410   62.6280 N.3   566  GLN566     -0.1245
    215  CA        15.6570   67.1900   62.4060 C.3   566  GLN566      0.1566
    216  C         16.4260   66.9990   63.7140 C.2   566  GLN566      0.2260
    217  O         17.5200   66.4210   63.7330 O.2   566  GLN566     -0.2867
    218  CB        15.7530   68.6330   61.9250 C.3   566  GLN566      0.0367
    219  CG        17.1460   69.0420   61.5420 C.3   566  GLN566      0.0905
    220  CD        17.2510   70.5110   61.2400 C.2   566  GLN566      0.2608
    221  OE1       16.5510   71.3290   61.8320 O.2   566  GLN566     -0.2717
    222  NE2       18.1350   70.8610   60.3180 N.am  566  GLN566     -0.0878
@<TRIPOS>BOND
     1   155   154    2
     2   158   160   ar
     3   158   157   ar
     4   156   157    1
     5   156   153    1
     6   160   162   ar
     7   157   159   ar
     8   200   198   ar
     9   199   198   ar
    10   162   161   ar
    11   159   161   ar
    12   198   197    1
    13   171   170    1
    14   154   153    1
    15   154   163   am
    16   153   152    1
    17   170   169    1
    18   129   127   ar
    19   197   196    1
    20   168   169    1
    21   168   167    1
    22   164   163    1
    23   164   167    1
    24   164   165    1
    25   152   143   am
    26   172   165   am
    27   172   173    1
    28   176   173    1
    29   116   115    2
    30   144   143    2
    31   165   166    2
    32   196   193    1
    33   127   128   ar
    34   127   126    1
    35    48    47    2
    36   143   142    1
    37   173   174    1
    38    45    44    2
    39   151   149    1
    40   121   119   ar
    41   115   114    1
    42   149   150    1
    43   149   148    2
    44   222   220   am
    45   126   123    1
    46    47    46    1
    47    47    49   am
    48   148   147    1
    49    46    43    1
    50   119   120   ar
    51   119   118    1
    52   193   192    1
    53   193   194    1
    54   117   118    1
    55   117   114    1
    56    44    43    1
    57    43    42    1
    58   145   142    1
    59   145   146    1
    60   147   146    1
    61   112   110   am
    62   142   141    1
    63   114   113    1
    64   174   175    2
    65   174   177   am
    66   220   219    1
    67   220   221    2
    68    33    32    2
    69   192   186   am
    70   195   194    2
    71   194   201   am
    72   219   218    1
    73   141   132   am
    74   123   124    1
    75   123   122    1
    76   218   215    1
    77   183   177    1
    78   183   182    1
    79   177   178    1
    80    42    32   am
    81    32    31    1
    82   110   109    1
    83   110   111    2
    84   186   187    2
    85   186   185    1
    86   125   124    2
    87   201   202    1
    88   190   189   ar
    89   124   130   am
    90   215   214    1
    91   215   216    1
    92    29    27   ar
    93   188   189    1
    94   188   185    1
    95   109   106    1
    96   132   133    2
    97   132   131    1
    98   184   185    1
    99   184   179   am
   100   130   131    1
   101   189   191   ar
   102   206   205    1
   103   202   205    1
   104   202   203    1
   105   182   181    1
   106   178   179    1
   107   178   181    1
   108    27    28   ar
   109    27    26    1
   110    34    31    1
   111    34    35    1
   112   179   180    2
   113    31    30    1
   114   131   134    1
   115   216   217    2
   116   106   107    1
   117   106   105    1
   118   108   107    2
   119   203   204    2
   120   203   207   am
   121    25    24    2
   122    26    23    1
   123    35    36   ar
   124    35    37   ar
   125   207   208    1
   126    36    38   ar
   127   134   135    1
   128   209   210    2
   129   209   208    1
   130    24    23    1
   131   208   211    1
   132    37    39   ar
   133    23    22    1
   134   135   136    1
   135    38    40   ar
   136   211   213    1
   137   211   212    1
   138    21    19   ar
   139    21    20   ar
   140   136   137    1
   141    22    13   am
   142    19    17   ar
   143    39    40   ar
   144    40    41    1
   145    20    18   ar
   146   104   103    1
   147   101   103   ar
   148   101    99   ar
   149    74    73    1
   150    17    16   ar
   151    13    14    2
   152    13    12    1
   153   137   138    2
   154   103   102   ar
   155    18    16   ar
   156    16    15    1
   157    73    72    1
   158    99    98   ar
   159   139   138    1
   160     8     7    2
   161    12    15    1
   162    12    11    1
   163   138   140    1
   164   102   100   ar
   165    96    95    2
   166    72    71    1
   167    83    81   ar
   168    98   100   ar
   169    98    97    1
   170     7    11   am
   171     7     6    1
   172    80    81    1
   173    80    79    1
   174    94    95    1
   175    94    97    1
   176    94    93    1
   177    58    57    1
   178    81    82   ar
   179    71    68    1
   180    78    77    2
   181     6     9    1
   182     6     5    1
   183    57    56    1
   184    77    76    1
   185    79    76    1
   186    70    69    2
   187    68    69    1
   188    68    67    1
   189     9    10    1
   190     4     3    2
   191    76    75    1
   192     5     3   am
   193     3     2    1
   194    56    55    1
   195    67    61   am
   196    65    64   ar
   197    66    64   ar
   198    64    63    1
   199    62    61    2
   200     2     1    1
   201    61    60    1
   202    92    91    1
   203    53    52    2
   204    55    54    1
   205    63    60    1
   206    52    51    1
   207    91    90    1
   208    60    59    1
   209    54    51    1
   210    51    50    1
   211    90    89    1
   212    89    88    1
   213    87    86    2
   214    88    85    1
   215    85    86    1
   216    85    84    1
