@<TRIPOS>MOLECULE
tmp/3rt1A02.pdb
 87 83 0 0 0
SMALL
GASTEIGER

@<TRIPOS>ATOM
      1  N          9.7790   65.6710   73.4780 N.3   332  GLU332     -0.1245
      2  CA         9.2060   65.0720   72.2820 C.3   332  GLU332      0.1567
      3  C         10.2670   64.3460   71.4410 C.2   332  GLU332      0.2260
      4  O         10.1040   63.1770   71.1010 O.2   332  GLU332     -0.2867
      5  CB         8.4740   66.1320   71.4540 C.3   332  GLU332      0.0388
      6  CG         7.6950   65.5830   70.2740 C.3   332  GLU332      0.1160
      7  CD         6.7280   64.4870   70.6600 C.2   332  GLU332      0.3649
      8  OE1        5.9630   64.6620   71.6310 O.co2 332  GLU332     -0.2457
      9  OE2        6.7200   63.4490   69.9760 O.co2 332  GLU332     -0.2457
     10  N         11.4070   61.0250   72.9740 N.3   335  ALA335     -0.1231
     11  CA        10.4720   59.9210   72.7690 C.3   335  ALA335      0.1694
     12  C         10.6270   59.3170   71.3660 C.2   335  ALA335      0.2591
     13  O         10.6160   58.1020   71.2040 O.2   335  ALA335     -0.2718
     14  CB         9.0580   60.3690   73.0220 C.3   335  ALA335      0.0304
     15  N         10.7770   60.1730   70.3590 N.am  336  ARG336     -0.1980
     16  CA        11.1010   59.7170   69.0130 C.3   336  ARG336      0.1597
     17  C         12.4740   59.0310   68.9430 C.2   336  ARG336      0.2287
     18  O         12.6660   58.0550   68.2180 O.2   336  ARG336     -0.2864
     19  CB        11.0800   60.8810   68.0270 C.3   336  ARG336      0.0334
     20  CG         9.7680   61.0800   67.3180 C.3   336  ARG336      0.0492
     21  CD         9.0820   62.3600   67.7280 C.3   336  ARG336      0.2205
     22  NE         8.7080   63.1440   66.5490 N.pl3 336  ARG336     -0.0865
     23  CZ         7.5960   63.8690   66.4400 C.cat 336  ARG336      0.5346
     24  NH1        6.7160   63.9070   67.4400 N.pl3 336  ARG336      0.1354
     25  NH2        7.3550   64.5470   65.3250 N.pl3 336  ARG336      0.1354
     26  N         13.7790   57.3580   71.2090 N.3   338  ASN338     -0.1225
     27  CA        13.6670   56.0930   71.9210 C.3   338  ASN338      0.1785
     28  C         13.1950   54.9830   70.9980 C.2   338  ASN338      0.2597
     29  O         13.7000   53.8640   71.0390 O.2   338  ASN338     -0.2718
     30  CB        12.7160   56.2300   73.1020 C.3   338  ASN338      0.1169
     31  CG        12.6710   54.9830   73.9540 C.2   338  ASN338      0.2627
     32  OD1       13.7060   54.4760   74.4100 O.2   338  ASN338     -0.2716
     33  ND2       11.4650   54.4760   74.1750 N.am  338  ASN338     -0.0877
     34  N         12.2270   55.3140   70.1520 N.am  339  TYR339     -0.1976
     35  CA        11.7530   54.4100   69.1160 C.3   339  TYR339      0.1639
     36  C         12.8480   54.0550   68.0970 C.2   339  TYR339      0.2290
     37  O         13.0790   52.8820   67.8040 O.2   339  TYR339     -0.2864
     38  CB        10.5460   55.0300   68.4190 C.3   339  TYR339      0.0560
     39  CG         9.8950   54.1360   67.3870 C.ar  339  TYR339     -0.0198
     40  CD1        9.1790   53.0040   67.7710 C.ar  339  TYR339     -0.0009
     41  CD2        9.9850   54.4330   66.0310 C.ar  339  TYR339     -0.0009
     42  CE1        8.5840   52.1890   66.8340 C.ar  339  TYR339      0.0417
     43  CE2        9.3960   53.6260   65.0890 C.ar  339  TYR339      0.0417
     44  CZ         8.6930   52.5060   65.4920 C.ar  339  TYR339      0.1957
     45  OH         8.1030   51.7020   64.5450 O.3   339  TYR339     -0.2866
     46  N         15.3600   51.6130   69.8330 N.3   342  LYS342     -0.1245
     47  CA        14.8110   50.2660   70.0300 C.3   342  LYS342      0.1561
     48  C         14.7540   49.4690   68.7100 C.2   342  LYS342      0.2260
     49  O         15.2090   48.3230   68.6490 O.2   342  LYS342     -0.2867
     50  CB        13.4180   50.3160   70.6630 C.3   342  LYS342      0.0271
     51  CG        13.3070   51.2300   71.8470 C.3   342  LYS342      0.0035
     52  CD        12.3490   50.6860   72.8810 C.3   342  LYS342      0.0206
     53  CE        10.8990   51.0380   72.6040 C.3   342  LYS342      0.1093
     54  NZ        10.0780   50.8610   73.8530 N.3   342  LYS342     -0.1314
     55  N          3.0520   62.1630   79.1460 N.3   460  GLN460     -0.1231
     56  CA         2.2600   62.1020   77.9290 C.3   460  GLN460      0.1698
     57  C          2.9320   61.1950   76.9090 C.2   460  GLN460      0.2592
     58  O          2.2620   60.3830   76.2700 O.2   460  GLN460     -0.2718
     59  CB         2.0090   63.5050   77.3590 C.3   460  GLN460      0.0381
     60  CG         1.1490   63.5330   76.1110 C.3   460  GLN460      0.0905
     61  CD         1.9240   63.9600   74.8580 C.2   460  GLN460      0.2608
     62  OE1        2.3420   65.1220   74.7390 O.2   460  GLN460     -0.2717
     63  NE2        2.0910   63.0310   73.9050 N.am  460  GLN460     -0.0878
     64  N          4.2510   61.3130   76.7810 N.am  461  VAL461     -0.1966
     65  CA         4.9910   60.5290   75.8040 C.3   461  VAL461      0.1727
     66  C          5.4360   59.2280   76.4300 C.2   461  VAL461      0.2616
     67  O          6.1460   58.4370   75.8160 O.2   461  VAL461     -0.2715
     68  CB         6.2200   61.2780   75.2690 C.3   461  VAL461      0.0290
     69  CG1        5.8400   62.6650   74.8350 C.3   461  VAL461      0.0023
     70  CG2        7.3050   61.3410   76.3250 C.3   461  VAL461      0.0023
     71  N          5.0230   59.0210   77.6700 N.am  462  GLN462     -0.1963
     72  CA         5.3540   57.8090   78.4180 C.3   462  GLN462      0.1733
     73  C          6.8420   57.3790   78.4150 C.2   462  GLN462      0.2616
     74  O          7.1550   56.2370   78.0780 O.2   462  GLN462     -0.2715
     75  CB         4.4450   56.6630   77.9620 C.3   462  GLN462      0.0408
     76  CG         2.9760   57.0500   78.0150 C.3   462  GLN462      0.0908
     77  CD         2.0280   55.8880   77.7840 C.2   462  GLN462      0.2608
     78  OE1        1.9620   55.3380   76.6810 O.2   462  GLN462     -0.2717
     79  NE2        1.2730   55.5210   78.8210 N.am  462  GLN462     -0.0878
     80  N          7.7520   58.2790   78.7880 N.am  463  LEU463     -0.1977
     81  CA         9.1250   57.8700   79.1050 C.3   463  LEU463      0.1596
     82  C          9.2320   57.6200   80.6140 C.2   463  LEU463      0.2287
     83  O          9.3850   58.5510   81.4080 O.2   463  LEU463     -0.2864
     84  CB        10.1530   58.9090   78.6350 C.3   463  LEU463      0.0297
     85  CG        10.3640   59.0390   77.1120 C.3   463  LEU463      0.0022
     86  CD1       11.1680   60.2720   76.7460 C.3   463  LEU463      0.0001
     87  CD2       11.0190   57.7960   76.5420 C.3   463  LEU463      0.0001
@<TRIPOS>BOND
     1    45    44    1
     2    43    44   ar
     3    43    41   ar
     4    25    23    1
     5    44    42   ar
     6    41    39   ar
     7    23    22    2
     8    23    24    1
     9    22    21    1
    10    42    40   ar
    11    20    21    1
    12    20    19    1
    13    39    40   ar
    14    39    38    1
    15    37    36    2
    16    19    16    1
    17    36    35    1
    18    18    17    2
    19    38    35    1
    20    49    48    2
    21    48    47    1
    22    17    16    1
    23    16    15    1
    24    35    34    1
    25    46    47    1
    26     9     7   ar
    27    47    50    1
    28    34    28   am
    29     6     7    1
    30     6     5    1
    31    15    12   am
    32     7     8   ar
    33    50    51    1
    34    28    29    2
    35    28    27    1
    36     4     3    2
    37    13    12    2
    38    26    27    1
    39    12    11    1
    40     3     2    1
    41     5     2    1
    42    51    52    1
    43    27    30    1
    44     2     1    1
    45    53    52    1
    46    53    54    1
    47    11    10    1
    48    11    14    1
    49    30    31    1
    50    63    61   am
    51    31    33   am
    52    31    32    2
    53    62    61    2
    54    69    68    1
    55    61    60    1
    56    68    65    1
    57    68    70    1
    58    65    66    1
    59    65    64    1
    60    67    66    2
    61    60    59    1
    62    58    57    2
    63    66    71   am
    64    87    85    1
    65    78    77    2
    66    86    85    1
    67    64    57   am
    68    57    56    1
    69    85    84    1
    70    59    56    1
    71    71    72    1
    72    77    76    1
    73    77    79   am
    74    56    55    1
    75    75    76    1
    76    75    72    1
    77    74    73    2
    78    73    72    1
    79    73    80   am
    80    84    81    1
    81    80    81    1
    82    81    82    1
    83    82    83    2
