@<TRIPOS>MOLECULE
tmp/3rt1D03.pdb
 139 135 0 0 0
SMALL
GASTEIGER

@<TRIPOS>ATOM
      1  N         13.2850   60.1530  107.2400 N.3   362  THR362     -0.1218
      2  CA        12.9350   61.4860  106.7750 C.3   362  THR362      0.1862
      3  C         13.9950   62.0410  105.8110 C.2   362  THR362      0.2287
      4  O         15.1170   61.5360  105.7310 O.2   362  THR362     -0.2866
      5  CB        12.7670   62.4780  107.9500 C.3   362  THR362      0.1770
      6  OG1       14.0240   62.6550  108.5910 O.3   362  THR362     -0.2211
      7  CG2       11.7640   61.9710  108.9430 C.3   362  THR362      0.0375
      8  N         15.4220   64.9460  106.2050 N.3   364  GLU364     -0.1245
      9  CA        16.4170   65.5810  107.0760 C.3   364  GLU364      0.1567
     10  C         17.4240   64.5650  107.6090 C.2   364  GLU364      0.2260
     11  O         18.6230   64.8390  107.6990 O.2   364  GLU364     -0.2867
     12  CB        15.7240   66.3000  108.2420 C.3   364  GLU364      0.0388
     13  CG        16.5150   67.4470  108.8390 C.3   364  GLU364      0.1160
     14  CD        17.3790   68.1750  107.8050 C.2   364  GLU364      0.3649
     15  OE1       16.8230   68.6150  106.7510 O.co2 364  GLU364     -0.2457
     16  OE2       18.6150   68.3100  108.0550 O.co2 364  GLU364     -0.2457
     17  N         17.4500   78.9510  110.7120 N.3   433  GLU433     -0.1231
     18  CA        17.5270   79.6280  112.0140 C.3   433  GLU433      0.1699
     19  C         16.5580   79.1330  113.1040 C.2   433  GLU433      0.2593
     20  O         15.3330   79.1510  112.9380 O.2   433  GLU433     -0.2718
     21  CB        17.4460   81.1510  111.8520 C.3   433  GLU433      0.0402
     22  CG        18.7910   81.8490  112.0370 C.3   433  GLU433      0.1161
     23  CD        19.2590   81.8320  113.4880 C.2   433  GLU433      0.3649
     24  OE1       18.6830   81.0640  114.2950 O.co2 433  GLU433     -0.2457
     25  OE2       20.2000   82.5880  113.8230 O.co2 433  GLU433     -0.2457
     26  N         17.1350   78.6880  114.2180 N.am  434  GLY434     -0.1942
     27  CA        16.3630   78.1960  115.3420 C.3   434  GLY434      0.2014
     28  C         15.7500   76.8140  115.1740 C.2   434  GLY434      0.2639
     29  O         14.9250   76.4090  115.9810 O.2   434  GLY434     -0.2714
     30  N         16.1320   76.0810  114.1340 N.am  435  GLN435     -0.1963
     31  CA        15.6920   74.6970  114.0180 C.3   435  GLN435      0.1733
     32  C         16.5410   73.8440  114.9480 C.2   435  GLN435      0.2616
     33  O         17.7270   74.1360  115.1600 O.2   435  GLN435     -0.2715
     34  CB        15.8310   74.1920  112.5900 C.3   435  GLN435      0.0408
     35  CG        15.3740   72.7500  112.4130 C.3   435  GLN435      0.0908
     36  CD        16.0380   72.0470  111.2290 C.2   435  GLN435      0.2608
     37  OE1       16.5840   70.9510  111.3800 O.2   435  GLN435     -0.2717
     38  NE2       15.9870   72.6710  110.0480 N.am  435  GLN435     -0.0878
     39  N         15.9350   72.7970  115.5090 N.am  436  LEU436     -0.1964
     40  CA        16.6390   71.9100  116.4340 C.3   436  LEU436      0.1713
     41  C         16.7120   70.4710  115.9080 C.2   436  LEU436      0.2458
     42  O         15.8510   70.0350  115.1390 O.2   436  LEU436     -0.2730
     43  CB        15.9700   71.9250  117.8110 C.3   436  LEU436      0.0310
     44  CG        15.8690   73.2270  118.6120 C.3   436  LEU436      0.0022
     45  CD1       14.8800   73.0630  119.7650 C.3   436  LEU436      0.0001
     46  CD2       17.2340   73.6610  119.1250 C.3   436  LEU436      0.0001
     47  N         17.7420   69.7220  116.3320 N.am  437  PRO437     -0.2716
     48  CA        17.8370   68.3170  115.9180 C.3   437  PRO437      0.1521
     49  C         16.5630   67.5770  116.3290 C.2   437  PRO437      0.2440
     50  O         16.1920   67.6220  117.5000 O.2   437  PRO437     -0.2731
     51  CB        19.0460   67.7980  116.7140 C.3   437  PRO437      0.0310
     52  CG        19.8140   69.0200  117.1050 C.3   437  PRO437      0.0237
     53  CD        18.7960   70.0930  117.2930 C.3   437  PRO437      0.0939
     54  N         15.9010   66.9030  115.3810 N.am  438  PRO438     -0.2716
     55  CA        14.5910   66.3000  115.6480 C.3   438  PRO438      0.1536
     56  C         14.6630   65.2620  116.7620 C.2   438  PRO438      0.2598
     57  O         15.7560   64.7930  117.0930 O.2   438  PRO438     -0.2715
     58  CB        14.2450   65.6070  114.3230 C.3   438  PRO438      0.0310
     59  CG        15.1530   66.1760  113.3320 C.3   438  PRO438      0.0237
     60  CD        16.3980   66.5400  114.0520 C.3   438  PRO438      0.0939
     61  N         13.5100   64.8950  117.3080 N.am  439  ILE439     -0.1964
     62  CA        13.4540   63.8930  118.3600 C.3   439  ILE439      0.1727
     63  C         13.0660   62.5620  117.7590 C.2   439  ILE439      0.2616
     64  O         12.8220   61.5870  118.4800 O.2   439  ILE439     -0.2715
     65  CB        12.4080   64.2530  119.4200 C.3   439  ILE439      0.0290
     66  CG1       11.0170   64.2850  118.7700 C.3   439  ILE439      0.0022
     67  CG2       12.7590   65.5780  120.0740 C.3   439  ILE439      0.0023
     68  CD1        9.9370   64.8900  119.6180 C.3   439  ILE439      0.0001
     69  N         12.9980   62.5260  116.4330 N.am  440  VAL440     -0.1977
     70  CA        12.5150   61.3480  115.7290 C.3   440  VAL440      0.1596
     71  C         13.1780   61.2860  114.3590 C.2   440  VAL440      0.2287
     72  O         13.4160   62.3070  113.7310 O.2   440  VAL440     -0.2864
     73  CB        10.9680   61.3780  115.6200 C.3   440  VAL440      0.0276
     74  CG1       10.5290   62.5820  114.8280 C.3   440  VAL440      0.0022
     75  CG2       10.4280   60.1090  114.9920 C.3   440  VAL440      0.0022
     76  N         12.1560   59.1790  111.7760 N.3   442  HIS442     -0.1226
     77  CA        11.2680   58.6720  110.7510 C.3   442  HIS442      0.1752
     78  C         10.0640   59.5790  110.5130 C.2   442  HIS442      0.2596
     79  O          9.6790   60.3730  111.3790 O.2   442  HIS442     -0.2718
     80  CB        10.7780   57.2860  111.1470 C.3   442  HIS442      0.0759
     81  CG        11.7690   56.1970  110.9000 C.ar  442  HIS442      0.0818
     82  ND1       13.0310   56.1980  111.4540 N.ar  442  HIS442     -0.2268
     83  CD2       11.6740   55.0500  110.1840 C.ar  442  HIS442      0.1154
     84  CE1       13.6750   55.1030  111.0780 C.ar  442  HIS442      0.1986
     85  NE2       12.8730   54.3890  110.3090 N.ar  442  HIS442     -0.2212
     86  N          9.4700   59.4570  109.3290 N.am  443  ASN443     -0.1960
     87  CA         8.1450   60.0150  109.0980 C.3   443  ASN443      0.1819
     88  C          7.1230   59.0820  109.7180 C.2   443  ASN443      0.2621
     89  O          7.0800   57.9020  109.3880 O.2   443  ASN443     -0.2715
     90  CB         7.8820   60.2280  107.6080 C.3   443  ASN443      0.1195
     91  CG         8.4750   61.5340  107.0980 C.2   443  ASN443      0.2630
     92  OD1        8.1620   62.6140  107.6160 O.2   443  ASN443     -0.2716
     93  ND2        9.3480   61.4450  106.0890 N.am  443  ASN443     -0.0877
     94  N          6.3230   59.6050  110.6400 N.am  444  MET444     -0.1977
     95  CA         5.3790   58.7870  111.3970 C.3   444  MET444      0.1605
     96  C          4.0090   58.7880  110.7510 C.2   444  MET444      0.2287
     97  O          3.4860   59.8440  110.3970 O.2   444  MET444     -0.2864
     98  CB         5.2580   59.3260  112.8240 C.3   444  MET444      0.0413
     99  CG         6.5630   59.3760  113.5700 C.3   444  MET444      0.0598
    100  SD         7.0200   57.7310  114.1280 S.3   444  MET444     -0.1393
    101  CE         5.7670   57.4810  115.3950 C.3   444  MET444      0.0692
    102  N          1.4640   60.5480  113.8620 N.3   447  ASP447     -0.1239
    103  CA         2.3640   61.1780  114.8070 C.3   447  ASP447      0.1674
    104  C          1.7080   61.9670  115.9680 C.2   447  ASP447      0.2266
    105  O          2.2420   61.9840  117.0810 O.2   447  ASP447     -0.2867
    106  CB         3.3910   62.0070  114.0310 C.3   447  ASP447      0.1410
    107  CG         3.6820   63.3440  114.6700 C.2   447  ASP447      0.3668
    108  OD1        2.9210   64.3100  114.4130 O.co2 447  ASP447     -0.2456
    109  OD2        4.6970   63.4390  115.3960 O.co2 447  ASP447     -0.2456
    110  N          5.8020   59.8400  121.3760 N.3   453  LEU453     -0.1245
    111  CA         5.9740   61.2260  120.9590 C.3   453  LEU453      0.1561
    112  C          5.1610   62.1970  121.7980 C.2   453  LEU453      0.2260
    113  O          5.5930   63.3220  122.0260 O.2   453  LEU453     -0.2867
    114  CB         5.6890   61.4130  119.4720 C.3   453  LEU453      0.0270
    115  CG         6.7780   60.9310  118.5040 C.3   453  LEU453      0.0019
    116  CD1        6.3500   61.1880  117.0790 C.3   453  LEU453      0.0001
    117  CD2        8.1200   61.5790  118.7530 C.3   453  LEU453      0.0001
    118  N          6.8650   65.2880  124.3480 N.3   457  ARG457     -0.1245
    119  CA         6.5200   66.6720  124.1150 C.3   457  ARG457      0.1563
    120  C          6.0030   67.2900  125.3710 C.2   457  ARG457      0.2260
    121  O          6.1510   68.4530  125.6010 O.2   457  ARG457     -0.2867
    122  CB         5.4530   66.7760  123.0460 C.3   457  ARG457      0.0307
    123  CG         5.7790   66.1650  121.7250 C.3   457  ARG457      0.0489
    124  CD         4.7240   66.5480  120.7010 C.3   457  ARG457      0.2205
    125  NE         4.6400   65.6280  119.5760 N.pl3 457  ARG457     -0.0865
    126  CZ         3.6070   64.8550  119.3280 C.cat 457  ARG457      0.5346
    127  NH1        2.5650   64.8880  120.1150 N.pl3 457  ARG457      0.1354
    128  NH2        3.6200   64.0550  118.3060 N.pl3 457  ARG457      0.1354
    129  N         13.4340   68.5660  123.7060 N.3   462  PHE462     -0.1241
    130  CA        13.4790   68.8790  122.2860 C.3   462  PHE462      0.1605
    131  C         14.8980   69.0920  121.7750 C.2   462  PHE462      0.2264
    132  O         15.1130   69.8410  120.8290 O.2   462  PHE462     -0.2867
    133  CB        12.6520   70.1220  122.0010 C.3   462  PHE462      0.0534
    134  CG        11.2010   69.9570  122.3010 C.ar  462  PHE462     -0.0203
    135  CD1       10.5170   68.8300  121.8740 C.ar  462  PHE462     -0.0042
    136  CD2       10.5050   70.9340  122.9910 C.ar  462  PHE462     -0.0042
    137  CE1        9.1650   68.6720  122.1430 C.ar  462  PHE462     -0.0003
    138  CE2        9.1520   70.7830  123.2530 C.ar  462  PHE462     -0.0003
    139  CZ         8.4860   69.6490  122.8280 C.ar  462  PHE462     -0.0000
@<TRIPOS>BOND
     1     4     3    2
     2     3     2    1
     3    93    91   am
     4     8     9    1
     5    15    14   ar
     6     2     1    1
     7     2     5    1
     8     9    10    1
     9     9    12    1
    10    91    90    1
    11    91    92    2
    12    90    87    1
    13    10    11    2
    14    14    16   ar
    15    14    13    1
    16     5     6    1
    17     5     7    1
    18    12    13    1
    19    87    86    1
    20    87    88    1
    21    86    78   am
    22    89    88    2
    23    88    94   am
    24    38    36   am
    25    83    85   ar
    26    83    81   ar
    27    85    84   ar
    28    97    96    2
    29    78    77    1
    30    78    79    2
    31    94    95    1
    32    17    18    1
    33    77    80    1
    34    77    76    1
    35    96    95    1
    36    81    80    1
    37    81    82   ar
    38    84    82   ar
    39    36    37    2
    40    36    35    1
    41    95    98    1
    42    21    18    1
    43    21    22    1
    44    18    19    1
    45    22    23    1
    46    35    34    1
    47    34    31    1
    48    98    99    1
    49    20    19    2
    50    19    26   am
    51    59    60    1
    52    59    58    1
    53    23    25   ar
    54    23    24   ar
    55    99   100    1
    56    72    71    2
    57   102   103    1
    58    31    30    1
    59    31    32    1
    60   106   107    1
    61   106   103    1
    62    60    54    1
    63   100   101    1
    64    30    28   am
    65    26    27    1
    66    58    55    1
    67    71    70    1
    68   108   107   ar
    69   107   109   ar
    70   103   104    1
    71    74    73    1
    72    32    33    2
    73    32    39   am
    74    75    73    1
    75    42    41    2
    76    28    27    1
    77    28    29    2
    78    54    55    1
    79    54    49   am
    80    39    40    1
    81    73    70    1
    82    55    56    1
    83    70    69    1
    84    41    47   am
    85    41    40    1
    86    48    49    1
    87    48    47    1
    88    48    51    1
    89   104   105    2
    90    49    50    2
    91    47    53    1
    92    69    63   am
    93    40    43    1
    94    51    52    1
    95    56    57    2
    96    56    61   am
    97   116   115    1
    98    52    53    1
    99    61    62    1
   100    63    62    1
   101    63    64    2
   102    43    44    1
   103   128   126    1
   104    62    65    1
   105   115   117    1
   106   115   114    1
   107    44    46    1
   108    44    45    1
   109    66    65    1
   110    66    68    1
   111   126   125    2
   112   126   127    1
   113    65    67    1
   114   114   111    1
   115   125   124    1
   116   124   123    1
   117   132   131    2
   118   111   110    1
   119   111   112    1
   120   123   122    1
   121   131   130    1
   122   112   113    2
   123   135   137   ar
   124   135   134   ar
   125   133   130    1
   126   133   134    1
   127   137   139   ar
   128   130   129    1
   129   134   136   ar
   130   139   138   ar
   131   136   138   ar
   132   122   119    1
   133   119   118    1
   134   119   120    1
   135   120   121    2
