@<TRIPOS>MOLECULE
tmp/3rt3A00.pdb
 77 73 0 0 0
SMALL
GASTEIGER

@<TRIPOS>ATOM
      1  N          0.0970  -11.7920   11.0770 N.3    24  SER24      -0.1217
      2  CA         1.0130  -10.8720   10.4090 C.3    24  SER24       0.1889
      3  C          0.2810   -9.9770    9.4280 C.2    24  SER24       0.2288
      4  O          0.5400   -8.7830    9.3590 O.2    24  SER24      -0.2866
      5  CB         2.1190  -11.6250    9.6860 C.3    24  SER24       0.2089
      6  OG         2.8820  -10.7260    8.9030 O.3    24  SER24      -0.2183
      7  N         -1.7590   -7.4430   11.3670 N.3    27  LYS27      -0.1245
      8  CA        -0.9610   -6.3220   11.8820 C.3    27  LYS27       0.1561
      9  C         -0.5860   -5.3720   10.7610 C.2    27  LYS27       0.2260
     10  O         -0.5630   -4.1630   10.9470 O.2    27  LYS27      -0.2867
     11  CB         0.2850   -6.8310   12.5820 C.3    27  LYS27       0.0271
     12  CG         0.0060   -7.6340   13.8460 C.3    27  LYS27       0.0035
     13  CD         1.3210   -7.9360   14.5590 C.3    27  LYS27       0.0206
     14  CE         1.1140   -8.8270   15.7740 C.3    27  LYS27       0.1093
     15  NZ         2.3990   -9.4080   16.3010 N.3    27  LYS27      -0.1314
     16  N          4.1410   -3.0550   13.0250 N.3    38  ALA38      -0.1231
     17  CA         3.6450   -4.3290   13.5200 C.3    38  ALA38       0.1694
     18  C          4.2740   -4.7460   14.8510 C.2    38  ALA38       0.2592
     19  O          3.5620   -5.1600   15.7560 O.2    38  ALA38      -0.2718
     20  CB         3.8140   -5.4300   12.4660 C.3    38  ALA38       0.0304
     21  N          5.5970   -4.6270   14.9930 N.am   39  PHE39      -0.1976
     22  CA         6.2230   -5.0580   16.2410 C.3    39  PHE39       0.1639
     23  C          5.8190   -4.2390   17.4650 C.2    39  PHE39       0.2290
     24  O          6.0640   -4.6560   18.5950 O.2    39  PHE39      -0.2864
     25  CB         7.7470   -5.0940   16.1180 C.3    39  PHE39       0.0560
     26  CG         8.4080   -3.7480   16.2500 C.ar   39  PHE39      -0.0200
     27  CD1        8.9060   -3.3250   17.4700 C.ar   39  PHE39      -0.0042
     28  CD2        8.5360   -2.9100   15.1490 C.ar   39  PHE39      -0.0042
     29  CE1        9.5400   -2.0900   17.5960 C.ar   39  PHE39      -0.0003
     30  CE2        9.1560   -1.6750   15.2710 C.ar   39  PHE39      -0.0003
     31  CZ         9.6560   -1.2670   16.5060 C.ar   39  PHE39      -0.0000
     32  N          0.8020  -15.8540   16.7860 N.3    54  ASP54      -0.1239
     33  CA         1.5130  -15.5700   15.5420 C.3    54  ASP54       0.1674
     34  C          1.5050  -16.6910   14.5240 C.2    54  ASP54       0.2266
     35  O          1.4170  -16.4330   13.3270 O.2    54  ASP54      -0.2867
     36  CB         2.9830  -15.2190   15.8440 C.3    54  ASP54       0.1410
     37  CG         3.1590  -13.8030   16.3510 C.2    54  ASP54       0.3668
     38  OD1        2.1740  -13.2200   16.8530 O.co2  54  ASP54      -0.2456
     39  OD2        4.2870  -13.2690   16.2500 O.co2  54  ASP54      -0.2456
     40  N         12.8570   -3.7590   14.4960 N.3   136  GLY136     -0.1210
     41  CA        12.0570   -4.4290   15.5130 C.3   136  GLY136      0.1956
     42  C         11.2130   -5.5840   14.9970 C.2   136  GLY136      0.2612
     43  O         10.8020   -6.4530   15.7630 O.2   136  GLY136     -0.2717
     44  N         10.9310   -5.5820   13.7000 N.am  137  GLU137     -0.1965
     45  CA        10.1990   -6.6780   13.0720 C.3   137  GLU137      0.1733
     46  C         10.9570   -7.9790   13.2520 C.2   137  GLU137      0.2616
     47  O         10.3760   -9.0590   13.2770 O.2   137  GLU137     -0.2715
     48  CB        10.0110   -6.4070   11.5860 C.3   137  GLU137      0.0429
     49  CG         9.3100   -7.5310   10.8430 C.3   137  GLU137      0.1163
     50  CD         7.8890   -7.7510   11.3270 C.2   137  GLU137      0.3649
     51  OE1        7.3370   -6.8480   11.9930 O.co2 137  GLU137     -0.2457
     52  OE2        7.3200   -8.8290   11.0480 O.co2 137  GLU137     -0.2457
     53  N         12.2700   -7.8630   13.3970 N.am  138  TYR138     -0.1960
     54  CA        13.1240   -9.0320   13.4260 C.3   138  TYR138      0.1771
     55  C         13.5360   -9.4180   14.8320 C.2   138  TYR138      0.2620
     56  O         14.2980  -10.3550   15.0160 O.2   138  TYR138     -0.2715
     57  CB        14.3540   -8.8110   12.5270 C.3   138  TYR138      0.0574
     58  CG        13.9630   -8.6580   11.0720 C.ar  138  TYR138     -0.0198
     59  CD1       13.8300   -7.4040   10.4910 C.ar  138  TYR138     -0.0009
     60  CD2       13.6900   -9.7760   10.2920 C.ar  138  TYR138     -0.0009
     61  CE1       13.4410   -7.2700    9.1660 C.ar  138  TYR138      0.0417
     62  CE2       13.2970   -9.6530    8.9770 C.ar  138  TYR138      0.0417
     63  CZ        13.1850   -8.4010    8.4170 C.ar  138  TYR138      0.1957
     64  OH        12.8150   -8.2920    7.1030 O.3   138  TYR138     -0.2866
     65  N         13.0440   -8.6930   15.8280 N.am  139  GLY139     -0.1954
     66  CA        13.2980   -9.0820   17.2020 C.3   139  GLY139      0.1869
     67  C         14.7600   -9.0220   17.5670 C.2   139  GLY139      0.2309
     68  O         15.2790   -9.8920   18.2560 O.2   139  GLY139     -0.2863
     69  N         17.8520   -7.8970   19.6400 N.3   141  LYS141     -0.1245
     70  CA        18.0370   -7.6310   21.0620 C.3   141  LYS141      0.1561
     71  C         19.3900   -6.9520   21.2510 C.2   141  LYS141      0.2260
     72  O         20.2150   -6.9550   20.3420 O.2   141  LYS141     -0.2867
     73  CB        18.0020   -8.9400   21.8650 C.3   141  LYS141      0.0271
     74  CG        16.8530   -9.8910   21.5290 C.3   141  LYS141      0.0035
     75  CD        15.4840   -9.2310   21.6470 C.3   141  LYS141      0.0206
     76  CE        14.3710  -10.2380   21.3310 C.3   141  LYS141      0.1093
     77  NZ        13.0300   -9.6120   21.1100 N.3   141  LYS141     -0.1314
@<TRIPOS>BOND
     1    64    63    1
     2    63    62   ar
     3    63    61   ar
     4     6     5    1
     5    62    60   ar
     6    61    59   ar
     7     4     3    2
     8     3     2    1
     9     5     2    1
    10    60    58   ar
    11     2     1    1
    12    59    58   ar
    13     9    10    2
    14     9     8    1
    15    49    50    1
    16    49    48    1
    17    52    50   ar
    18    58    57    1
    19    50    51   ar
    20     7     8    1
    21    48    45    1
    22     8    11    1
    23    20    17    1
    24    57    54    1
    25    11    12    1
    26    16    17    1
    27    45    46    1
    28    45    44    1
    29    46    47    2
    30    46    53   am
    31    35    34    2
    32    53    54    1
    33    54    55    1
    34    17    18    1
    35    44    42   am
    36    12    13    1
    37    40    41    1
    38    34    33    1
    39    13    14    1
    40    55    56    2
    41    55    65   am
    42    18    21   am
    43    18    19    2
    44    21    22    1
    45    42    41    1
    46    42    43    2
    47    28    30   ar
    48    28    26   ar
    49    30    31   ar
    50    33    36    1
    51    33    32    1
    52    14    15    1
    53    65    66    1
    54    36    37    1
    55    25    22    1
    56    25    26    1
    57    22    23    1
    58    39    37   ar
    59    26    27   ar
    60    37    38   ar
    61    31    29   ar
    62    66    67    1
    63    23    24    2
    64    27    29   ar
    65    67    68    2
    66    69    70    1
    67    72    71    2
    68    70    71    1
    69    70    73    1
    70    77    76    1
    71    76    75    1
    72    74    75    1
    73    74    73    1
