@<TRIPOS>MOLECULE
tmp/3rt9A03.pdb
 93 92 0 0 0
SMALL
GASTEIGER

@<TRIPOS>ATOM
      1  N          8.2840   43.5450   50.2770 N.3   156  THR156     -0.1203
      2  CA         8.6520   42.6300   49.2090 C.3   156  THR156      0.1994
      3  C          9.2630   41.2890   49.6810 C.2   156  THR156      0.2618
      4  O          9.3050   40.3500   48.8990 O.2   156  THR156     -0.2717
      5  CB         9.7100   43.2350   48.2650 C.3   156  THR156      0.1784
      6  OG1       10.9810   43.3150   48.9500 O.3   156  THR156     -0.2211
      7  CG2        9.2760   44.5980   47.6520 C.3   156  THR156      0.0376
      8  N          9.8320   41.2610   50.8940 N.am  157  GLY157     -0.1942
      9  CA        10.5960   40.1150   51.3730 C.3   157  GLY157      0.2014
     10  C         12.0380   40.0160   50.8750 C.2   157  GLY157      0.2638
     11  O         12.7210   39.0570   51.2130 O.2   157  GLY157     -0.2714
     12  N         12.5000   40.9940   50.0970 N.am  158  LYS158     -0.1977
     13  CA        13.9060   41.0480   49.6600 C.3   158  LYS158      0.1596
     14  C         14.8540   41.4330   50.7970 C.2   158  LYS158      0.2287
     15  O         14.4640   42.0890   51.7490 O.2   158  LYS158     -0.2864
     16  CB        14.0770   42.0480   48.5170 C.3   158  LYS158      0.0298
     17  CG        13.3020   41.7070   47.3230 C.3   158  LYS158      0.0038
     18  CD        13.7680   42.5550   46.1160 C.3   158  LYS158      0.0206
     19  CE        13.3850   41.8940   44.8020 C.3   158  LYS158      0.1093
     20  NZ        14.0940   42.5060   43.6010 N.3   158  LYS158     -0.1314
     21  N          6.8000   36.1810   51.4720 N.3   181  LEU181     -0.1231
     22  CA         7.5840   35.9860   50.2960 C.3   181  LEU181      0.1693
     23  C          9.0320   35.7000   50.6440 C.2   181  LEU181      0.2592
     24  O          9.5450   36.1780   51.6360 O.2   181  LEU181     -0.2718
     25  CB         7.4840   37.2030   49.3560 C.3   181  LEU181      0.0284
     26  CG         6.0490   37.6060   49.0310 C.3   181  LEU181      0.0019
     27  CD1        6.0310   38.8220   48.1010 C.3   181  LEU181      0.0001
     28  CD2        5.2860   36.4560   48.4020 C.3   181  LEU181      0.0001
     29  N          9.7030   34.9260   49.8200 N.am  182  PHE182     -0.1963
     30  CA        11.1270   34.6590   50.0570 C.3   182  PHE182      0.1756
     31  C         11.9870   35.7610   49.4190 C.2   182  PHE182      0.2461
     32  O         11.5860   36.3190   48.4160 O.2   182  PHE182     -0.2730
     33  CB        11.5300   33.3170   49.4690 C.3   182  PHE182      0.0574
     34  CG        10.9600   32.1540   50.1810 C.ar  182  PHE182     -0.0200
     35  CD1        9.7210   31.6420   49.8160 C.ar  182  PHE182     -0.0042
     36  CD2       11.6570   31.5550   51.2320 C.ar  182  PHE182     -0.0042
     37  CE1        9.1940   30.5540   50.4980 C.ar  182  PHE182     -0.0003
     38  CE2       11.1330   30.4680   51.8850 C.ar  182  PHE182     -0.0003
     39  CZ         9.8960   29.9630   51.5140 C.ar  182  PHE182     -0.0000
     40  N         13.2070   35.9930   49.9400 N.am  183  PRO183     -0.2727
     41  CA        13.8820   35.2560   51.0080 C.3   183  PRO183      0.1402
     42  C         13.4130   35.5460   52.4180 C.2   183  PRO183      0.2269
     43  O         13.7470   34.7930   53.3620 O.2   183  PRO183     -0.2865
     44  CB        15.3490   35.6760   50.8360 C.3   183  PRO183      0.0296
     45  CG        15.3100   36.9440   50.1310 C.3   183  PRO183      0.0237
     46  CD        14.1450   36.8590   49.2040 C.3   183  PRO183      0.0939
     47  N         11.5770   39.6530   32.3190 N.3   377  THR377     -0.1203
     48  CA        12.5110   38.6850   32.8340 C.3   377  THR377      0.1994
     49  C         11.8780   37.9900   34.0300 C.2   377  THR377      0.2618
     50  O         10.9460   38.5380   34.6730 O.2   377  THR377     -0.2717
     51  CB        13.8280   39.4120   33.2520 C.3   377  THR377      0.1784
     52  OG1       13.5730   40.1300   34.4550 O.3   377  THR377     -0.2211
     53  CG2       14.3250   40.4210   32.1490 C.3   377  THR377      0.0376
     54  N         12.3600   36.7890   34.3420 N.am  378  VAL378     -0.1965
     55  CA        11.9140   36.0640   35.4990 C.3   378  VAL378      0.1727
     56  C         12.0710   36.8860   36.7680 C.2   378  VAL378      0.2616
     57  O         11.1970   36.9200   37.6040 O.2   378  VAL378     -0.2715
     58  CB        12.6820   34.7260   35.6430 C.3   378  VAL378      0.0290
     59  CG1       12.4370   34.0970   37.0640 C.3   378  VAL378      0.0023
     60  CG2       12.2970   33.7980   34.5180 C.3   378  VAL378      0.0023
     61  N         13.2200   37.5190   36.9400 N.am  379  GLY379     -0.1955
     62  CA        13.4390   38.4200   38.0850 C.3   379  GLY379      0.1869
     63  C         12.4470   39.5780   38.2300 C.2   379  GLY379      0.2309
     64  O         12.1510   39.9770   39.3150 O.2   379  GLY379     -0.2863
     65  N          8.9350   37.3860   39.3670 N.3   382  LYS382     -0.1231
     66  CA         8.9330   36.5090   40.5010 C.3   382  LYS382      0.1693
     67  C          8.4700   37.2390   41.7680 C.2   382  LYS382      0.2592
     68  O          9.0350   38.2810   42.1300 O.2   382  LYS382     -0.2718
     69  CB        10.3140   35.9150   40.7420 C.3   382  LYS382      0.0285
     70  CG        10.1810   34.7700   41.7050 C.3   382  LYS382      0.0035
     71  CD        11.3840   33.8720   41.8470 C.3   382  LYS382      0.0206
     72  CE        11.0250   32.7200   42.8680 C.3   382  LYS382      0.1093
     73  NZ        12.2610   31.9030   43.1360 N.3   382  LYS382     -0.1314
     74  N          7.4480   36.6960   42.4270 N.am  383  TYR383     -0.1962
     75  CA         6.8970   37.3090   43.6640 C.3   383  TYR383      0.1771
     76  C          6.4240   38.7350   43.4750 C.2   383  TYR383      0.2619
     77  O          6.2680   39.4570   44.4590 O.2   383  TYR383     -0.2715
     78  CB         7.8770   37.2480   44.8420 C.3   383  TYR383      0.0574
     79  CG         8.1340   35.8550   45.3130 C.ar  383  TYR383     -0.0198
     80  CD1        7.0910   34.9360   45.4680 C.ar  383  TYR383     -0.0009
     81  CD2        9.4340   35.4050   45.5420 C.ar  383  TYR383     -0.0009
     82  CE1        7.3140   33.6280   45.8580 C.ar  383  TYR383      0.0417
     83  CE2        9.6620   34.0700   45.9880 C.ar  383  TYR383      0.0417
     84  CZ         8.5900   33.1870   46.1180 C.ar  383  TYR383      0.1957
     85  OH         8.7870   31.8570   46.5170 O.3   383  TYR383     -0.2866
     86  N          6.1750   39.1360   42.2090 N.am  384  ASN384     -0.1972
     87  CA         5.7020   40.4940   41.8970 C.3   384  ASN384      0.1688
     88  C          4.1700   40.5320   41.9580 C.2   384  ASN384      0.2292
     89  O          3.4670   40.3380   40.9450 O.2   384  ASN384     -0.2864
     90  CB         6.2840   40.9640   40.5270 C.3   384  ASN384      0.1181
     91  CG         6.0350   42.4310   40.2660 C.2   384  ASN384      0.2629
     92  OD1        5.1330   43.0200   40.8860 O.2   384  ASN384     -0.2716
     93  ND2        6.7590   43.0210   39.3130 N.am  384  ASN384     -0.0877
@<TRIPOS>BOND
     1    53    51    1
     2    47    48    1
     3    48    51    1
     4    48    49    1
     5    51    52    1
     6    49    54   am
     7    49    50    2
     8    54    55    1
     9    60    58    1
    10    55    58    1
    11    55    56    1
    12    58    59    1
    13    56    61   am
    14    56    57    2
    15    61    62    1
    16    62    63    1
    17    63    64    2
    18    93    91   am
    19    65    66    1
    20    91    90    1
    21    91    92    2
    22    66    69    1
    23    66    67    1
    24    90    87    1
    25    69    70    1
    26    89    88    2
    27    70    71    1
    28    67    68    2
    29    67    74   am
    30    71    72    1
    31    87    88    1
    32    87    86    1
    33    86    76   am
    34    74    75    1
    35    72    73    1
    36    76    75    1
    37    76    77    2
    38    20    19    1
    39    75    78    1
    40    19    18    1
    41    78    79    1
    42    79    80   ar
    43    79    81   ar
    44    80    82   ar
    45    81    83   ar
    46    82    84   ar
    47    83    84   ar
    48    18    17    1
    49    84    85    1
    50    17    16    1
    51     7     5    1
    52    27    26    1
    53     5     6    1
    54     5     2    1
    55    28    26    1
    56    32    31    2
    57    16    13    1
    58     4     3    2
    59    26    25    1
    60    46    40    1
    61    46    45    1
    62     2     3    1
    63     2     1    1
    64    25    22    1
    65    31    40   am
    66    31    30    1
    67    33    30    1
    68    33    34    1
    69    13    12    1
    70    13    14    1
    71     3     8   am
    72    35    34   ar
    73    35    37   ar
    74    29    30    1
    75    29    23   am
    76    40    41    1
    77    12    10   am
    78    45    44    1
    79    34    36   ar
    80    22    23    1
    81    22    21    1
    82    37    39   ar
    83    23    24    2
    84    14    15    2
    85    44    41    1
    86    10    11    2
    87    10     9    1
    88     8     9    1
    89    41    42    1
    90    36    38   ar
    91    39    38   ar
    92    42    43    2
