@<TRIPOS>MOLECULE
tmp/3rt9A02.pdb
 105 101 0 0 0
SMALL
GASTEIGER

@<TRIPOS>ATOM
      1  N          4.9670   13.7510   22.5150 N.3   243  LEU243     -0.1231
      2  CA         6.1110   14.0250   23.3850 C.3   243  LEU243      0.1693
      3  C          5.7750   13.8430   24.8250 C.2   243  LEU243      0.2592
      4  O          6.6200   13.4030   25.5960 O.2   243  LEU243     -0.2718
      5  CB         6.5780   15.4790   23.2630 C.3   243  LEU243      0.0284
      6  CG         7.1890   16.0210   22.0140 C.3   243  LEU243      0.0019
      7  CD1        7.5990   17.5110   22.4020 C.3   243  LEU243      0.0001
      8  CD2        8.3940   15.1770   21.6410 C.3   243  LEU243      0.0001
      9  N          4.5780   14.2720   25.2130 N.am  244  TYR244     -0.1976
     10  CA         4.2210   14.4000   26.6330 C.3   244  TYR244      0.1639
     11  C          2.9760   13.6060   26.9520 C.2   244  TYR244      0.2290
     12  O          1.8960   14.1780   27.0460 O.2   244  TYR244     -0.2864
     13  CB         3.9550   15.8590   27.0220 C.3   244  TYR244      0.0560
     14  CG         5.1190   16.7220   26.7830 C.ar  244  TYR244     -0.0198
     15  CD1        6.2990   16.5320   27.5010 C.ar  244  TYR244     -0.0009
     16  CD2        5.0770   17.7220   25.8330 C.ar  244  TYR244     -0.0009
     17  CE1        7.4200   17.3270   27.2550 C.ar  244  TYR244      0.0417
     18  CE2        6.1620   18.5400   25.6040 C.ar  244  TYR244      0.0417
     19  CZ         7.3450   18.3440   26.3150 C.ar  244  TYR244      0.1957
     20  OH         8.4390   19.1160   26.0390 O.3   244  TYR244     -0.2866
     21  N          2.2280   29.2730   27.1960 N.3   347  ASN347     -0.1240
     22  CA         3.3260   29.5590   26.2830 C.3   347  ASN347      0.1653
     23  C          2.8860   30.0370   24.8920 C.2   347  ASN347      0.2266
     24  O          3.5790   30.7890   24.2580 O.2   347  ASN347     -0.2867
     25  CB         4.2610   28.3080   26.1460 C.3   347  ASN347      0.1155
     26  CG         5.0080   27.9950   27.4280 C.2   347  ASN347      0.2627
     27  OD1        5.2490   28.8780   28.2470 O.2   347  ASN347     -0.2716
     28  ND2        5.3430   26.7170   27.6330 N.am  347  ASN347     -0.0877
     29  N          4.0790   29.1940   36.1750 N.3   366  HIS366     -0.1227
     30  CA         5.2670   29.4230   36.9910 C.3   366  HIS366      0.1737
     31  C          5.9480   30.7150   36.4970 C.2   366  HIS366      0.2438
     32  O          5.5330   31.2880   35.4810 O.2   366  HIS366     -0.2733
     33  CB         6.1880   28.1790   37.0760 C.3   366  HIS366      0.0758
     34  CG         6.7630   27.7090   35.7820 C.ar  366  HIS366      0.0818
     35  ND1        7.6330   28.4740   35.0350 N.ar  366  HIS366     -0.2268
     36  CD2        6.6180   26.5350   35.1160 C.ar  366  HIS366      0.1154
     37  CE1        8.0060   27.7860   33.9630 C.ar  366  HIS366      0.1986
     38  NE2        7.3980   26.6070   33.9840 N.ar  366  HIS366     -0.2212
     39  N          6.9370   31.2340   37.2400 N.am  367  PRO367     -0.2718
     40  CA         7.5200   32.5180   36.8270 C.3   367  PRO367      0.1535
     41  C          8.1690   32.5170   35.4070 C.2   367  PRO367      0.2599
     42  O          8.2370   33.5600   34.7570 O.2   367  PRO367     -0.2715
     43  CB         8.5960   32.7880   37.9060 C.3   367  PRO367      0.0310
     44  CG         8.0450   32.0720   39.1670 C.3   367  PRO367      0.0237
     45  CD         7.2820   30.8630   38.6280 C.3   367  PRO367      0.0939
     46  N          8.6710   31.3760   34.9480 N.am  368  GLY368     -0.1941
     47  CA         9.1860   31.3280   33.5750 C.3   368  GLY368      0.2014
     48  C          8.0730   31.5540   32.5780 C.2   368  GLY368      0.2638
     49  O          8.2160   32.2920   31.5670 O.2   368  GLY368     -0.2714
     50  N          6.9460   30.9040   32.8280 N.am  369  GLU369     -0.1977
     51  CA         5.7960   31.0630   31.9590 C.3   369  GLU369      0.1602
     52  C          5.1980   32.4650   32.0690 C.2   369  GLU369      0.2287
     53  O          4.7940   33.0610   31.0920 O.2   369  GLU369     -0.2864
     54  CB         4.7290   30.0030   32.3290 C.3   369  GLU369      0.0415
     55  CG         5.1610   28.6240   31.8620 C.3   369  GLU369      0.1163
     56  CD         4.4570   27.4850   32.5500 C.2   369  GLU369      0.3649
     57  OE1        3.8380   27.7210   33.6010 O.co2 369  GLU369     -0.2457
     58  OE2        4.6200   26.3430   32.0790 O.co2 369  GLU369     -0.2457
     59  N          7.4220   34.9720   30.0830 N.3   372  ARG372     -0.1245
     60  CA         7.1020   34.8660   28.6360 C.3   372  ARG372      0.1563
     61  C          5.7680   35.5000   28.3030 C.2   372  ARG372      0.2260
     62  O          5.6540   36.1920   27.3320 O.2   372  ARG372     -0.2867
     63  CB         7.1260   33.3970   28.1630 C.3   372  ARG372      0.0307
     64  CG         8.5510   32.9190   28.0060 C.3   372  ARG372      0.0489
     65  CD         8.6520   31.6010   27.2390 C.3   372  ARG372      0.2205
     66  NE         8.0260   30.5650   28.0220 N.pl3 372  ARG372     -0.0865
     67  CZ         8.6490   29.6630   28.7730 C.cat 372  ARG372      0.5346
     68  NH1        9.9590   29.5960   28.8380 N.pl3 372  ARG372      0.1354
     69  NH2        7.9370   28.7950   29.4560 N.pl3 372  ARG372      0.1354
     70  N         12.3600   36.7890   34.3420 N.3   378  VAL378     -0.1245
     71  CA        11.9140   36.0640   35.4990 C.3   378  VAL378      0.1561
     72  C         12.0710   36.8860   36.7680 C.2   378  VAL378      0.2260
     73  O         11.1970   36.9200   37.6040 O.2   378  VAL378     -0.2867
     74  CB        12.6820   34.7260   35.6430 C.3   378  VAL378      0.0252
     75  CG1       12.4370   34.0970   37.0640 C.3   378  VAL378      0.0019
     76  CG2       12.2970   33.7980   34.5180 C.3   378  VAL378      0.0019
     77  N          8.9350   37.3860   39.3670 N.3   382  LYS382     -0.1245
     78  CA         8.9330   36.5090   40.5010 C.3   382  LYS382      0.1561
     79  C          8.4700   37.2390   41.7680 C.2   382  LYS382      0.2260
     80  O          9.0350   38.2810   42.1300 O.2   382  LYS382     -0.2867
     81  CB        10.3140   35.9150   40.7420 C.3   382  LYS382      0.0271
     82  CG        10.1810   34.7700   41.7050 C.3   382  LYS382      0.0035
     83  CD        11.3840   33.8720   41.8470 C.3   382  LYS382      0.0206
     84  CE        11.0250   32.7200   42.8680 C.3   382  LYS382      0.1093
     85  NZ        12.2610   31.9030   43.1360 N.3   382  LYS382     -0.1314
     86  N          2.5440   30.4450   40.5100 N.3   402  LYS402     -0.1231
     87  CA         3.1530   29.3850   41.3070 C.3   402  LYS402      0.1693
     88  C          4.6230   29.6760   41.7420 C.2   402  LYS402      0.2593
     89  O          5.4120   30.1650   40.9690 O.2   402  LYS402     -0.2718
     90  CB         3.1010   28.0960   40.4940 C.3   402  LYS402      0.0285
     91  CG         1.6800   27.6270   40.2360 C.3   402  LYS402      0.0035
     92  CD         1.6200   26.3140   39.5110 C.3   402  LYS402      0.0206
     93  CE         2.3560   26.3520   38.2120 C.3   402  LYS402      0.1093
     94  NZ         1.9530   25.1970   37.3270 N.3   402  LYS402     -0.1314
     95  N          4.9560   29.3920   42.9850 N.am  403  SER403     -0.1938
     96  CA         6.3140   29.3880   43.5020 C.3   403  SER403      0.2055
     97  C          6.2000   28.8010   44.9250 C.2   403  SER403      0.2642
     98  O          5.1040   28.3860   45.3320 O.2   403  SER403     -0.2714
     99  CB         6.9020   30.8160   43.5520 C.3   403  SER403      0.2130
    100  OG         7.4000   31.2400   42.2840 O.3   403  SER403     -0.2179
    101  N          7.2920   28.7500   45.6800 N.am  404  ALA404     -0.1977
    102  CA         7.1950   28.2170   47.0330 C.3   404  ALA404      0.1597
    103  C          6.0830   28.9140   47.8190 C.2   404  ALA404      0.2287
    104  O          5.3230   28.2730   48.5290 O.2   404  ALA404     -0.2864
    105  CB         8.5490   28.2790   47.7780 C.3   404  ALA404      0.0319
@<TRIPOS>BOND
     1     8     6    1
     2     6     7    1
     3     6     5    1
     4     1     2    1
     5     5     2    1
     6     2     3    1
     7    24    23    2
     8     3     9   am
     9     3     4    2
    10    23    22    1
    11     9    10    1
    12    18    16   ar
    13    18    19   ar
    14    16    14   ar
    15    20    19    1
    16    25    22    1
    17    25    26    1
    18    22    21    1
    19    19    17   ar
    20    10    11    1
    21    10    13    1
    22    14    13    1
    23    14    15   ar
    24    11    12    2
    25    65    64    1
    26    65    66    1
    27    17    15   ar
    28    62    61    2
    29    26    28   am
    30    26    27    2
    31    64    63    1
    32    66    67    2
    33    63    60    1
    34    61    60    1
    35    60    59    1
    36    67    68    1
    37    67    69    1
    38    53    52    2
    39    49    48    2
    40    55    54    1
    41    55    56    1
    42    51    52    1
    43    51    54    1
    44    51    50    1
    45    58    56   ar
    46    56    57   ar
    47    48    50   am
    48    48    47    1
    49    47    46    1
    50    37    38   ar
    51    37    35   ar
    52    38    36   ar
    53    70    71    1
    54    76    74    1
    55    42    41    2
    56    46    41   am
    57    35    34   ar
    58    36    34   ar
    59    41    40    1
    60    32    31    2
    61    71    74    1
    62    71    72    1
    63    74    75    1
    64    34    33    1
    65    29    30    1
    66    31    30    1
    67    31    39   am
    68    72    73    2
    69    40    39    1
    70    40    43    1
    71    30    33    1
    72    39    45    1
    73    94    93    1
    74    43    44    1
    75    93    92    1
    76    45    44    1
    77    77    78    1
    78    92    91    1
    79    91    90    1
    80    90    87    1
    81    78    81    1
    82    78    79    1
    83    86    87    1
    84    81    82    1
    85    89    88    2
    86    87    88    1
    87    82    83    1
    88    88    95   am
    89    79    80    2
    90    83    84    1
    91   100    99    1
    92    84    85    1
    93    95    96    1
    94    96    99    1
    95    96    97    1
    96    97    98    2
    97    97   101   am
    98   101   102    1
    99   102   105    1
   100   102   103    1
   101   103   104    2
