@<TRIPOS>MOLECULE
tmp/3rt9A04.pdb
 90 89 0 0 0
SMALL
GASTEIGER

@<TRIPOS>ATOM
      1  N          2.4000   13.4820   21.4740 N.3   242  ARG242     -0.1231
      2  CA         3.3000   12.3390   21.3590 C.3   242  ARG242      0.1694
      3  C          4.5880   12.5110   22.2320 C.2   242  ARG242      0.2592
      4  O          5.1890   11.5100   22.6560 O.2   242  ARG242     -0.2718
      5  CB         3.6700   12.0620   19.9120 C.3   242  ARG242      0.0321
      6  CG         4.6920   13.0320   19.4370 C.3   242  ARG242      0.0489
      7  CD         4.8430   12.9730   17.9130 C.3   242  ARG242      0.2205
      8  NE         5.7790   11.9570   17.4950 N.pl3 242  ARG242     -0.0865
      9  CZ         7.0560   12.1710   17.1910 C.cat 242  ARG242      0.5346
     10  NH1        7.8020   11.1340   16.8080 N.pl3 242  ARG242      0.1354
     11  NH2        7.5850   13.4010   17.2660 N.pl3 242  ARG242      0.1354
     12  N          4.9670   13.7510   22.5150 N.am  243  LEU243     -0.1966
     13  CA         6.1110   14.0250   23.3850 C.3   243  LEU243      0.1728
     14  C          5.7750   13.8430   24.8250 C.2   243  LEU243      0.2616
     15  O          6.6200   13.4030   25.5960 O.2   243  LEU243     -0.2715
     16  CB         6.5780   15.4790   23.2630 C.3   243  LEU243      0.0311
     17  CG         7.1890   16.0210   22.0140 C.3   243  LEU243      0.0022
     18  CD1        7.5990   17.5110   22.4020 C.3   243  LEU243      0.0001
     19  CD2        8.3940   15.1770   21.6410 C.3   243  LEU243      0.0001
     20  N          4.5780   14.2720   25.2130 N.am  244  TYR244     -0.1974
     21  CA         4.2210   14.4000   26.6330 C.3   244  TYR244      0.1639
     22  C          2.9760   13.6060   26.9520 C.2   244  TYR244      0.2290
     23  O          1.8960   14.1780   27.0460 O.2   244  TYR244     -0.2864
     24  CB         3.9550   15.8590   27.0220 C.3   244  TYR244      0.0560
     25  CG         5.1190   16.7220   26.7830 C.ar  244  TYR244     -0.0198
     26  CD1        6.2990   16.5320   27.5010 C.ar  244  TYR244     -0.0009
     27  CD2        5.0770   17.7220   25.8330 C.ar  244  TYR244     -0.0009
     28  CE1        7.4200   17.3270   27.2550 C.ar  244  TYR244      0.0417
     29  CE2        6.1620   18.5400   25.6040 C.ar  244  TYR244      0.0417
     30  CZ         7.3450   18.3440   26.3150 C.ar  244  TYR244      0.1957
     31  OH         8.4390   19.1160   26.0390 O.3   244  TYR244     -0.2866
     32  N          0.4460   14.6590   13.3110 N.3   291  LYS291     -0.1245
     33  CA         1.8150   14.3280   13.7390 C.3   291  LYS291      0.1561
     34  C          1.9760   14.2090   15.2560 C.2   291  LYS291      0.2260
     35  O          3.0840   14.3050   15.7540 O.2   291  LYS291     -0.2867
     36  CB         2.7710   15.4150   13.2670 C.3   291  LYS291      0.0271
     37  CG         2.5350   15.7840   11.8140 C.3   291  LYS291      0.0035
     38  CD         3.7840   16.3340   11.1830 C.3   291  LYS291      0.0206
     39  CE         3.6410   16.4670    9.6640 C.3   291  LYS291      0.1093
     40  NZ         4.8820   17.0580    9.1450 N.3   291  LYS291     -0.1314
     41  N          0.2740   16.1170   17.6660 N.3   293  PHE293     -0.1241
     42  CA        -0.0330   17.3410   18.3990 C.3   293  PHE293      0.1605
     43  C         -1.3870   17.8710   17.9310 C.2   293  PHE293      0.2264
     44  O         -1.7300   17.7610   16.7590 O.2   293  PHE293     -0.2867
     45  CB         1.0190   18.4300   18.1530 C.3   293  PHE293      0.0534
     46  CG         2.4250   18.0140   18.4840 C.ar  293  PHE293     -0.0203
     47  CD1        2.9620   18.2620   19.7560 C.ar  293  PHE293     -0.0042
     48  CD2        3.2210   17.3880   17.5270 C.ar  293  PHE293     -0.0042
     49  CE1        4.2450   17.8510   20.0650 C.ar  293  PHE293     -0.0003
     50  CE2        4.5170   16.9990   17.8220 C.ar  293  PHE293     -0.0003
     51  CZ         5.0270   17.2330   19.0970 C.ar  293  PHE293     -0.0000
     52  N          2.6950   20.6460   23.9980 N.3   319  GLY319     -0.1210
     53  CA         3.7530   20.9930   23.0620 C.3   319  GLY319      0.1956
     54  C          3.5780   22.4190   22.6650 C.2   319  GLY319      0.2612
     55  O          2.5080   23.0120   22.7950 O.2   319  GLY319     -0.2717
     56  N          4.6390   22.9910   22.1600 N.am  320  ASN320     -0.1960
     57  CA         4.6060   24.3400   21.7310 C.3   320  ASN320      0.1819
     58  C          5.1940   24.4440   20.3200 C.2   320  ASN320      0.2621
     59  O          6.4220   24.3570   20.1630 O.2   320  ASN320     -0.2715
     60  CB         5.4590   25.1470   22.6680 C.3   320  ASN320      0.1195
     61  CG         5.8420   26.4370   22.0670 C.2   320  ASN320      0.2630
     62  OD1        5.4050   26.7540   20.9370 O.2   320  ASN320     -0.2716
     63  ND2        6.6990   27.1760   22.7490 N.am  320  ASN320     -0.0877
     64  N          4.3270   24.5120   19.3240 N.am  321  ASN321     -0.1958
     65  CA         4.6900   24.7600   17.9480 C.3   321  ASN321      0.1819
     66  C          3.5460   25.6190   17.3970 C.2   321  ASN321      0.2621
     67  O          2.5400   25.8420   18.1050 O.2   321  ASN321     -0.2715
     68  CB         4.8600   23.4530   17.1440 C.3   321  ASN321      0.1195
     69  CG         3.6240   22.5710   17.1570 C.2   321  ASN321      0.2630
     70  OD1        2.5270   22.9850   16.7300 O.2   321  ASN321     -0.2716
     71  ND2        3.8010   21.3270   17.6180 N.am  321  ASN321     -0.0877
     72  N          3.6930   26.0780   16.1640 N.am  322  GLU322     -0.1963
     73  CA         2.7400   27.0010   15.5620 C.3   322  GLU322      0.1733
     74  C          1.3520   26.4480   15.4360 C.2   322  GLU322      0.2616
     75  O          0.4000   27.2010   15.5740 O.2   322  GLU322     -0.2715
     76  CB         3.2040   27.4680   14.1640 C.3   322  GLU322      0.0429
     77  CG         3.9330   28.7930   14.2440 C.3   322  GLU322      0.1163
     78  CD         3.0300   29.9350   14.7550 C.2   322  GLU322      0.3649
     79  OE1        2.0160   30.2490   14.0660 O.co2 322  GLU322     -0.2457
     80  OE2        3.3400   30.4980   15.8410 O.co2 322  GLU322     -0.2457
     81  N          1.2340   25.1560   15.1580 N.am  323  HIS323     -0.1973
     82  CA        -0.0690   24.5340   14.9860 C.3   323  HIS323      0.1656
     83  C         -0.8240   24.3920   16.3250 C.2   323  HIS323      0.2291
     84  O         -2.0480   24.5740   16.3750 O.2   323  HIS323     -0.2864
     85  CB         0.0890   23.1900   14.2510 C.3   323  HIS323      0.0771
     86  CG         0.4940   23.3520   12.8120 C.ar  323  HIS323      0.0820
     87  ND1        0.8720   22.2990   12.0150 N.ar  323  HIS323     -0.2267
     88  CD2        0.5450   24.4550   12.0200 C.ar  323  HIS323      0.1154
     89  CE1        1.1250   22.7380   10.7920 C.ar  323  HIS323      0.1986
     90  NE2        0.9520   24.0470   10.7730 N.ar  323  HIS323     -0.2212
@<TRIPOS>BOND
     1    40    39    1
     2    39    38    1
     3    90    89   ar
     4    90    88   ar
     5    89    87   ar
     6    38    37    1
     7    37    36    1
     8    87    86   ar
     9    88    86   ar
    10    86    85    1
    11    36    33    1
    12    32    33    1
    13    33    34    1
    14    79    78   ar
    15    76    77    1
    16    76    73    1
    17    77    78    1
    18    85    82    1
    19    78    80   ar
    20    82    81    1
    21    82    83    1
    22    81    74   am
    23    34    35    2
    24    74    73    1
    25    74    75    2
    26    73    72    1
    27    72    66   am
    28    83    84    2
    29    70    69    2
    30    44    43    2
    31    10     9    1
    32    68    69    1
    33    68    65    1
    34    69    71   am
    35     9    11    1
    36     9     8    2
    37    66    65    1
    38    66    67    2
    39     8     7    1
    40    48    50   ar
    41    48    46   ar
    42    41    42    1
    43    50    51   ar
    44     7     6    1
    45    43    42    1
    46    65    64    1
    47    45    42    1
    48    45    46    1
    49    46    47   ar
    50    51    49   ar
    51    64    58   am
    52     6     5    1
    53    47    49   ar
    54     5     2    1
    55    59    58    2
    56    58    57    1
    57    62    61    2
    58     2     1    1
    59     2     3    1
    60    19    17    1
    61    57    56    1
    62    57    60    1
    63    17    18    1
    64    17    16    1
    65    61    60    1
    66    61    63   am
    67    56    54   am
    68     3    12   am
    69     3     4    2
    70    12    13    1
    71    54    55    2
    72    54    53    1
    73    53    52    1
    74    16    13    1
    75    13    14    1
    76    14    20   am
    77    14    15    2
    78    20    21    1
    79    29    27   ar
    80    29    30   ar
    81    27    25   ar
    82    31    30    1
    83    30    28   ar
    84    21    22    1
    85    21    24    1
    86    25    24    1
    87    25    26   ar
    88    22    23    2
    89    28    26   ar
