@<TRIPOS>MOLECULE
tmp/3rtaA02.pdb
 76 72 0 0 0
SMALL
GASTEIGER

@<TRIPOS>ATOM
      1  N         -2.1930  -29.3200  -50.5010 N.3   347  ASN347     -0.1240
      2  CA        -3.3040  -29.6090  -51.4220 C.3   347  ASN347      0.1653
      3  C         -2.8950  -30.0850  -52.8380 C.2   347  ASN347      0.2266
      4  O         -3.6200  -30.8480  -53.4360 O.2   347  ASN347     -0.2867
      5  CB        -4.2490  -28.3680  -51.5600 C.3   347  ASN347      0.1155
      6  CG        -5.0120  -28.0560  -50.2720 C.2   347  ASN347      0.2627
      7  OD1       -5.3570  -28.9750  -49.5020 O.2   347  ASN347     -0.2716
      8  ND2       -5.3060  -26.7520  -50.0370 N.am  347  ASN347     -0.0877
      9  N         -4.0950  -29.2330  -41.5660 N.3   366  HIS366     -0.1227
     10  CA        -5.2550  -29.4520  -40.7090 C.3   366  HIS366      0.1737
     11  C         -5.9560  -30.7500  -41.2100 C.2   366  HIS366      0.2438
     12  O         -5.5500  -31.3020  -42.2480 O.2   366  HIS366     -0.2733
     13  CB        -6.1390  -28.1870  -40.6270 C.3   366  HIS366      0.0758
     14  CG        -6.7540  -27.7540  -41.9290 C.ar  366  HIS366      0.0818
     15  ND1       -7.5870  -28.5680  -42.6590 N.ar  366  HIS366     -0.2268
     16  CD2       -6.6710  -26.5880  -42.6190 C.ar  366  HIS366      0.1154
     17  CE1       -8.0060  -27.9170  -43.7380 C.ar  366  HIS366      0.1986
     18  NE2       -7.4450  -26.7210  -43.7480 N.ar  366  HIS366     -0.2212
     19  N         -6.9520  -31.2880  -40.4860 N.am  367  PRO367     -0.2718
     20  CA        -7.5710  -32.5680  -40.8920 C.3   367  PRO367      0.1535
     21  C         -8.1910  -32.5830  -42.2780 C.2   367  PRO367      0.2599
     22  O         -8.2350  -33.6180  -42.9090 O.2   367  PRO367     -0.2715
     23  CB        -8.6670  -32.8000  -39.8290 C.3   367  PRO367      0.0310
     24  CG        -8.0640  -32.1650  -38.5560 C.3   367  PRO367      0.0237
     25  CD        -7.3010  -30.9310  -39.0900 C.3   367  PRO367      0.0939
     26  N         -8.6800  -31.4440  -42.7450 N.am  368  GLY368     -0.1941
     27  CA        -9.1760  -31.3790  -44.1060 C.3   368  GLY368      0.2014
     28  C         -8.0910  -31.6220  -45.1270 C.2   368  GLY368      0.2638
     29  O         -8.2770  -32.3330  -46.1360 O.2   368  GLY368     -0.2714
     30  N         -6.9540  -31.0020  -44.8850 N.am  369  GLU369     -0.1977
     31  CA        -5.7990  -31.1540  -45.7800 C.3   369  GLU369      0.1602
     32  C         -5.1900  -32.5590  -45.6820 C.2   369  GLU369      0.2287
     33  O         -4.8020  -33.1310  -46.7020 O.2   369  GLU369     -0.2864
     34  CB        -4.7390  -30.0880  -45.4660 C.3   369  GLU369      0.0415
     35  CG        -5.1370  -28.7110  -45.9070 C.3   369  GLU369      0.1163
     36  CD        -4.4340  -27.5640  -45.1590 C.2   369  GLU369      0.3649
     37  OE1       -3.7920  -27.8010  -44.1370 O.co2 369  GLU369     -0.2457
     38  OE2       -4.5950  -26.4020  -45.5800 O.co2 369  GLU369     -0.2457
     39  N         -7.4340  -35.0500  -47.6130 N.3   372  ARG372     -0.1245
     40  CA        -7.1730  -34.9470  -49.0530 C.3   372  ARG372      0.1563
     41  C         -5.8450  -35.5760  -49.3910 C.2   372  ARG372      0.2260
     42  O         -5.7260  -36.2560  -50.3790 O.2   372  ARG372     -0.2867
     43  CB        -7.2170  -33.4880  -49.5380 C.3   372  ARG372      0.0307
     44  CG        -8.6540  -33.1150  -49.9260 C.3   372  ARG372      0.0489
     45  CD        -8.7690  -31.7380  -50.6120 C.3   372  ARG372      0.2205
     46  NE        -8.0860  -30.7030  -49.8400 N.pl3 372  ARG372     -0.0865
     47  CZ        -8.6590  -29.8580  -48.9780 C.cat 372  ARG372      0.5346
     48  NH1       -9.9670  -29.8780  -48.7320 N.pl3 372  ARG372      0.1354
     49  NH2       -7.9070  -28.9810  -48.3550 N.pl3 372  ARG372      0.1354
     50  N        -12.3270  -36.8690  -43.3010 N.3   378  VAL378     -0.1245
     51  CA       -11.8800  -36.0930  -42.1410 C.3   378  VAL378      0.1561
     52  C        -12.0350  -36.8800  -40.8560 C.2   378  VAL378      0.2260
     53  O        -11.1750  -36.8720  -40.0160 O.2   378  VAL378     -0.2867
     54  CB       -12.6940  -34.7900  -42.0110 C.3   378  VAL378      0.0252
     55  CG1      -12.4610  -34.1220  -40.6450 C.3   378  VAL378      0.0019
     56  CG2      -12.4010  -33.8490  -43.2200 C.3   378  VAL378      0.0019
     57  N         -8.9370  -37.4600  -38.2900 N.3   382  LYS382     -0.1245
     58  CA        -8.8940  -36.5480  -37.1790 C.3   382  LYS382      0.1561
     59  C         -8.4310  -37.2620  -35.9170 C.2   382  LYS382      0.2260
     60  O         -8.9870  -38.3070  -35.5630 O.2   382  LYS382     -0.2867
     61  CB       -10.2600  -35.9110  -36.9190 C.3   382  LYS382      0.0271
     62  CG       -10.0740  -34.6870  -35.9960 C.3   382  LYS382      0.0035
     63  CD       -11.2800  -33.8190  -35.8710 C.3   382  LYS382      0.0206
     64  CE       -11.0260  -32.6860  -34.8020 C.3   382  LYS382      0.1093
     65  NZ       -12.3040  -31.9480  -34.5280 N.3   382  LYS382     -0.1314
     66  N         -4.9760  -29.4050  -34.7160 N.3   403  SER403     -0.1202
     67  CA        -6.3420  -29.4150  -34.1950 C.3   403  SER403      0.2020
     68  C         -6.2010  -28.8240  -32.8000 C.2   403  SER403      0.2618
     69  O         -5.0800  -28.4170  -32.3690 O.2   403  SER403     -0.2717
     70  CB        -6.9490  -30.8390  -34.1210 C.3   403  SER403      0.2103
     71  OG        -7.3830  -31.3140  -35.3840 O.3   403  SER403     -0.2182
     72  N         -7.2880  -28.8490  -32.0320 N.am  404  ALA404     -0.1979
     73  CA        -7.2200  -28.2670  -30.6880 C.3   404  ALA404      0.1597
     74  C         -6.1280  -28.9330  -29.8700 C.2   404  ALA404      0.2287
     75  O         -5.4600  -28.2780  -29.0970 O.2   404  ALA404     -0.2864
     76  CB        -8.5760  -28.3440  -29.9790 C.3   404  ALA404      0.0319
@<TRIPOS>BOND
     1     4     3    2
     2     3     2    1
     3     5     2    1
     4     5     6    1
     5     2     1    1
     6    45    44    1
     7    45    46    1
     8    42    41    2
     9     6     8   am
    10     6     7    2
    11    44    43    1
    12    46    47    2
    13    43    40    1
    14    41    40    1
    15    40    39    1
    16    47    48    1
    17    47    49    1
    18    33    32    2
    19    29    28    2
    20    35    34    1
    21    35    36    1
    22    31    32    1
    23    31    34    1
    24    31    30    1
    25    38    36   ar
    26    36    37   ar
    27    28    30   am
    28    28    27    1
    29    27    26    1
    30    18    17   ar
    31    18    16   ar
    32    17    15   ar
    33    50    51    1
    34    56    54    1
    35    22    21    2
    36    26    21   am
    37    15    14   ar
    38    16    14   ar
    39    21    20    1
    40    12    11    2
    41    51    54    1
    42    51    52    1
    43    54    55    1
    44    14    13    1
    45     9    10    1
    46    11    10    1
    47    11    19   am
    48    20    19    1
    49    20    23    1
    50    52    53    2
    51    10    13    1
    52    19    25    1
    53    23    24    1
    54    25    24    1
    55    57    58    1
    56    58    61    1
    57    58    59    1
    58    61    62    1
    59    62    63    1
    60    59    60    2
    61    63    64    1
    62    71    70    1
    63    64    65    1
    64    66    67    1
    65    67    70    1
    66    67    68    1
    67    68    69    2
    68    68    72   am
    69    72    73    1
    70    73    76    1
    71    73    74    1
    72    74    75    2
