@<TRIPOS>MOLECULE
tmp/3rtdA00.pdb
 102 95 0 0 0
SMALL
GASTEIGER

@<TRIPOS>ATOM
      1  N         -2.1150   46.9580    3.2210 N.3    22  ARG22      -0.1245
      2  CA        -1.5150   45.7040    3.6020 C.3    22  ARG22       0.1563
      3  C         -2.3950   44.9510    4.5830 C.2    22  ARG22       0.2260
      4  O         -2.4910   43.7440    4.4680 O.2    22  ARG22      -0.2867
      5  CB        -0.1700   45.8940    4.2820 C.3    22  ARG22       0.0307
      6  CG         0.8950   46.5880    3.4730 C.3    22  ARG22       0.0489
      7  CD         1.8630   45.6930    2.7880 C.3    22  ARG22       0.2205
      8  NE         2.3840   44.6500    3.6470 N.pl3  22  ARG22      -0.0865
      9  CZ         3.6380   44.4770    3.9950 C.cat  22  ARG22       0.5346
     10  NH1        4.5900   45.2690    3.5890 N.pl3  22  ARG22       0.1354
     11  NH2        3.9230   43.4570    4.7860 N.pl3  22  ARG22       0.1354
     12  N         -5.3970   43.3630    2.5420 N.3    25  ILE25      -0.1231
     13  CA        -5.1100   42.2930    1.6540 C.3    25  ILE25       0.1692
     14  C         -4.6780   41.0780    2.4270 C.2    25  ILE25       0.2592
     15  O         -4.8650   39.9500    1.9700 O.2    25  ILE25      -0.2718
     16  CB        -4.0840   42.5920    0.5960 C.3    25  ILE25       0.0266
     17  CG1       -2.7220   42.8480    1.2480 C.3    25  ILE25       0.0019
     18  CG2       -4.5730   43.7180   -0.3190 C.3    25  ILE25       0.0020
     19  CD1       -1.6940   43.3170    0.2550 C.3    25  ILE25       0.0001
     20  N         -4.1450   41.2850    3.6030 N.am   26  SER26      -0.1952
     21  CA        -3.7420   40.1750    4.4160 C.3    26  SER26       0.1924
     22  C         -5.0190   39.4550    4.8810 C.2    26  SER26       0.2314
     23  O         -5.0740   38.2150    4.9800 O.2    26  SER26      -0.2863
     24  CB        -2.8080   40.6360    5.5510 C.3    26  SER26       0.2116
     25  OG        -3.5860   41.1770    6.6140 O.3    26  SER26      -0.2180
     26  N         -6.0760   37.2340    1.9570 N.3    29  LEU29      -0.1231
     27  CA        -5.2210   36.0650    1.7410 C.3    29  LEU29       0.1693
     28  C         -5.4740   35.0270    2.8320 C.2    29  LEU29       0.2591
     29  O         -5.4320   33.8250    2.5590 O.2    29  LEU29      -0.2718
     30  CB        -3.7580   36.4660    1.6880 C.3    29  LEU29       0.0284
     31  CG        -3.3300   37.1380    0.3640 C.3    29  LEU29       0.0019
     32  CD1       -2.0200   37.8460    0.5050 C.3    29  LEU29       0.0001
     33  CD2       -3.2360   36.1230   -0.7910 C.3    29  LEU29       0.0001
     34  N         -5.7250   35.4990    4.0680 N.am   30  ALA30      -0.1980
     35  CA        -6.0040   34.6110    5.1820 C.3    30  ALA30       0.1597
     36  C         -7.3200   33.8410    4.8840 C.2    30  ALA30       0.2287
     37  O         -7.4170   32.6740    5.1820 O.2    30  ALA30      -0.2864
     38  CB        -6.0520   35.3770    6.5710 C.3    30  ALA30       0.0319
     39  N         -6.6570   31.0680    2.1510 N.3    33  GLU33      -0.1245
     40  CA        -5.9920   29.9930    2.8950 C.3    33  GLU33       0.1567
     41  C         -6.9660   29.1150    3.6990 C.2    33  GLU33       0.2260
     42  O         -6.7970   27.9250    3.7880 O.2    33  GLU33      -0.2867
     43  CB        -4.9680   30.6680    3.8200 C.3    33  GLU33       0.0388
     44  CG        -4.0980   29.8270    4.7690 C.3    33  GLU33       0.1160
     45  CD        -2.7550   30.5640    5.1940 C.2    33  GLU33       0.3649
     46  OE1       -2.1050   31.1980    4.2890 O.co2  33  GLU33      -0.2457
     47  OE2       -2.3470   30.4720    6.4220 O.co2  33  GLU33      -0.2457
     48  N         -8.0490   37.7980   11.7620 N.3   170  VAL170     -0.1245
     49  CA        -6.7750   38.2490   11.1970 C.3   170  VAL170      0.1561
     50  C         -6.3930   39.5210   11.9450 C.2   170  VAL170      0.2260
     51  O         -7.0930   40.5310   11.8580 O.2   170  VAL170     -0.2867
     52  CB        -6.9030   38.4490    9.6680 C.3   170  VAL170      0.0252
     53  CG1       -5.5740   38.7900    9.0330 C.3   170  VAL170      0.0019
     54  CG2       -7.5070   37.1930    9.0440 C.3   170  VAL170      0.0019
     55  N          0.3860   42.6930   13.0110 N.3   173  GLY173     -0.1225
     56  CA         1.5940   42.9100   13.7870 C.3   173  GLY173      0.1811
     57  C          1.8420   41.9060   14.8940 C.2   173  GLY173      0.2280
     58  O          2.7740   41.1190   14.8400 O.2   173  GLY173     -0.2866
     59  N         -0.3510   39.5480   18.2180 N.3   175  PRO175     -0.2116
     60  CA        -1.5510   39.2190   18.9650 C.3   175  PRO175      0.1372
     61  C         -1.8520   40.2750   20.0210 C.2   175  PRO175      0.2244
     62  O         -0.9500   40.8770   20.5860 O.2   175  PRO175     -0.2868
     63  CB        -1.1850   37.9150   19.6780 C.3   175  PRO175      0.0268
     64  CG        -0.0170   37.3710   18.9660 C.3   175  PRO175      0.0207
     65  CD         0.7210   38.5640   18.4300 C.3   175  PRO175      0.0892
     66  N         -6.7570   32.1600   14.9750 N.3   191  LEU191     -0.1231
     67  CA        -6.0970   33.4390   14.8860 C.3   191  LEU191      0.1693
     68  C         -4.9200   33.4290   13.9300 C.2   191  LEU191      0.2592
     69  O         -3.9620   32.7180   14.1610 O.2   191  LEU191     -0.2718
     70  CB        -5.5900   33.9070   16.2640 C.3   191  LEU191      0.0284
     71  CG        -4.9640   35.3250   16.2800 C.3   191  LEU191      0.0019
     72  CD1       -5.9760   36.4410   16.0390 C.3   191  LEU191      0.0001
     73  CD2       -4.2090   35.5680   17.5940 C.3   191  LEU191      0.0001
     74  N         -4.9770   34.2980   12.9040 N.am  192  LYS192     -0.1966
     75  CA        -3.8050   34.5910   12.0810 C.3   192  LYS192      0.1728
     76  C         -3.2040   35.9650   12.4160 C.2   192  LYS192      0.2616
     77  O         -3.9290   36.9720   12.5370 O.2   192  LYS192     -0.2715
     78  CB        -4.1410   34.4440   10.5920 C.3   192  LYS192      0.0311
     79  CG        -4.4500   32.9680   10.1520 C.3   192  LYS192      0.0038
     80  CD        -4.4120   32.8180    8.6380 C.3   192  LYS192      0.0206
     81  CE        -4.8030   31.3780    8.1170 C.3   192  LYS192      0.1093
     82  NZ        -3.9510   30.2620    8.6470 N.3   192  LYS192     -0.1314
     83  N         -1.8810   35.9900   12.5940 N.am  193  VAL193     -0.1963
     84  CA        -1.1300   37.2330   12.8390 C.3   193  VAL193      0.1727
     85  C         -0.4180   37.6440   11.5630 C.2   193  VAL193      0.2616
     86  O          0.4220   36.9330   11.0440 O.2   193  VAL193     -0.2715
     87  CB        -0.1250   37.0890   13.9850 C.3   193  VAL193      0.0290
     88  CG1        0.5810   38.4710   14.3090 C.3   193  VAL193      0.0023
     89  CG2       -0.8260   36.4800   15.2280 C.3   193  VAL193      0.0023
     90  N         -0.8270   38.7720   11.0010 N.am  194  ALA194     -0.1963
     91  CA        -0.3100   39.2000    9.7200 C.3   194  ALA194      0.1728
     92  C          0.7700   40.2470    9.8640 C.2   194  ALA194      0.2616
     93  O          0.6510   41.1850   10.6570 O.2   194  ALA194     -0.2715
     94  CB        -1.4600   39.7630    8.8520 C.3   194  ALA194      0.0334
     95  N          1.8170   40.0740    9.0720 N.am  195  ASN195     -0.1972
     96  CA         2.8690   41.0490    8.9020 C.3   195  ASN195      0.1688
     97  C          2.3600   42.0910    7.9090 C.2   195  ASN195      0.2292
     98  O          2.2040   41.7850    6.7400 O.2   195  ASN195     -0.2864
     99  CB         4.1410   40.3330    8.3620 C.3   195  ASN195      0.1181
    100  CG         5.1910   41.2970    7.8130 C.2   195  ASN195      0.2629
    101  OD1        5.2110   42.4570    8.1560 O.2   195  ASN195     -0.2716
    102  ND2        6.0490   40.8010    6.9410 N.am  195  ASN195     -0.0877
@<TRIPOS>BOND
     1    33    31    1
     2    18    16    1
     3    19    17    1
     4    31    32    1
     5    31    30    1
     6    16    17    1
     7    16    13    1
     8    13    14    1
     9    13    12    1
    10    30    27    1
    11    27    26    1
    12    27    28    1
    13    15    14    2
    14    39    40    1
    15    14    20   am
    16    29    28    2
    17     7     6    1
    18     7     8    1
    19    28    34   am
    20    40    41    1
    21    40    43    1
    22     1     2    1
    23     6     5    1
    24    10     9    1
    25     2     5    1
    26     2     3    1
    27    20    21    1
    28     8     9    2
    29    41    42    2
    30    43    44    1
    31     9    11    1
    32    34    35    1
    33    46    45   ar
    34    21    22    1
    35    21    24    1
    36     4     3    2
    37    44    45    1
    38    22    23    2
    39    36    35    1
    40    36    37    2
    41    35    38    1
    42    45    47   ar
    43    24    25    1
    44    98    97    2
    45   102   100   am
    46   100   101    2
    47   100    99    1
    48    97    96    1
    49    81    80    1
    50    81    82    1
    51    99    96    1
    52    80    79    1
    53    94    91    1
    54    96    95    1
    55    53    52    1
    56    54    52    1
    57    95    92   am
    58    52    49    1
    59    91    92    1
    60    91    90    1
    61    92    93    2
    62    79    78    1
    63    78    75    1
    64    90    85   am
    65    86    85    2
    66    49    48    1
    67    49    50    1
    68    85    84    1
    69    51    50    2
    70    75    76    1
    71    75    74    1
    72    76    77    2
    73    76    83   am
    74    83    84    1
    75    84    87    1
    76    74    68   am
    77    55    56    1
    78    56    57    1
    79    68    69    2
    80    68    67    1
    81    87    88    1
    82    87    89    1
    83    58    57    2
    84    67    66    1
    85    67    70    1
    86    72    71    1
    87    70    71    1
    88    71    73    1
    89    59    65    1
    90    59    60    1
    91    65    64    1
    92    60    63    1
    93    60    61    1
    94    64    63    1
    95    61    62    2
