@<TRIPOS>MOLECULE
tmp/3rtdA03.pdb
 157 148 0 0 0
SMALL
GASTEIGER

@<TRIPOS>ATOM
      1  N         -4.5110   14.2730   52.4230 N.3   244  TYR244     -0.1241
      2  CA        -4.0650   14.1920   51.0230 C.3   244  TYR244      0.1605
      3  C         -2.8290   13.3710   50.8890 C.2   244  TYR244      0.2264
      4  O         -1.7020   13.9120   50.9690 O.2   244  TYR244     -0.2867
      5  CB        -3.7320   15.5740   50.4840 C.3   244  TYR244      0.0534
      6  CG        -4.8380   16.5560   50.6030 C.ar  244  TYR244     -0.0201
      7  CD1       -5.9560   16.4860   49.7550 C.ar  244  TYR244     -0.0009
      8  CD2       -4.7680   17.5820   51.5390 C.ar  244  TYR244     -0.0009
      9  CE1       -6.9900   17.4330   49.8520 C.ar  244  TYR244      0.0417
     10  CE2       -5.7900   18.5190   51.6550 C.ar  244  TYR244      0.0417
     11  CZ        -6.9060   18.4510   50.8100 C.ar  244  TYR244      0.1957
     12  OH        -7.9370   19.3850   50.9230 O.3   244  TYR244     -0.2866
     13  N         -2.1190   11.5320   48.1260 N.3   246  GLY246     -0.1210
     14  CA        -1.7250   11.4030   46.7140 C.3   246  GLY246      0.1956
     15  C         -0.9840   12.5710   46.1010 C.2   246  GLY246      0.2611
     16  O         -0.0820   12.3830   45.2790 O.2   246  GLY246     -0.2717
     17  N         -1.3530   13.7830   46.4840 N.am  247  ALA247     -0.1979
     18  CA        -0.6990   14.9600   45.9420 C.3   247  ALA247      0.1597
     19  C          0.8290   14.8480   45.8390 C.2   247  ALA247      0.2287
     20  O          1.4010   15.2020   44.7870 O.2   247  ALA247     -0.2864
     21  CB        -1.1080   16.2170   46.7260 C.3   247  ALA247      0.0319
     22  N          2.1050   12.8860   42.7870 N.3   250  LEU250     -0.1245
     23  CA         1.9590   13.5840   41.5200 C.3   250  LEU250      0.1561
     24  C          3.0160   14.6920   41.3330 C.2   250  LEU250      0.2260
     25  O          3.4970   14.8830   40.2250 O.2   250  LEU250     -0.2867
     26  CB         0.5650   14.1720   41.3680 C.3   250  LEU250      0.0270
     27  CG        -0.6090   13.2320   41.5300 C.3   250  LEU250      0.0019
     28  CD1       -1.9520   14.0160   41.6390 C.3   250  LEU250      0.0001
     29  CD2       -0.5980   12.2660   40.3360 C.3   250  LEU250      0.0001
     30  N          3.7790   22.5830   49.6350 N.3   315  GLY315     -0.1210
     31  CA         2.3740   22.9500   49.6140 C.3   315  GLY315      0.1940
     32  C          1.2860   21.9590   49.2220 C.2   315  GLY315      0.2454
     33  O          0.2060   21.9670   49.7920 O.2   315  GLY315     -0.2732
     34  N          1.5150   21.1790   48.1700 N.am  316  PRO316     -0.2717
     35  CA         0.4870   20.2860   47.6840 C.3   316  PRO316      0.1535
     36  C          0.0570   19.3470   48.7960 C.2   316  PRO316      0.2599
     37  O          0.8900   18.6400   49.4020 O.2   316  PRO316     -0.2715
     38  CB         1.2000   19.4840   46.5900 C.3   316  PRO316      0.0310
     39  CG         2.2670   20.3690   46.1050 C.3   316  PRO316      0.0237
     40  CD         2.7070   21.1800   47.3040 C.3   316  PRO316      0.0939
     41  N         -1.2340   19.3620   49.0330 N.am  317  GLY317     -0.1955
     42  CA        -1.8480   18.5500   50.0470 C.3   317  GLY317      0.1869
     43  C         -1.3470   18.6730   51.4910 C.2   317  GLY317      0.2309
     44  O         -1.5290   17.7340   52.2630 O.2   317  GLY317     -0.2863
     45  N         -0.2760   25.8350   46.4410 N.3   343  ALA343     -0.1231
     46  CA        -1.4010   25.1680   47.0550 C.3   343  ALA343      0.1694
     47  C         -1.5860   25.6130   48.5040 C.2   343  ALA343      0.2592
     48  O         -1.6770   26.8190   48.7780 O.2   343  ALA343     -0.2718
     49  CB        -1.2070   23.6620   46.9260 C.3   343  ALA343      0.0304
     50  N         -1.6570   24.6620   49.4360 N.am  344  ASP344     -0.1974
     51  CA        -1.8660   25.0080   50.8450 C.3   344  ASP344      0.1709
     52  C         -0.7270   25.8040   51.4630 C.2   344  ASP344      0.2293
     53  O         -0.9990   26.5320   52.3950 O.2   344  ASP344     -0.2864
     54  CB        -2.2420   23.8060   51.7040 C.3   344  ASP344      0.1436
     55  CG        -3.7180   23.5240   51.6700 C.2   344  ASP344      0.3671
     56  OD1       -4.5530   24.4820   51.5260 O.co2 344  ASP344     -0.2456
     57  OD2       -4.0450   22.3330   51.7900 O.co2 344  ASP344     -0.2456
     58  N         -2.0590   29.1540   50.7270 N.3   347  ASN347     -0.1240
     59  CA        -3.1910   29.4430   51.6110 C.3   347  ASN347      0.1653
     60  C         -2.8070   29.9080   53.0550 C.2   347  ASN347      0.2266
     61  O         -3.5540   30.6330   53.6830 O.2   347  ASN347     -0.2867
     62  CB        -4.1210   28.2290   51.6930 C.3   347  ASN347      0.1155
     63  CG        -4.8820   28.0020   50.4140 C.2   347  ASN347      0.2627
     64  OD1       -5.1970   28.9420   49.6890 O.2   347  ASN347     -0.2716
     65  ND2       -5.1830   26.7660   50.1260 N.am  347  ASN347     -0.0877
     66  N         -3.8880   29.0880   41.6410 N.3   366  HIS366     -0.1227
     67  CA        -5.1000   29.3130   40.8460 C.3   366  HIS366      0.1737
     68  C         -5.8150   30.5880   41.3850 C.2   366  HIS366      0.2438
     69  O         -5.4560   31.0900   42.4530 O.2   366  HIS366     -0.2733
     70  CB        -6.0200   28.0630   40.7490 C.3   366  HIS366      0.0758
     71  CG        -6.5510   27.5700   42.0550 C.ar  366  HIS366      0.0818
     72  ND1       -7.3780   28.3310   42.8540 N.ar  366  HIS366     -0.2268
     73  CD2       -6.3630   26.3990   42.7090 C.ar  366  HIS366      0.1154
     74  CE1       -7.7090   27.6320   43.9310 C.ar  366  HIS366      0.1986
     75  NE2       -7.1080   26.4550   43.8700 N.ar  366  HIS366     -0.2212
     76  N         -6.7840   31.1320   40.6230 N.am  367  PRO367     -0.2718
     77  CA        -7.4050   32.3990   41.0570 C.3   367  PRO367      0.1535
     78  C         -7.9910   32.3600   42.4670 C.2   367  PRO367      0.2599
     79  O         -8.1070   33.3950   43.1090 O.2   367  PRO367     -0.2715
     80  CB        -8.5360   32.6170   40.0300 C.3   367  PRO367      0.0310
     81  CG        -7.9660   31.8920   38.7200 C.3   367  PRO367      0.0237
     82  CD        -7.2760   30.6900   39.2960 C.3   367  PRO367      0.0939
     83  N         -8.4240   31.1890   42.8960 N.am  368  GLY368     -0.1941
     84  CA        -9.0420   31.0730   44.2140 C.3   368  GLY368      0.2014
     85  C         -8.0180   31.3090   45.3120 C.2   368  GLY368      0.2638
     86  O         -8.3060   31.9870   46.2770 O.2   368  GLY368     -0.2714
     87  N         -6.7980   30.8210   45.1230 N.am  369  GLU369     -0.1977
     88  CA        -5.7200   31.0620   46.0830 C.3   369  GLU369      0.1602
     89  C         -5.1180   32.4580   45.9260 C.2   369  GLU369      0.2287
     90  O         -4.7130   33.0560   46.9070 O.2   369  GLU369     -0.2864
     91  CB        -4.6050   29.9820   45.9560 C.3   369  GLU369      0.0415
     92  CG        -5.0510   28.6040   46.3750 C.3   369  GLU369      0.1163
     93  CD        -4.2910   27.4400   45.7070 C.2   369  GLU369      0.3649
     94  OE1       -3.5170   27.6960   44.7660 O.co2 369  GLU369     -0.2457
     95  OE2       -4.4710   26.2770   46.1660 O.co2 369  GLU369     -0.2457
     96  N         -7.5120   34.9000   47.7510 N.3   372  ARG372     -0.1245
     97  CA        -7.2200   34.8540   49.1850 C.3   372  ARG372      0.1563
     98  C         -5.8920   35.4690   49.5310 C.2   372  ARG372      0.2260
     99  O         -5.7780   36.1700   50.5090 O.2   372  ARG372     -0.2867
    100  CB        -7.2510   33.4360   49.7020 C.3   372  ARG372      0.0307
    101  CG        -8.5080   33.1580   50.4450 C.3   372  ARG372      0.0489
    102  CD        -9.2800   31.9910   49.8460 C.3   372  ARG372      0.2205
    103  NE        -8.6040   30.7020   50.0330 N.pl3 372  ARG372     -0.0865
    104  CZ        -9.2400   29.5410   50.2300 C.cat 372  ARG372      0.5346
    105  NH1       -8.5300   28.4070   50.3890 N.pl3 372  ARG372      0.1354
    106  NH2      -10.5890   29.5060   50.2910 N.pl3 372  ARG372      0.1354
    107  N        -12.2720   36.6000   43.4660 N.3   378  VAL378     -0.1245
    108  CA       -11.8640   35.7840   42.3320 C.3   378  VAL378      0.1561
    109  C        -12.0040   36.5950   41.0760 C.2   378  VAL378      0.2260
    110  O        -11.0790   36.6910   40.3300 O.2   378  VAL378     -0.2867
    111  CB       -12.6740   34.4520   42.2940 C.3   378  VAL378      0.0252
    112  CG1      -12.4950   33.7020   40.9680 C.3   378  VAL378      0.0019
    113  CG2      -12.2500   33.5610   43.4920 C.3   378  VAL378      0.0019
    114  N         -8.9870   37.2430   38.3810 N.3   382  LYS382     -0.1245
    115  CA        -8.9500   36.3220   37.2760 C.3   382  LYS382      0.1561
    116  C         -8.4280   37.0490   36.0350 C.2   382  LYS382      0.2260
    117  O         -8.9860   38.0490   35.6210 O.2   382  LYS382     -0.2867
    118  CB       -10.3400   35.7570   36.9900 C.3   382  LYS382      0.0271
    119  CG       -10.3340   34.3210   36.3490 C.3   382  LYS382      0.0035
    120  CD       -11.8080   33.9090   35.9290 C.3   382  LYS382      0.0206
    121  CE       -11.8450   32.8920   34.6940 C.3   382  LYS382      0.1093
    122  NZ       -11.5710   31.4310   35.0970 N.3   382  LYS382     -0.1314
    123  N         -2.6150   30.4340   37.4750 N.3   402  LYS402     -0.1231
    124  CA        -3.1040   29.3360   36.6410 C.3   402  LYS402      0.1693
    125  C         -4.6030   29.4020   36.2010 C.2   402  LYS402      0.2592
    126  O         -5.4710   29.8040   37.0010 O.2   402  LYS402     -0.2718
    127  CB        -3.0200   27.9990   37.4260 C.3   402  LYS402      0.0285
    128  CG        -1.6360   27.7100   38.0580 C.3   402  LYS402      0.0035
    129  CD        -1.4890   26.3220   38.7420 C.3   402  LYS402      0.0206
    130  CE        -1.6630   26.2970   40.1590 C.3   402  LYS402      0.1093
    131  NZ        -0.9900   25.2040   40.8490 N.3   402  LYS402     -0.1314
    132  N         -4.8830   29.1380   34.9290 N.am  403  SER403     -0.1952
    133  CA        -6.1940   29.2220   34.3520 C.3   403  SER403      0.1924
    134  C         -6.0250   28.7460   32.9040 C.2   403  SER403      0.2314
    135  O         -4.8970   28.4660   32.4370 O.2   403  SER403     -0.2863
    136  CB        -6.7160   30.6350   34.3530 C.3   403  SER403      0.2116
    137  OG        -7.1320   31.1180   35.6110 O.3   403  SER403     -0.2180
    138  N         -8.6900   17.6420   39.6150 N.3   427  GLY427     -0.1210
    139  CA        -7.6790   17.6970   40.6800 C.3   427  GLY427      0.1956
    140  C         -6.4440   16.8620   40.3970 C.2   427  GLY427      0.2612
    141  O         -6.5170   15.7530   39.9310 O.2   427  GLY427     -0.2717
    142  N         -5.2900   17.3990   40.7160 N.am  428  GLY428     -0.1956
    143  CA        -4.0470   16.6590   40.5470 C.3   428  GLY428      0.1869
    144  C         -3.1710   17.3240   39.5350 C.2   428  GLY428      0.2309
    145  O         -1.9530   17.1940   39.5940 O.2   428  GLY428     -0.2863
    146  N         -2.4770   20.4270   38.9090 N.3   430  GLY430     -0.1210
    147  CA        -1.6300   21.4510   39.4840 C.3   430  GLY430      0.1956
    148  C         -0.5110   20.8550   40.2900 C.2   430  GLY430      0.2611
    149  O          0.6420   21.3700   40.3220 O.2   430  GLY430     -0.2717
    150  N         -0.8030   19.7670   40.9690 N.am  431  ASP431     -0.1973
    151  CA         0.2290   19.1820   41.7910 C.3   431  ASP431      0.1709
    152  C          1.3790   18.6830   40.8830 C.2   431  ASP431      0.2293
    153  O          2.5520   18.7850   41.2200 O.2   431  ASP431     -0.2864
    154  CB        -0.3710   18.0670   42.6290 C.3   431  ASP431      0.1436
    155  CG        -1.4780   18.5700   43.5330 C.2   431  ASP431      0.3671
    156  OD1       -1.2320   19.5750   44.2170 O.co2 431  ASP431     -0.2456
    157  OD2       -2.6040   17.9800   43.5250 O.co2 431  ASP431     -0.2456
@<TRIPOS>BOND
     1   135   134    2
     2   134   133    1
     3   133   136    1
     4   133   132    1
     5   136   137    1
     6   121   122    1
     7   121   120    1
     8   132   125   am
     9   117   116    2
    10   120   119    1
    11   116   115    1
    12   125   124    1
    13   125   126    2
    14   119   118    1
    15   124   127    1
    16   124   123    1
    17   118   115    1
    18   115   114    1
    19   127   128    1
    20   128   129    1
    21    81    82    1
    22    81    80    1
    23   129   130    1
    24   146   147    1
    25    82    76    1
    26   147   148    1
    27   144   145    2
    28   144   143    1
    29   138   139    1
    30   141   140    2
    31    80    77    1
    32   130   131    1
    33    25    24    2
    34   148   149    2
    35   148   150   am
    36   110   109    2
    37    29    27    1
    38   140   139    1
    39   140   142   am
    40   143   142    1
    41    76    77    1
    42    76    68   am
    43    70    67    1
    44    70    71    1
    45    67    68    1
    46    67    66    1
    47   152   153    2
    48   152   151    1
    49   112   111    1
    50   150   151    1
    51    77    78    1
    52   109   108    1
    53    24    23    1
    54    26    23    1
    55    26    27    1
    56    68    69    2
    57    23    22    1
    58    27    28    1
    59   151   154    1
    60    71    73   ar
    61    71    72   ar
    62   111   108    1
    63   111   113    1
    64   108   107    1
    65    78    83   am
    66    78    79    2
    67   154   155    1
    68    73    75   ar
    69    72    74   ar
    70    83    84    1
    71   157   155   ar
    72   155   156   ar
    73    75    74   ar
    74    84    85    1
    75    94    93   ar
    76    20    19    2
    77    87    85   am
    78    87    88    1
    79    16    15    2
    80    85    86    2
    81    93    95   ar
    82    93    92    1
    83    19    18    1
    84    89    88    1
    85    89    90    2
    86    18    17    1
    87    18    21    1
    88    91    88    1
    89    91    92    1
    90    15    17   am
    91    15    14    1
    92    39    38    1
    93    39    40    1
    94    45    46    1
    95    38    35    1
    96    14    13    1
    97    49    46    1
    98    46    47    1
    99    40    34    1
   100    35    34    1
   101    35    36    1
   102    96    97    1
   103    34    32   am
   104    47    48    2
   105    47    50   am
   106    36    41   am
   107    36    37    2
   108    41    42    1
   109    97    98    1
   110    97   100    1
   111    32    31    1
   112    32    33    2
   113    50    51    1
   114    98    99    2
   115    31    30    1
   116    64    63    2
   117   100   101    1
   118     7     9   ar
   119     7     6   ar
   120   102   103    1
   121   102   101    1
   122     9    11   ar
   123   103   104    2
   124    42    43    1
   125    65    63   am
   126   104   106    1
   127   104   105    1
   128    63    62    1
   129     5     6    1
   130     5     2    1
   131     6     8   ar
   132    58    59    1
   133    11    12    1
   134    11    10   ar
   135    51    52    1
   136    51    54    1
   137     3     4    2
   138     3     2    1
   139     2     1    1
   140    52    53    2
   141    43    44    2
   142    56    55   ar
   143     8    10   ar
   144    59    62    1
   145    59    60    1
   146    55    54    1
   147    55    57   ar
   148    60    61    2
