@<TRIPOS>MOLECULE
tmp/3rteA03.pdb
 80 76 0 0 0
SMALL
GASTEIGER

@<TRIPOS>ATOM
      1  N         29.2370    2.1340   50.5920 N.3   347  ASN347     -0.1240
      2  CA        29.5550    3.2730   51.4560 C.3   347  ASN347      0.1653
      3  C         30.0340    2.8260   52.8460 C.2   347  ASN347      0.2266
      4  O         30.7590    3.5510   53.4720 O.2   347  ASN347     -0.2867
      5  CB        28.3830    4.2790   51.5910 C.3   347  ASN347      0.1155
      6  CG        28.1110    5.0200   50.2950 C.2   347  ASN347      0.2627
      7  OD1       29.0340    5.2780   49.5280 O.2   347  ASN347     -0.2716
      8  ND2       26.8280    5.3010   50.0020 N.am  347  ASN347     -0.0877
      9  N         29.0870    4.0340   41.5630 N.3   366  HIS366     -0.1227
     10  CA        29.3070    5.2410   40.7610 C.3   366  HIS366      0.1737
     11  C         30.6060    5.9420   41.2600 C.2   366  HIS366      0.2438
     12  O         31.2000    5.5270   42.2570 O.2   366  HIS366     -0.2733
     13  CB        28.0720    6.1950   40.6830 C.3   366  HIS366      0.0758
     14  CG        27.6230    6.7790   41.9920 C.ar  366  HIS366      0.0818
     15  ND1       28.3860    7.6550   42.7160 N.ar  366  HIS366     -0.2268
     16  CD2       26.4610    6.6370   42.6840 C.ar  366  HIS366      0.1154
     17  CE1       27.7300    8.0340   43.8040 C.ar  366  HIS366      0.1986
     18  NE2       26.5580    7.4280   43.8090 N.ar  366  HIS366     -0.2212
     19  N         31.1340    6.9130   40.4990 N.am  367  PRO367     -0.2718
     20  CA        32.4340    7.4870   40.9260 C.3   367  PRO367      0.1535
     21  C         32.4590    8.1320   42.3240 C.2   367  PRO367      0.2599
     22  O         33.4880    8.1580   42.9600 O.2   367  PRO367     -0.2715
     23  CB        32.6930    8.5610   39.8780 C.3   367  PRO367      0.0310
     24  CG        31.9500    8.1120   38.6730 C.3   367  PRO367      0.0237
     25  CD        30.7520    7.3570   39.1520 C.3   367  PRO367      0.0939
     26  N         31.3410    8.6710   42.7880 N.am  368  GLY368     -0.1941
     27  CA        31.3110    9.2130   44.1510 C.3   368  GLY368      0.2014
     28  C         31.5120    8.1130   45.1650 C.2   368  GLY368      0.2638
     29  O         32.2470    8.2570   46.1450 O.2   368  GLY368     -0.2714
     30  N         30.8650    6.9740   44.9200 N.am  369  GLU369     -0.1977
     31  CA        31.0170    5.8330   45.8140 C.3   369  GLU369      0.1602
     32  C         32.4380    5.2660   45.7050 C.2   369  GLU369      0.2287
     33  O         33.0310    4.8950   46.7020 O.2   369  GLU369     -0.2864
     34  CB        29.9600    4.7420   45.4930 C.3   369  GLU369      0.0415
     35  CG        28.5450    5.1260   45.9810 C.3   369  GLU369      0.1163
     36  CD        27.4220    4.4040   45.2660 C.2   369  GLU369      0.3649
     37  OE1       27.7100    3.7200   44.2690 O.co2 369  GLU369     -0.2457
     38  OE2       26.2520    4.5130   45.7100 O.co2 369  GLU369     -0.2457
     39  N         34.9060    7.5450   47.6270 N.3   372  ARG372     -0.1245
     40  CA        34.8570    7.3300   49.0870 C.3   372  ARG372      0.1563
     41  C         35.4260    5.9660   49.4440 C.2   372  ARG372      0.2260
     42  O         36.1260    5.8460   50.4250 O.2   372  ARG372     -0.2867
     43  CB        33.4510    7.4880   49.6830 C.3   372  ARG372      0.0307
     44  CG        32.9890    8.9550   49.8530 C.3   372  ARG372      0.0489
     45  CD        31.5590    9.0820   50.5060 C.3   372  ARG372      0.2205
     46  NE        30.5240    8.2630   49.8440 N.pl3 372  ARG372     -0.0865
     47  CZ        29.7520    8.6690   48.8230 C.cat 372  ARG372      0.5346
     48  NH1       29.8880    9.8840   48.3160 N.pl3 372  ARG372      0.1354
     49  NH2       28.8520    7.8720   48.2830 N.pl3 372  ARG372      0.1354
     50  N         36.6550   12.2970   43.4300 N.3   378  VAL378     -0.1245
     51  CA        35.8880   11.9030   42.2450 C.3   378  VAL378      0.1561
     52  C         36.6980   12.0210   40.9350 C.2   378  VAL378      0.2260
     53  O         36.7090   11.1030   40.1390 O.2   378  VAL378     -0.2867
     54  CB        34.6200   12.7300   42.1200 C.3   378  VAL378      0.0252
     55  CG1       33.8840   12.4180   40.7940 C.3   378  VAL378      0.0019
     56  CG2       33.7060   12.4990   43.3380 C.3   378  VAL378      0.0019
     57  N         37.2600    8.9250   38.3630 N.3   382  LYS382     -0.1245
     58  CA        36.3740    8.9680   37.2440 C.3   382  LYS382      0.1561
     59  C         37.0910    8.4990   35.9590 C.2   382  LYS382      0.2260
     60  O         38.1010    9.0430   35.6100 O.2   382  LYS382     -0.2867
     61  CB        35.8270   10.3950   37.0180 C.3   382  LYS382      0.0271
     62  CG        34.7660   10.3500   35.9120 C.3   382  LYS382      0.0035
     63  CD        33.5090   11.1560   36.1320 C.3   382  LYS382      0.0206
     64  CE        32.6710   11.1080   34.7920 C.3   382  LYS382      0.1093
     65  NZ        31.6360   12.1810   34.6470 N.3   382  LYS382     -0.1314
     66  N         30.4560    2.7130   37.2380 N.3   402  LYS402     -0.1231
     67  CA        29.3530    3.1900   36.3980 C.3   402  LYS402      0.1693
     68  C         29.6140    4.6410   35.9190 C.2   402  LYS402      0.2592
     69  O         30.1390    5.4430   36.6630 O.2   402  LYS402     -0.2718
     70  CB        28.0770    3.1330   37.2370 C.3   402  LYS402      0.0285
     71  CG        27.7030    1.7310   37.6120 C.3   402  LYS402      0.0035
     72  CD        26.3860    1.5750   38.3320 C.3   402  LYS402      0.0206
     73  CE        26.3350    2.3050   39.6220 C.3   402  LYS402      0.1093
     74  NZ        25.3490    1.6480   40.4530 N.3   402  LYS402     -0.1314
     75  N         29.3270    4.9570   34.6690 N.am  403  SER403     -0.1952
     76  CA        29.3420    6.3410   34.1770 C.3   403  SER403      0.1924
     77  C         28.8460    6.1820   32.7390 C.2   403  SER403      0.2314
     78  O         28.5260    5.0580   32.3670 O.2   403  SER403     -0.2863
     79  CB        30.7710    6.9020   34.1770 C.3   403  SER403      0.2116
     80  OG        31.2100    7.3360   35.4470 O.3   403  SER403     -0.2180
@<TRIPOS>BOND
     1    78    77    2
     2    77    76    1
     3    79    76    1
     4    79    80    1
     5    76    75    1
     6    65    64    1
     7    75    68   am
     8    64    63    1
     9    60    59    2
    10    62    63    1
    11    62    61    1
    12    68    67    1
    13    68    69    2
    14    59    58    1
    15    67    70    1
    16    67    66    1
    17    61    58    1
    18    70    71    1
    19    58    57    1
    20    71    72    1
    21    72    73    1
    22    24    25    1
    23    24    23    1
    24    25    19    1
    25    73    74    1
    26    23    20    1
    27    53    52    2
    28    19    20    1
    29    19    11   am
    30    13    10    1
    31    13    14    1
    32    10    11    1
    33    10     9    1
    34    55    54    1
    35    20    21    1
    36    52    51    1
    37    11    12    2
    38    14    16   ar
    39    14    15   ar
    40    54    51    1
    41    54    56    1
    42    51    50    1
    43    21    26   am
    44    21    22    2
    45    16    18   ar
    46    15    17   ar
    47    26    27    1
    48    17    18   ar
    49    27    28    1
    50    37    36   ar
    51    30    28   am
    52    30    31    1
    53    28    29    2
    54    36    38   ar
    55    36    35    1
    56    34    31    1
    57    34    35    1
    58    32    31    1
    59    32    33    2
    60    39    40    1
    61    49    47    1
    62    48    47    1
    63    47    46    2
    64    40    41    1
    65    40    43    1
    66    41    42    2
    67     7     6    2
    68    43    44    1
    69    46    45    1
    70    44    45    1
    71     8     6   am
    72     6     5    1
    73     1     2    1
    74     2     5    1
    75     2     3    1
    76     3     4    2
