@<TRIPOS>MOLECULE
tmp/3rtfC00.pdb
 158 152 0 0 0
SMALL
GASTEIGER

@<TRIPOS>ATOM
      1  N         28.9130  -16.9410  -68.4670 N.3    10  GLU10      -0.1245
      2  CA        27.8650  -15.9320  -68.5960 C.3    10  GLU10       0.1567
      3  C         27.0420  -16.2950  -69.8320 C.2    10  GLU10       0.2260
      4  O         27.5450  -16.2790  -70.9470 O.2    10  GLU10      -0.2867
      5  CB        28.5050  -14.5460  -68.7690 C.3    10  GLU10       0.0388
      6  CG        27.5640  -13.3550  -68.8360 C.3    10  GLU10       0.1160
      7  CD        27.1140  -12.8820  -67.4360 C.2    10  GLU10       0.3649
      8  OE1       25.9070  -13.0090  -67.1420 O.co2  10  GLU10      -0.2457
      9  OE2       27.9440  -12.3850  -66.6300 O.co2  10  GLU10      -0.2457
     10  N         35.0890   -9.7390  -64.0890 N.3    58  TYR58      -0.1241
     11  CA        35.4160   -9.1440  -65.3860 C.3    58  TYR58       0.1605
     12  C         36.7600   -8.4020  -65.3250 C.2    58  TYR58       0.2264
     13  O         37.6830   -8.6730  -66.1180 O.2    58  TYR58      -0.2867
     14  CB        34.2700   -8.2150  -65.8300 C.3    58  TYR58       0.0534
     15  CG        33.1070   -9.0060  -66.3430 C.ar   58  TYR58      -0.0201
     16  CD1       32.1060   -9.4750  -65.4790 C.ar   58  TYR58      -0.0009
     17  CD2       33.0070   -9.3100  -67.7080 C.ar   58  TYR58      -0.0009
     18  CE1       31.0270  -10.2170  -65.9740 C.ar   58  TYR58       0.0417
     19  CE2       31.9370  -10.0340  -68.2050 C.ar   58  TYR58       0.0417
     20  CZ        30.9540  -10.4830  -67.3330 C.ar   58  TYR58       0.1957
     21  OH        29.9140  -11.2250  -67.8500 O.3    58  TYR58      -0.2866
     22  N         32.2260  -11.2850  -72.8340 N.3    86  PRO86      -0.2102
     23  CA        31.4740  -10.0250  -72.9180 C.3    86  PRO86       0.1504
     24  C         32.1050   -8.9540  -72.0100 C.2    86  PRO86       0.2576
     25  O         31.5450   -8.5670  -70.9760 O.2    86  PRO86      -0.2718
     26  CB        30.0730  -10.4280  -72.4360 C.3    86  PRO86       0.0282
     27  CG        30.3480  -11.5890  -71.4770 C.3    86  PRO86       0.0208
     28  CD        31.4290  -12.3620  -72.2030 C.3    86  PRO86       0.0893
     29  N         33.2910   -8.5120  -72.4170 N.am   87  LEU87      -0.1966
     30  CA        34.1530   -7.5990  -71.6450 C.3    87  LEU87       0.1728
     31  C         34.0330   -6.1760  -72.2330 C.2    87  LEU87       0.2616
     32  O         34.4100   -5.9220  -73.3860 O.2    87  LEU87      -0.2715
     33  CB        35.6260   -8.0690  -71.7420 C.3    87  LEU87       0.0311
     34  CG        36.6350   -7.3020  -70.8700 C.3    87  LEU87       0.0022
     35  CD1       36.3760   -7.3890  -69.3700 C.3    87  LEU87       0.0001
     36  CD2       38.0960   -7.7890  -71.1520 C.3    87  LEU87       0.0001
     37  N         33.4790   -5.2650  -71.4480 N.am   88  THR88      -0.1951
     38  CA        33.2170   -3.9130  -71.9280 C.3    88  THR88       0.1897
     39  C         34.5020   -3.1370  -72.1450 C.2    88  THR88       0.2313
     40  O         35.4080   -3.1420  -71.2860 O.2    88  THR88      -0.2863
     41  CB        32.3590   -3.1890  -70.8860 C.3    88  THR88       0.1794
     42  OG1       31.1760   -3.9800  -70.6630 O.3    88  THR88      -0.2208
     43  CG2       31.9620   -1.8000  -71.3780 C.3    88  THR88       0.0378
     44  N         40.4160    0.3750  -68.5770 N.3    93  ARG93      -0.1245
     45  CA        40.9910   -0.8760  -69.0640 C.3    93  ARG93       0.1563
     46  C         41.9220   -0.7120  -70.2380 C.2    93  ARG93       0.2260
     47  O         42.9380   -1.3920  -70.3000 O.2    93  ARG93      -0.2867
     48  CB        39.8930   -1.8770  -69.4040 C.3    93  ARG93       0.0307
     49  CG        39.1780   -2.3630  -68.1470 C.3    93  ARG93       0.0489
     50  CD        37.9360   -3.1420  -68.5740 C.3    93  ARG93       0.2205
     51  NE        37.2300   -3.6550  -67.3970 N.pl3  93  ARG93      -0.0865
     52  CZ        36.0230   -4.2070  -67.4430 C.cat  93  ARG93       0.5346
     53  NH1       35.3680   -4.2940  -68.5930 N.pl3  93  ARG93       0.1354
     54  NH2       35.4650   -4.6540  -66.3340 N.pl3  93  ARG93       0.1354
     55  N         25.0690   -5.6070  -61.0830 N.3   135  LEU135     -0.1245
     56  CA        26.1420   -6.5590  -60.7840 C.3   135  LEU135      0.1561
     57  C         27.1730   -5.8510  -59.8820 C.2   135  LEU135      0.2260
     58  O         27.5070   -4.6820  -60.1150 O.2   135  LEU135     -0.2867
     59  CB        26.7460   -7.0520  -62.1100 C.3   135  LEU135      0.0270
     60  CG        27.7940   -8.1660  -62.0680 C.3   135  LEU135      0.0019
     61  CD1       27.1440   -9.4830  -61.6300 C.3   135  LEU135      0.0001
     62  CD2       28.4650   -8.3070  -63.4280 C.3   135  LEU135      0.0001
     63  N         30.3550   -5.9350  -59.2570 N.3   137  SER137     -0.1202
     64  CA        31.6100   -5.4550  -59.8010 C.3   137  SER137      0.2020
     65  C         31.4350   -5.4340  -61.3100 C.2   137  SER137      0.2619
     66  O         30.7550   -6.2940  -61.8650 O.2   137  SER137     -0.2717
     67  CB        32.7510   -6.3930  -59.4080 C.3   137  SER137      0.2103
     68  OG        32.8010   -6.5740  -58.0000 O.3   137  SER137     -0.2182
     69  N         32.0320   -4.4660  -61.9730 N.am  138  GLY138     -0.1942
     70  CA        31.9320   -4.4200  -63.4180 C.3   138  GLY138      0.2014
     71  C         31.5780   -3.0510  -63.9310 C.2   138  GLY138      0.2640
     72  O         31.3570   -2.1150  -63.1470 O.2   138  GLY138     -0.2714
     73  N         31.5090   -2.9170  -65.2480 N.am  139  SER139     -0.1935
     74  CA        31.2880   -1.6080  -65.8450 C.3   139  SER139      0.2055
     75  C         29.9120   -0.9970  -65.5380 C.2   139  SER139      0.2644
     76  O         29.7580    0.2290  -65.5880 O.2   139  SER139     -0.2714
     77  CB        31.5330   -1.6340  -67.3640 C.3   139  SER139      0.2130
     78  OG        30.6680   -2.5890  -67.9890 O.3   139  SER139     -0.2179
     79  N         28.8980   -1.8130  -65.2330 N.am  140  THR140     -0.1936
     80  CA        27.5900   -1.2330  -64.9420 C.3   140  THR140      0.2028
     81  C         27.6170   -0.4540  -63.6280 C.2   140  THR140      0.2642
     82  O         27.0950    0.6550  -63.5550 O.2   140  THR140     -0.2714
     83  CB        26.4780   -2.2830  -64.9230 C.3   140  THR140      0.1808
     84  OG1       26.4430   -2.9140  -66.2070 O.3   140  THR140     -0.2208
     85  CG2       25.1160   -1.6580  -64.6110 C.3   140  THR140      0.0379
     86  N         28.1830   -1.0590  -62.5920 N.am  141  LYS141     -0.1977
     87  CA        28.2390   -0.4070  -61.2880 C.3   141  LYS141      0.1596
     88  C         29.1080    0.8400  -61.4110 C.2   141  LYS141      0.2287
     89  O         28.7680    1.8910  -60.8760 O.2   141  LYS141     -0.2864
     90  CB        28.8250   -1.3450  -60.2380 C.3   141  LYS141      0.0298
     91  CG        28.6220   -0.8460  -58.8250 C.3   141  LYS141      0.0038
     92  CD        29.3300   -1.7600  -57.8460 C.3   141  LYS141      0.0206
     93  CE        29.0310   -1.3700  -56.4040 C.3   141  LYS141      0.1093
     94  NZ        29.6490   -2.3480  -55.4510 N.3   141  LYS141     -0.1314
     95  N         24.8510  -12.4430  -62.7230 N.3   171  THR171     -0.1218
     96  CA        23.6080  -12.1720  -63.4510 C.3   171  THR171      0.1862
     97  C         22.5050  -13.1110  -63.0100 C.2   171  THR171      0.2287
     98  O         21.4080  -12.6710  -62.7760 O.2   171  THR171     -0.2866
     99  CB        23.8040  -12.2730  -64.9680 C.3   171  THR171      0.1770
    100  OG1       24.8490  -11.3740  -65.3370 O.3   171  THR171     -0.2211
    101  CG2       22.5040  -11.8880  -65.7110 C.3   171  THR171      0.0375
    102  N         16.2830   -4.8570  -62.0000 N.3   187  TYR187     -0.1227
    103  CA        17.7080   -5.1370  -62.1350 C.3   187  TYR187      0.1736
    104  C         18.2570   -4.3490  -63.3140 C.2   187  TYR187      0.2595
    105  O         17.6760   -4.3690  -64.3990 O.2   187  TYR187     -0.2718
    106  CB        17.8990   -6.6470  -62.3160 C.3   187  TYR187      0.0548
    107  CG        19.3540   -7.0870  -62.3000 C.ar  187  TYR187     -0.0200
    108  CD1       20.2160   -6.6300  -61.3150 C.ar  187  TYR187     -0.0009
    109  CD2       19.8480   -7.9780  -63.2600 C.ar  187  TYR187     -0.0009
    110  CE1       21.5650   -7.0360  -61.2900 C.ar  187  TYR187      0.0417
    111  CE2       21.1630   -8.3750  -63.2580 C.ar  187  TYR187      0.0417
    112  CZ        22.0290   -7.8810  -62.2720 C.ar  187  TYR187      0.1957
    113  OH        23.3460   -8.2870  -62.2640 O.3   187  TYR187     -0.2866
    114  N         19.3630   -3.6380  -63.0990 N.am  188  LEU188     -0.1966
    115  CA        20.0210   -2.8590  -64.1560 C.3   188  LEU188      0.1728
    116  C         21.1620   -3.7160  -64.6850 C.2   188  LEU188      0.2616
    117  O         22.0330   -4.1290  -63.9110 O.2   188  LEU188     -0.2715
    118  CB        20.5830   -1.5480  -63.5700 C.3   188  LEU188      0.0311
    119  CG        19.5030   -0.5770  -63.0840 C.3   188  LEU188      0.0022
    120  CD1       20.0230    0.2940  -61.9420 C.3   188  LEU188      0.0001
    121  CD2       19.0830    0.2700  -64.2560 C.3   188  LEU188      0.0001
    122  N         21.1570   -4.0290  -65.9810 N.am  189  LEU189     -0.1963
    123  CA        22.1500   -4.9460  -66.5390 C.3   189  LEU189      0.1728
    124  C         22.3510   -4.6810  -68.0240 C.2   189  LEU189      0.2616
    125  O         21.5740   -3.9610  -68.6550 O.2   189  LEU189     -0.2715
    126  CB        21.7440   -6.4210  -66.3210 C.3   189  LEU189      0.0311
    127  CG        20.6990   -7.0130  -67.2820 C.3   189  LEU189      0.0022
    128  CD1       20.6040   -8.5290  -67.0970 C.3   189  LEU189      0.0001
    129  CD2       19.3030   -6.3370  -67.0960 C.3   189  LEU189      0.0001
    130  N         23.4040   -5.2500  -68.5810 N.am  190  GLU190     -0.1977
    131  CA        23.6940   -5.0040  -69.9840 C.3   190  GLU190      0.1602
    132  C         22.5940   -5.5470  -70.8830 C.2   190  GLU190      0.2287
    133  O         22.0370   -6.6230  -70.6370 O.2   190  GLU190     -0.2864
    134  CB        25.0920   -5.5680  -70.3110 C.3   190  GLU190      0.0415
    135  CG        26.1280   -4.6500  -69.6150 C.3   190  GLU190      0.1163
    136  CD        27.5870   -5.0840  -69.7470 C.2   190  GLU190      0.3649
    137  OE1       27.8700   -6.2760  -70.0160 O.co2 190  GLU190     -0.2457
    138  OE2       28.4520   -4.1910  -69.5870 O.co2 190  GLU190     -0.2457
    139  N         22.4280   -9.2020  -72.3010 N.3   193  MET193     -0.1245
    140  CA        21.9630  -10.2100  -71.3420 C.3   193  MET193      0.1570
    141  C         20.4480  -10.0970  -71.0970 C.2   193  MET193      0.2261
    142  O         19.7450  -11.1120  -71.0190 O.2   193  MET193     -0.2867
    143  CB        22.6670  -10.0560  -69.9960 C.3   193  MET193      0.0387
    144  CG        23.6070  -11.1580  -69.6630 C.3   193  MET193      0.0595
    145  SD        24.8680  -11.2760  -70.9150 S.3   193  MET193     -0.1393
    146  CE        25.2880   -9.5400  -71.1460 C.3   193  MET193      0.0692
    147  N         31.6100   -4.4630  -76.5180 N.3   217  TYR217     -0.1241
    148  CA        32.4960   -5.4890  -75.9820 C.3   217  TYR217      0.1605
    149  C         33.6190   -5.6690  -76.9730 C.2   217  TYR217      0.2264
    150  O         33.3780   -5.6380  -78.1880 O.2   217  TYR217     -0.2867
    151  CB        31.7770   -6.8370  -75.9260 C.3   217  TYR217      0.0534
    152  CG        30.6000   -6.9430  -74.9820 C.ar  217  TYR217     -0.0201
    153  CD1       30.5870   -6.2880  -73.7430 C.ar  217  TYR217     -0.0009
    154  CD2       29.5400   -7.7710  -75.3020 C.ar  217  TYR217     -0.0009
    155  CE1       29.5090   -6.4240  -72.8620 C.ar  217  TYR217      0.0417
    156  CE2       28.4620   -7.9120  -74.4290 C.ar  217  TYR217      0.0417
    157  CZ        28.4570   -7.2650  -73.2170 C.ar  217  TYR217      0.1957
    158  OH        27.3620   -7.4230  -72.3710 O.3   217  TYR217     -0.2866
@<TRIPOS>BOND
     1   150   149    2
     2   149   148    1
     3   147   148    1
     4   148   151    1
     5   151   152    1
     6   154   152   ar
     7   154   156   ar
     8   152   153   ar
     9   156   157   ar
    10   153   155   ar
    11    32    31    2
    12   157   155   ar
    13   157   158    1
    14    23    22    1
    15    23    26    1
    16    23    24    1
    17    22    28    1
    18    26    27    1
    19    29    24   am
    20    29    30    1
    21   139   140    1
    22    31    30    1
    23    31    37   am
    24    28    27    1
    25    39    38    1
    26    39    40    2
    27    24    25    2
    28    38    37    1
    29    38    41    1
    30    33    30    1
    31    33    34    1
    32    43    41    1
    33   140   141    1
    34   140   143    1
    35    36    34    1
    36   146   145    1
    37   141   142    2
    38     4     3    2
    39   145   144    1
    40    41    42    1
    41   132   133    2
    42   132   131    1
    43    34    35    1
    44   134   131    1
    45   134   135    1
    46    47    46    2
    47    46    45    1
    48   137   136   ar
    49   143   144    1
    50   131   130    1
    51     3     2    1
    52   136   135    1
    53   136   138   ar
    54    48    45    1
    55    48    49    1
    56    45    44    1
    57     6     5    1
    58     6     7    1
    59     5     2    1
    60   125   124    2
    61     2     1    1
    62    53    52    1
    63   130   124   am
    64    50    49    1
    65    50    51    1
    66    19    17   ar
    67    19    20   ar
    68   124   123    1
    69    78    77    1
    70    21    20    1
    71    17    15   ar
    72    52    51    2
    73    52    54    1
    74     7     8   ar
    75     7     9   ar
    76    77    74    1
    77    20    18   ar
    78   127   128    1
    79   127   129    1
    80   127   126    1
    81   123   126    1
    82   123   122    1
    83    15    14    1
    84    15    16   ar
    85    84    83    1
    86    13    12    2
    87   122   116   am
    88    18    16   ar
    89    74    75    1
    90    74    73    1
    91    14    11    1
    92   101    99    1
    93    76    75    2
    94    75    79   am
    95    11    12    1
    96    11    10    1
    97   100    99    1
    98    73    71   am
    99    79    80    1
   100    99    96    1
   101    80    83    1
   102    80    81    1
   103    83    85    1
   104   116   115    1
   105   116   117    2
   106   105   104    2
   107   121   119    1
   108   115   118    1
   109   115   114    1
   110    71    70    1
   111    71    72    2
   112    81    82    2
   113    81    86   am
   114   118   119    1
   115    96    97    1
   116    96    95    1
   117    62    60    1
   118    70    69    1
   119   104   114   am
   120   104   103    1
   121   109   111   ar
   122   109   107   ar
   123   111   112   ar
   124   119   120    1
   125    97    98    2
   126    86    87    1
   127   106   107    1
   128   106   103    1
   129   107   108   ar
   130   112   113    1
   131   112   110   ar
   132   103   102    1
   133    59    60    1
   134    59    56    1
   135    60    61    1
   136    69    65   am
   137    66    65    2
   138    88    87    1
   139    88    89    2
   140   108   110   ar
   141    65    64    1
   142    87    90    1
   143    55    56    1
   144    56    57    1
   145    90    91    1
   146    58    57    2
   147    64    67    1
   148    64    63    1
   149    67    68    1
   150    91    92    1
   151    92    93    1
   152    93    94    1
