@<TRIPOS>MOLECULE
tmp/3rtgA03.pdb
 105 101 0 0 0
SMALL
GASTEIGER

@<TRIPOS>ATOM
      1  N         13.7500    4.9350   55.3300 N.3   243  LEU243     -0.1231
      2  CA        14.0290    6.0710   54.4560 C.3   243  LEU243      0.1693
      3  C         13.8400    5.7350   52.9860 C.2   243  LEU243      0.2592
      4  O         13.3330    6.5460   52.2250 O.2   243  LEU243     -0.2718
      5  CB        15.4560    6.6180   54.6580 C.3   243  LEU243      0.0284
      6  CG        15.7700    7.2190   56.0460 C.3   243  LEU243      0.0019
      7  CD1       17.1650    7.8890   55.9760 C.3   243  LEU243      0.0001
      8  CD2       14.6920    8.2600   56.6120 C.3   243  LEU243      0.0001
      9  N         14.3200    4.5750   52.5730 N.am  244  TYR244     -0.1976
     10  CA        14.4100    4.2400   51.1470 C.3   244  TYR244      0.1639
     11  C         13.6210    2.9870   50.8670 C.2   244  TYR244      0.2290
     12  O         14.1870    1.8880   50.8260 O.2   244  TYR244     -0.2864
     13  CB        15.8640    3.9640   50.7670 C.3   244  TYR244      0.0560
     14  CG        16.7350    5.1220   51.0790 C.ar  244  TYR244     -0.0198
     15  CD1       16.5340    6.3180   50.4440 C.ar  244  TYR244     -0.0009
     16  CD2       17.7220    5.0390   52.0600 C.ar  244  TYR244     -0.0009
     17  CE1       17.3150    7.4370   50.7580 C.ar  244  TYR244      0.0417
     18  CE2       18.5140    6.1360   52.3790 C.ar  244  TYR244      0.0417
     19  CZ        18.3050    7.3370   51.7170 C.ar  244  TYR244      0.1957
     20  OH        19.0520    8.4330   52.0170 O.3   244  TYR244     -0.2866
     21  N         29.3130    2.1610   50.5970 N.3   347  ASN347     -0.1240
     22  CA        29.6170    3.2540   51.5560 C.3   347  ASN347      0.1653
     23  C         30.0760    2.7800   52.9490 C.2   347  ASN347      0.2266
     24  O         30.8270    3.4730   53.6000 O.2   347  ASN347     -0.2867
     25  CB        28.4200    4.2400   51.7060 C.3   347  ASN347      0.1155
     26  CG        28.0920    4.9630   50.4030 C.2   347  ASN347      0.2627
     27  OD1       28.9700    5.1730   49.5680 O.2   347  ASN347     -0.2716
     28  ND2       26.8200    5.3040   50.2070 N.am  347  ASN347     -0.0877
     29  N         29.2490    3.9080   41.6230 N.3   366  HIS366     -0.1227
     30  CA        29.5010    5.1320   40.8330 C.3   366  HIS366      0.1737
     31  C         30.7980    5.7970   41.3490 C.2   366  HIS366      0.2438
     32  O         31.3510    5.3580   42.3730 O.2   366  HIS366     -0.2733
     33  CB        28.2790    6.0770   40.7380 C.3   366  HIS366      0.0758
     34  CG        27.8260    6.7000   42.0390 C.ar  366  HIS366      0.0818
     35  ND1       28.6110    7.5710   42.7680 N.ar  366  HIS366     -0.2268
     36  CD2       26.6470    6.6010   42.7140 C.ar  366  HIS366      0.1154
     37  CE1       27.9370    7.9800   43.8400 C.ar  366  HIS366      0.1986
     38  NE2       26.7430    7.4050   43.8330 N.ar  366  HIS366     -0.2212
     39  N         31.3520    6.7790   40.6110 N.am  367  PRO367     -0.2718
     40  CA        32.6470    7.3780   41.0300 C.3   367  PRO367      0.1535
     41  C         32.6650    8.0540   42.4140 C.2   367  PRO367      0.2599
     42  O         33.7160    8.1560   43.0180 O.2   367  PRO367     -0.2715
     43  CB        32.9180    8.4500   39.9640 C.3   367  PRO367      0.0310
     44  CG        32.1940    7.8920   38.6920 C.3   367  PRO367      0.0237
     45  CD        30.9520    7.1940   39.2500 C.3   367  PRO367      0.0939
     46  N         31.5410    8.5930   42.8490 N.am  368  GLY368     -0.1941
     47  CA        31.4430    9.0710   44.2350 C.3   368  GLY368      0.2014
     48  C         31.6460    7.9830   45.2640 C.2   368  GLY368      0.2638
     49  O         32.3560    8.1610   46.2620 O.2   368  GLY368     -0.2714
     50  N         31.0070    6.8450   45.0380 N.am  369  GLU369     -0.1977
     51  CA        31.1700    5.6870   45.9120 C.3   369  GLU369      0.1602
     52  C         32.5950    5.0860   45.7890 C.2   369  GLU369      0.2287
     53  O         33.2040    4.6680   46.7740 O.2   369  GLU369     -0.2864
     54  CB        30.1090    4.6370   45.5680 C.3   369  GLU369      0.0415
     55  CG        28.7080    4.9940   46.0780 C.3   369  GLU369      0.1163
     56  CD        27.5860    4.3230   45.3040 C.2   369  GLU369      0.3649
     57  OE1       27.8470    3.6610   44.2670 O.co2 369  GLU369     -0.2457
     58  OE2       26.4190    4.4990   45.7060 O.co2 369  GLU369     -0.2457
     59  N         35.0410    7.3620   47.7530 N.3   372  ARG372     -0.1245
     60  CA        34.9610    7.0710   49.2130 C.3   372  ARG372      0.1563
     61  C         35.6590    5.7740   49.5510 C.2   372  ARG372      0.2260
     62  O         36.4550    5.7430   50.4700 O.2   372  ARG372     -0.2867
     63  CB        33.5120    7.0330   49.7420 C.3   372  ARG372      0.0307
     64  CG        32.8960    8.4140   49.8150 C.3   372  ARG372      0.0489
     65  CD        31.5410    8.4240   50.5250 C.3   372  ARG372      0.2205
     66  NE        30.5020    7.8080   49.6980 N.pl3 372  ARG372     -0.0865
     67  CZ        29.7150    8.4520   48.8390 C.cat 372  ARG372      0.5346
     68  NH1       29.8070    9.7620   48.6740 N.pl3 372  ARG372      0.1354
     69  NH2       28.8260    7.7770   48.1410 N.pl3 372  ARG372      0.1354
     70  N         36.9120   12.2230   43.3570 N.3   378  VAL378     -0.1245
     71  CA        36.1410   11.7940   42.2150 C.3   378  VAL378      0.1561
     72  C         36.9890   11.9630   40.9560 C.2   378  VAL378      0.2260
     73  O         37.0300   11.0960   40.1240 O.2   378  VAL378     -0.2867
     74  CB        34.8010   12.6060   42.1070 C.3   378  VAL378      0.0252
     75  CG1       34.0610   12.3270   40.7810 C.3   378  VAL378      0.0019
     76  CG2       33.9050   12.3260   43.2900 C.3   378  VAL378      0.0019
     77  N         37.4760    8.7830   38.4100 N.3   382  LYS382     -0.1245
     78  CA        36.5690    8.7520   37.2800 C.3   382  LYS382      0.1561
     79  C         37.2810    8.3280   36.0110 C.2   382  LYS382      0.2260
     80  O         38.2940    8.9190   35.6220 O.2   382  LYS382     -0.2867
     81  CB        35.9200   10.1100   37.0600 C.3   382  LYS382      0.0271
     82  CG        34.8880   10.0510   35.9730 C.3   382  LYS382      0.0035
     83  CD        33.8490   11.1700   36.0420 C.3   382  LYS382      0.0206
     84  CE        32.6620   10.8130   35.0350 C.3   382  LYS382      0.1093
     85  NZ        31.9650   12.0580   34.5980 N.3   382  LYS382     -0.1314
     86  N         30.5470    2.5460   37.3180 N.3   402  LYS402     -0.1231
     87  CA        29.4550    3.1000   36.5450 C.3   402  LYS402      0.1693
     88  C         29.7280    4.5700   36.0970 C.2   402  LYS402      0.2593
     89  O         30.2600    5.3770   36.8330 O.2   402  LYS402     -0.2718
     90  CB        28.1660    3.0270   37.3850 C.3   402  LYS402      0.0285
     91  CG        27.7820    1.5670   37.6660 C.3   402  LYS402      0.0035
     92  CD        26.5270    1.3140   38.4190 C.3   402  LYS402      0.0206
     93  CE        26.4170    1.9890   39.7060 C.3   402  LYS402      0.1093
     94  NZ        25.2970    1.3960   40.5400 N.3   402  LYS402     -0.1314
     95  N         29.4110    4.8650   34.8660 N.am  403  SER403     -0.1938
     96  CA        29.3880    6.2110   34.3170 C.3   403  SER403      0.2055
     97  C         28.8740    6.0570   32.8860 C.2   403  SER403      0.2642
     98  O         28.4860    4.9400   32.4710 O.2   403  SER403     -0.2714
     99  CB        30.8230    6.7920   34.2750 C.3   403  SER403      0.2130
    100  OG        31.2740    7.2300   35.5330 O.3   403  SER403     -0.2179
    101  N         28.9000    7.1310   32.1030 N.am  404  ALA404     -0.1977
    102  CA        28.2670    7.0510   30.7960 C.3   404  ALA404      0.1597
    103  C         28.9540    5.9480   29.9970 C.2   404  ALA404      0.2287
    104  O         28.3120    5.2220   29.2590 O.2   404  ALA404     -0.2864
    105  CB        28.2530    8.4370   30.0570 C.3   404  ALA404      0.0319
@<TRIPOS>BOND
     1   104   103    2
     2   103   102    1
     3   105   102    1
     4   102   101    1
     5   101    97   am
     6    98    97    2
     7    97    96    1
     8    99    96    1
     9    99   100    1
    10    96    95    1
    11    85    84    1
    12    95    88   am
    13    84    83    1
    14    80    79    2
    15    82    83    1
    16    82    81    1
    17    79    78    1
    18    88    87    1
    19    88    89    2
    20    87    86    1
    21    87    90    1
    22    81    78    1
    23    78    77    1
    24    90    91    1
    25    91    92    1
    26    92    93    1
    27    44    45    1
    28    44    43    1
    29    45    39    1
    30    93    94    1
    31    43    40    1
    32    73    72    2
    33    39    40    1
    34    39    31   am
    35    33    30    1
    36    33    34    1
    37    75    74    1
    38    30    31    1
    39    30    29    1
    40    72    71    1
    41    40    41    1
    42    31    32    2
    43    34    36   ar
    44    34    35   ar
    45    74    71    1
    46    74    76    1
    47    71    70    1
    48    41    46   am
    49    41    42    2
    50    36    38   ar
    51    35    37   ar
    52    46    47    1
    53    38    37   ar
    54    47    48    1
    55    57    56   ar
    56    50    48   am
    57    50    51    1
    58    48    49    2
    59    56    58   ar
    60    56    55    1
    61    54    51    1
    62    54    55    1
    63    52    51    1
    64    52    53    2
    65    59    60    1
    66    69    67    1
    67    68    67    1
    68    67    66    2
    69    60    61    1
    70    60    63    1
    71    61    62    2
    72    27    26    2
    73    66    65    1
    74    63    64    1
    75    64    65    1
    76    28    26   am
    77    26    25    1
    78    15    17   ar
    79    15    14   ar
    80    21    22    1
    81    17    19   ar
    82    13    14    1
    83    13    10    1
    84    12    11    2
    85    11    10    1
    86    14    16   ar
    87    10     9    1
    88    22    25    1
    89    22    23    1
    90    19    20    1
    91    19    18   ar
    92    16    18   ar
    93     4     3    2
    94     9     3   am
    95    23    24    2
    96     3     2    1
    97     2     5    1
    98     2     1    1
    99     5     6    1
   100     7     6    1
   101     6     8    1
