@<TRIPOS>MOLECULE
tmp/3rthA00.pdb
 158 152 0 0 0
SMALL
GASTEIGER

@<TRIPOS>ATOM
      1  N         73.8270   55.4860    1.6140 N.3    32  LEU32      -0.1245
      2  CA        73.1780   54.2350    1.3090 C.3    32  LEU32       0.1561
      3  C         71.7010   54.4410    1.0290 C.2    32  LEU32       0.2260
      4  O         70.9950   55.0670    1.8260 O.2    32  LEU32      -0.2867
      5  CB        73.3650   53.2540    2.4700 C.3    32  LEU32       0.0270
      6  CG        72.6840   51.9020    2.2830 C.3    32  LEU32       0.0019
      7  CD1       73.7070   50.9020    1.8330 C.3    32  LEU32       0.0001
      8  CD2       71.9940   51.4470    3.5770 C.3    32  LEU32       0.0001
      9  N         68.0850   53.1770    1.0040 N.3    34  ASP34      -0.1239
     10  CA        67.3820   52.2380    1.8970 C.3    34  ASP34       0.1674
     11  C         65.8900   52.5210    1.9700 C.2    34  ASP34       0.2266
     12  O         65.4650   53.4470    2.6530 O.2    34  ASP34      -0.2867
     13  CB        67.9740   52.3270    3.3180 C.3    34  ASP34       0.1410
     14  CG        67.1310   51.5980    4.3850 C.2    34  ASP34       0.3668
     15  OD1       66.3150   50.7390    4.0410 O.co2  34  ASP34      -0.2456
     16  OD2       67.2890   51.8690    5.5850 O.co2  34  ASP34      -0.2456
     17  N         63.8120   50.7860    3.4940 N.3    36  GLY36      -0.1210
     18  CA        63.3210   50.1000    4.6810 C.3    36  GLY36       0.1956
     19  C         63.2560   50.9850    5.9040 C.2    36  GLY36       0.2612
     20  O         62.8370   50.5370    6.9750 O.2    36  GLY36      -0.2717
     21  N         63.6600   52.2410    5.7660 N.am   37  SER37      -0.1952
     22  CA        63.5900   53.1850    6.8850 C.3    37  SER37       0.1924
     23  C         63.3130   54.5980    6.3890 C.2    37  SER37       0.2314
     24  O         63.1970   54.8140    5.1920 O.2    37  SER37      -0.2863
     25  CB        64.9170   53.1360    7.6730 C.3    37  SER37       0.2116
     26  OG        66.0050   53.5310    6.8550 O.3    37  SER37      -0.2180
     27  N         68.5390   55.7320   17.8610 N.3    71  VAL71      -0.1245
     28  CA        67.9950   54.6210   17.0790 C.3    71  VAL71       0.1561
     29  C         68.6650   53.3150   17.4870 C.2    71  VAL71       0.2260
     30  O         69.7490   53.0010   16.9930 O.2    71  VAL71      -0.2867
     31  CB        68.1390   54.8550   15.5250 C.3    71  VAL71       0.0252
     32  CG1       67.6070   53.6800   14.7290 C.3    71  VAL71       0.0019
     33  CG2       67.4280   56.1270   15.1060 C.3    71  VAL71       0.0019
     34  N         68.9830   49.2440   17.4380 N.3    73  TYR73      -0.1241
     35  CA        68.6350   48.1310   16.5840 C.3    73  TYR73       0.1605
     36  C         68.7300   46.8230   17.3870 C.2    73  TYR73       0.2264
     37  O         68.8030   46.8590   18.6170 O.2    73  TYR73      -0.2867
     38  CB        69.5160   48.1360   15.3350 C.3    73  TYR73       0.0534
     39  CG        69.0750   47.2030   14.2390 C.ar   73  TYR73      -0.0201
     40  CD1       67.7520   47.1850   13.7930 C.ar   73  TYR73      -0.0009
     41  CD2       69.9930   46.3340   13.6370 C.ar   73  TYR73      -0.0009
     42  CE1       67.3540   46.3100   12.7730 C.ar   73  TYR73       0.0417
     43  CE2       69.6130   45.4610   12.6230 C.ar   73  TYR73       0.0417
     44  CZ        68.2980   45.4580   12.1980 C.ar   73  TYR73       0.1957
     45  OH        67.9370   44.5950   11.2070 O.3    73  TYR73      -0.2866
     46  N         71.0590   44.6000   17.9050 N.3    75  GLN75      -0.1231
     47  CA        72.1980   44.8470   18.7760 C.3    75  GLN75       0.1698
     48  C         73.0480   45.8850   18.0350 C.2    75  GLN75       0.2593
     49  O         73.2810   45.7580   16.8200 O.2    75  GLN75      -0.2718
     50  CB        72.9860   43.5590   19.0210 C.3    75  GLN75       0.0381
     51  CG        74.3820   43.8060   19.5970 C.3    75  GLN75       0.0905
     52  CD        75.3280   42.6240   19.4120 C.2    75  GLN75       0.2608
     53  OE1       75.0640   41.7100   18.6060 O.2    75  GLN75      -0.2717
     54  NE2       76.4530   42.6450   20.1530 N.am   75  GLN75      -0.0878
     55  N         73.4830   46.9220   18.7390 N.am   76  GLY76      -0.1942
     56  CA        74.1050   48.0450   18.0540 C.3    76  GLY76       0.2014
     57  C         73.1300   49.1940   17.9380 C.2    76  GLY76       0.2639
     58  O         71.9290   49.0240   18.1360 O.2    76  GLY76      -0.2714
     59  N         73.6570   50.3710   17.6340 N.am   77  LYS77      -0.1963
     60  CA        72.8910   51.6030   17.6980 C.3    77  LYS77       0.1728
     61  C         73.5520   52.7510   16.9380 C.2    77  LYS77       0.2616
     62  O         74.7610   52.7380   16.6850 O.2    77  LYS77      -0.2715
     63  CB        72.6570   52.0090   19.1610 C.3    77  LYS77       0.0311
     64  CG        73.9170   52.2810   20.0030 C.3    77  LYS77       0.0038
     65  CD        74.2300   53.7760   20.1330 C.3    77  LYS77       0.0206
     66  CE        75.1750   54.0310   21.3200 C.3    77  LYS77       0.1093
     67  NZ        74.9780   55.4010   21.9390 N.3    77  LYS77      -0.1314
     68  N         72.7410   53.7310   16.5600 N.am   78  TRP78      -0.1974
     69  CA        73.2730   55.0260   16.1750 C.3    78  TRP78       0.1640
     70  C         72.5320   56.1910   16.8490 C.2    78  TRP78       0.2290
     71  O         71.3390   56.1110   17.1610 O.2    78  TRP78      -0.2864
     72  CB        73.3650   55.1920   14.6590 C.3    78  TRP78       0.0576
     73  CG        72.0770   55.4390   13.9270 C.ar   78  TRP78       0.0006
     74  CD1       71.3300   54.5180   13.2390 C.ar   78  TRP78       0.0946
     75  CD2       71.4180   56.6910   13.7600 C.ar   78  TRP78       0.0152
     76  NE1       70.2350   55.1240   12.6670 N.ar   78  TRP78      -0.2442
     77  CE2       70.2620   56.4570   12.9740 C.ar   78  TRP78       0.0810
     78  CE3       71.6820   57.9890   14.2000 C.ar   78  TRP78       0.0012
     79  CZ2       69.3730   57.4810   12.6250 C.ar   78  TRP78       0.0191
     80  CZ3       70.8010   59.0060   13.8520 C.ar   78  TRP78       0.0001
     81  CH2       69.6570   58.7460   13.0750 C.ar   78  TRP78       0.0015
     82  N         77.1950   52.1590   17.3110 N.3   108  ASP108     -0.1225
     83  CA        77.8020   50.8320   17.4140 C.3   108  ASP108      0.1805
     84  C         77.2570   49.9100   16.3020 C.2   108  ASP108      0.2598
     85  O         76.0510   49.8720   16.0350 O.2   108  ASP108     -0.2718
     86  CB        77.6080   50.2120   18.8100 C.3   108  ASP108      0.1424
     87  CG        78.5140   48.9920   19.0340 C.2   108  ASP108      0.3668
     88  OD1       79.7520   49.1170   18.8650 O.co2 108  ASP108     -0.2456
     89  OD2       77.9910   47.8990   19.3650 O.co2 108  ASP108     -0.2456
     90  N         78.1720   49.2100   15.6300 N.am  109  LYS109     -0.1966
     91  CA        77.8300   48.2080   14.6030 C.3   109  LYS109      0.1728
     92  C         76.9720   48.7730   13.4560 C.2   109  LYS109      0.2616
     93  O         76.2400   48.0440   12.7880 O.2   109  LYS109     -0.2715
     94  CB        77.1990   46.9340   15.2500 C.3   109  LYS109      0.0311
     95  CG        77.9810   46.3960   16.4880 C.3   109  LYS109      0.0038
     96  CD        77.6940   44.9390   16.8360 C.3   109  LYS109      0.0206
     97  CE        78.5860   44.4680   18.0050 C.3   109  LYS109      0.1093
     98  NZ        78.8720   42.9940   18.0470 N.3   109  LYS109     -0.1314
     99  N         77.0860   50.0750   13.2260 N.am  110  PHE110     -0.1974
    100  CA        76.3320   50.7580   12.1730 C.3   110  PHE110      0.1639
    101  C         77.1460   50.9030   10.8750 C.2   110  PHE110      0.2290
    102  O         76.7600   50.3970    9.8470 O.2   110  PHE110     -0.2864
    103  CB        75.8490   52.1250   12.6560 C.3   110  PHE110      0.0560
    104  CG        75.1610   52.9200   11.5980 C.ar  110  PHE110     -0.0200
    105  CD1       73.8700   52.5940   11.1920 C.ar  110  PHE110     -0.0042
    106  CD2       75.8030   53.9930   10.9880 C.ar  110  PHE110     -0.0042
    107  CE1       73.2170   53.3270   10.1950 C.ar  110  PHE110     -0.0003
    108  CE2       75.1620   54.7330    9.9740 C.ar  110  PHE110     -0.0003
    109  CZ        73.8670   54.3950    9.5740 C.ar  110  PHE110     -0.0000
    110  N         80.1160   50.1130    8.2930 N.3   112  ILE112     -0.1245
    111  CA        80.8460   48.8890    7.9820 C.3   112  ILE112      0.1561
    112  C         82.3070   49.1930    7.6800 C.2   112  ILE112      0.2260
    113  O         82.5980   50.0650    6.8720 O.2   112  ILE112     -0.2867
    114  CB        80.2350   48.1070    6.8120 C.3   112  ILE112      0.0252
    115  CG1       78.7390   47.8270    7.0630 C.3   112  ILE112      0.0019
    116  CG2       81.0500   46.8230    6.5710 C.3   112  ILE112      0.0019
    117  CD1       77.9970   47.2570    5.8320 C.3   112  ILE112      0.0001
    118  N         80.5340   54.0480    2.1730 N.3   117  TRP117     -0.1241
    119  CA        79.4300   54.9510    2.4200 C.3   117  TRP117      0.1605
    120  C         79.3810   55.5160    3.8290 C.2   117  TRP117      0.2264
    121  O         79.7430   54.8420    4.7860 O.2   117  TRP117     -0.2867
    122  CB        78.0860   54.3080    2.0550 C.3   117  TRP117      0.0550
    123  CG        77.7370   53.0150    2.7620 C.ar  117  TRP117      0.0003
    124  CD1       77.8590   51.7700    2.2560 C.ar  117  TRP117      0.0946
    125  CD2       77.1760   52.8590    4.0760 C.ar  117  TRP117      0.0152
    126  NE1       77.4290   50.8330    3.1670 N.ar  117  TRP117     -0.2442
    127  CE2       77.0090   51.4720    4.2950 C.ar  117  TRP117      0.0810
    128  CE3       76.8230   53.7510    5.1000 C.ar  117  TRP117      0.0012
    129  CZ2       76.4810   50.9530    5.4840 C.ar  117  TRP117      0.0191
    130  CZ3       76.3040   53.2400    6.2680 C.ar  117  TRP117      0.0001
    131  CH2       76.1310   51.8540    6.4520 C.ar  117  TRP117      0.0015
    132  N         72.9250   57.1670    5.4520 N.3   120  ILE120     -0.1245
    133  CA        71.7790   56.3940    5.0200 C.3   120  ILE120      0.1561
    134  C         70.7230   57.3690    4.5510 C.2   120  ILE120      0.2260
    135  O         70.5960   58.4680    5.1130 O.2   120  ILE120     -0.2867
    136  CB        71.2420   55.5110    6.1810 C.3   120  ILE120      0.0252
    137  CG1       70.2670   54.4570    5.6890 C.3   120  ILE120      0.0019
    138  CG2       70.5890   56.3540    7.2980 C.3   120  ILE120      0.0019
    139  CD1       70.0420   53.3370    6.7380 C.3   120  ILE120      0.0001
    140  N         62.4260   46.2800    0.4710 N.3   220  ASP220     -0.1239
    141  CA        63.4880   46.8860    1.2850 C.3   220  ASP220      0.1674
    142  C         64.8960   46.7790    0.6870 C.2   220  ASP220      0.2266
    143  O         65.5410   45.7240    0.7620 O.2   220  ASP220     -0.2867
    144  CB        63.4490   46.2630    2.6830 C.3   220  ASP220      0.1410
    145  CG        64.5640   46.7310    3.5750 C.2   220  ASP220      0.3668
    146  OD1       65.3220   47.6650    3.2060 O.co2 220  ASP220     -0.2456
    147  OD2       64.6820   46.1480    4.6760 O.co2 220  ASP220     -0.2456
    148  N         67.6260   48.1300    1.7520 N.3   222  GLY222     -0.1210
    149  CA        68.6480   48.0980    2.8140 C.3   222  GLY222      0.1956
    150  C         69.0280   46.7050    3.3150 C.2   222  GLY222      0.2612
    151  O         70.1090   46.5230    3.9100 O.2   222  GLY222     -0.2717
    152  N         68.1350   45.7340    3.0730 N.am  223  THR223     -0.1952
    153  CA        68.3450   44.3120    3.4070 C.3   223  THR223      0.1897
    154  C         68.8880   43.5390    2.2200 C.2   223  THR223      0.2313
    155  O         68.4130   43.6960    1.1040 O.2   223  THR223     -0.2863
    156  CB        67.0300   43.6400    3.8760 C.3   223  THR223      0.1794
    157  OG1       66.5580   44.2980    5.0430 O.3   223  THR223     -0.2208
    158  CG2       67.2260   42.1960    4.2180 C.3   223  THR223      0.0378
@<TRIPOS>BOND
     1   140   141    1
     2   142   143    2
     3   142   141    1
     4     9    10    1
     5     3     2    1
     6     3     4    2
     7   155   154    2
     8   141   144    1
     9     2     1    1
    10     2     5    1
    11   148   149    1
    12     7     6    1
    13    10    11    1
    14    10    13    1
    15    11    12    2
    16   122   119    1
    17   122   123    1
    18   118   119    1
    19   154   153    1
    20   124   123   ar
    21   124   126   ar
    22     6     5    1
    23     6     8    1
    24   119   120    1
    25   144   145    1
    26   123   125   ar
    27   149   150    1
    28   152   150   am
    29   152   153    1
    30   126   127   ar
    31   146   145   ar
    32   150   151    2
    33    13    14    1
    34   153   156    1
    35    17    18    1
    36   145   147   ar
    37   120   121    2
    38   156   158    1
    39   156   157    1
    40    15    14   ar
    41   125   127   ar
    42   125   128   ar
    43   127   129   ar
    44    14    16   ar
    45   134   133    1
    46   134   135    2
    47    18    19    1
    48   133   132    1
    49   133   136    1
    50   128   130   ar
    51    24    23    2
    52   129   131   ar
    53   137   136    1
    54   137   139    1
    55    21    19   am
    56    21    22    1
    57   117   115    1
    58    19    20    2
    59   136   138    1
    60   130   131   ar
    61    23    22    1
    62   116   114    1
    63   114   115    1
    64   114   111    1
    65    26    25    1
    66   113   112    2
    67    22    25    1
    68   112   111    1
    69   111   110    1
    70   109   108   ar
    71   109   107   ar
    72   102   101    2
    73   108   106   ar
    74   107   105   ar
    75   101   100    1
    76   106   104   ar
    77   105   104   ar
    78    45    44    1
    79   104   103    1
    80   100   103    1
    81   100    99    1
    82    44    43   ar
    83    44    42   ar
    84    43    41   ar
    85    79    77   ar
    86    79    81   ar
    87    76    77   ar
    88    76    74   ar
    89    42    40   ar
    90    93    92    2
    91    77    75   ar
    92    81    80   ar
    93    99    92   am
    94    74    73   ar
    95    92    91    1
    96    41    39   ar
    97    75    73   ar
    98    75    78   ar
    99    40    39   ar
   100    80    78   ar
   101    73    72    1
   102    39    38    1
   103    91    94    1
   104    91    90    1
   105    72    69    1
   106    32    31    1
   107    33    31    1
   108    94    95    1
   109    38    35    1
   110    31    28    1
   111    90    84   am
   112    85    84    2
   113    69    68    1
   114    69    70    1
   115    84    83    1
   116    95    96    1
   117    68    61   am
   118    35    36    1
   119    35    34    1
   120    62    61    2
   121    49    48    2
   122    96    97    1
   123    70    71    2
   124    61    60    1
   125    30    29    2
   126    28    29    1
   127    28    27    1
   128    82    83    1
   129    36    37    2
   130    83    86    1
   131    59    60    1
   132    59    57   am
   133    60    63    1
   134    46    47    1
   135    57    56    1
   136    57    58    2
   137    97    98    1
   138    48    55   am
   139    48    47    1
   140    56    55    1
   141    53    52    2
   142    47    50    1
   143    86    87    1
   144    88    87   ar
   145    50    51    1
   146    87    89   ar
   147    63    64    1
   148    52    51    1
   149    52    54   am
   150    64    65    1
   151    65    66    1
   152    66    67    1
