@<TRIPOS>MOLECULE
tmp/3rtiA01.pdb
 154 149 0 0 0
SMALL
GASTEIGER

@<TRIPOS>ATOM
      1  N         16.2260   68.0380   52.0490 N.3    73  ASN73      -0.1225
      2  CA        17.3810   67.1660   51.8920 C.3    73  ASN73       0.1785
      3  C         17.5440   66.1020   52.9720 C.2    73  ASN73       0.2597
      4  O         18.5490   65.3960   52.9770 O.2    73  ASN73      -0.2718
      5  CB        18.6510   68.0040   51.8480 C.3    73  ASN73       0.1169
      6  CG        18.7370   68.9690   53.0070 C.2    73  ASN73       0.2627
      7  OD1       18.1260   68.7510   54.0580 O.2    73  ASN73      -0.2716
      8  ND2       19.4970   70.0410   52.8300 N.am   73  ASN73      -0.0877
      9  N         16.5760   65.9960   53.8830 N.am   74  ALA74      -0.1966
     10  CA        16.6260   65.0100   54.9660 C.3    74  ALA74       0.1728
     11  C         17.8750   65.2350   55.8240 C.2    74  ALA74       0.2616
     12  O         18.4640   64.3000   56.3710 O.2    74  ALA74      -0.2715
     13  CB        16.6240   63.5920   54.3830 C.3    74  ALA74       0.0334
     14  N         18.2600   66.4970   55.9460 N.am   75  TYR75      -0.1960
     15  CA        19.4470   66.8910   56.6980 C.3    75  TYR75       0.1771
     16  C         19.1390   67.2080   58.1680 C.2    75  TYR75       0.2619
     17  O         18.2590   68.0140   58.4710 O.2    75  TYR75      -0.2715
     18  CB        20.0490   68.1330   56.0300 C.3    75  TYR75       0.0574
     19  CG        21.5460   68.3190   56.1770 C.ar   75  TYR75      -0.0198
     20  CD1       22.4330   67.7900   55.2320 C.ar   75  TYR75      -0.0009
     21  CD2       22.0740   69.0570   57.2400 C.ar   75  TYR75      -0.0009
     22  CE1       23.8100   67.9950   55.3370 C.ar   75  TYR75       0.0417
     23  CE2       23.4500   69.2660   57.3580 C.ar   75  TYR75       0.0417
     24  CZ        24.3110   68.7330   56.4030 C.ar   75  TYR75       0.1957
     25  OH        25.6690   68.9440   56.5230 O.3    75  TYR75      -0.2866
     26  N         19.8560   66.5700   59.0830 N.am   76  VAL76      -0.1977
     27  CA        19.6650   66.8520   60.5010 C.3    76  VAL76       0.1596
     28  C         20.3580   68.1990   60.7290 C.2    76  VAL76       0.2287
     29  O         21.5830   68.2860   60.6470 O.2    76  VAL76      -0.2864
     30  CB        20.3350   65.7820   61.3930 C.3    76  VAL76       0.0276
     31  CG1       20.1150   66.1180   62.8460 C.3    76  VAL76       0.0022
     32  CG2       19.7800   64.4120   61.0770 C.3    76  VAL76       0.0022
     33  N         23.5610   73.1980   63.8830 N.3    88  PHE88      -0.1241
     34  CA        24.8420   73.1380   63.1990 C.3    88  PHE88       0.1605
     35  C         25.0150   74.4930   62.5200 C.2    88  PHE88       0.2264
     36  O         24.0410   75.0930   62.0570 O.2    88  PHE88      -0.2867
     37  CB        24.8500   72.0260   62.1550 C.3    88  PHE88       0.0534
     38  CG        24.9630   70.6560   62.7410 C.ar   88  PHE88      -0.0203
     39  CD1       26.0760   70.3030   63.4870 C.ar   88  PHE88      -0.0042
     40  CD2       23.9700   69.7100   62.5340 C.ar   88  PHE88      -0.0042
     41  CE1       26.2000   69.0320   64.0130 C.ar   88  PHE88      -0.0003
     42  CE2       24.0900   68.4330   63.0600 C.ar   88  PHE88      -0.0003
     43  CZ        25.2090   68.0960   63.8010 C.ar   88  PHE88      -0.0000
     44  N         27.3380   70.4220   59.9300 N.3   116  GLY116     -0.1210
     45  CA        26.9120   69.0560   60.1480 C.3   116  GLY116      0.1956
     46  C         27.4330   68.0630   59.1390 C.2   116  GLY116      0.2612
     47  O         27.0630   66.8970   59.1900 O.2   116  GLY116     -0.2717
     48  N         28.2820   68.5040   58.2200 N.am  117  ASN117     -0.1960
     49  CA        28.8220   67.5900   57.2280 C.3   117  ASN117      0.1819
     50  C         29.6880   66.5100   57.8820 C.2   117  ASN117      0.2621
     51  O         30.2570   66.7120   58.9540 O.2   117  ASN117     -0.2715
     52  CB        29.6310   68.3590   56.1930 C.3   117  ASN117      0.1195
     53  CG        30.7300   69.1800   56.8140 C.2   117  ASN117      0.2630
     54  OD1       30.4780   69.9960   57.7050 O.2   117  ASN117     -0.2716
     55  ND2       31.9600   68.9740   56.3490 N.am  117  ASN117     -0.0877
     56  N         29.7730   65.3570   57.2320 N.am  118  TYR118     -0.1974
     57  CA        30.5460   64.2430   57.7550 C.3   118  TYR118      0.1639
     58  C         32.0140   64.5600   57.9840 C.2   118  TYR118      0.2290
     59  O         32.5740   64.1950   59.0170 O.2   118  TYR118     -0.2864
     60  CB        30.4360   63.0380   56.8220 C.3   118  TYR118      0.0560
     61  CG        29.1310   62.3010   56.9090 C.ar  118  TYR118     -0.0198
     62  CD1       28.6040   61.9310   58.1410 C.ar  118  TYR118     -0.0009
     63  CD2       28.4540   61.9120   55.7580 C.ar  118  TYR118     -0.0009
     64  CE1       27.4300   61.1810   58.2270 C.ar  118  TYR118      0.0417
     65  CE2       27.2830   61.1630   55.8280 C.ar  118  TYR118      0.0417
     66  CZ        26.7750   60.7990   57.0620 C.ar  118  TYR118      0.1957
     67  OH        25.6190   60.0520   57.1380 O.3   118  TYR118     -0.2866
     68  N         22.5530   60.5720   62.2990 N.3   167  ILE167     -0.1245
     69  CA        22.3950   60.9360   60.9060 C.3   167  ILE167      0.1561
     70  C         22.3000   59.7060   60.0190 C.2   167  ILE167      0.2260
     71  O         21.5370   59.6770   59.0580 O.2   167  ILE167     -0.2867
     72  CB        23.5650   61.8140   60.4230 C.3   167  ILE167      0.0252
     73  CG1       23.5440   63.1610   61.1500 C.3   167  ILE167      0.0019
     74  CG2       23.4710   62.0190   58.9350 C.3   167  ILE167      0.0019
     75  CD1       24.7340   64.0470   60.8300 C.3   167  ILE167      0.0001
     76  N         18.5410   59.6290   58.8330 N.3   171  SER171     -0.1202
     77  CA        18.5510   60.2970   57.5370 C.3   171  SER171      0.2020
     78  C         18.9910   59.4010   56.3900 C.2   171  SER171      0.2618
     79  O         18.3050   59.3010   55.3720 O.2   171  SER171     -0.2717
     80  CB        19.4550   61.5220   57.5740 C.3   171  SER171      0.2103
     81  OG        18.8340   62.5860   58.2670 O.3   171  SER171     -0.2182
     82  N         20.1400   58.7560   56.5470 N.am  172  GLU172     -0.1979
     83  CA        20.6510   57.8800   55.5050 C.3   172  GLU172      0.1602
     84  C         19.7150   56.6970   55.3310 C.2   172  GLU172      0.2287
     85  O         19.5810   56.1520   54.2380 O.2   172  GLU172     -0.2864
     86  CB        22.0640   57.4010   55.8540 C.3   172  GLU172      0.0415
     87  CG        23.0800   58.5350   56.0100 C.3   172  GLU172      0.1163
     88  CD        23.3450   59.3480   54.7260 C.2   172  GLU172      0.3649
     89  OE1       22.5350   59.3330   53.7790 O.co2 172  GLU172     -0.2457
     90  OE2       24.3820   60.0330   54.6750 O.co2 172  GLU172     -0.2457
     91  N         16.7900   57.7440   53.2070 N.3   175  ARG175     -0.1245
     92  CA        17.2490   57.9060   51.8400 C.3   175  ARG175      0.1563
     93  C         17.4930   56.6260   51.0400 C.2   175  ARG175      0.2260
     94  O         17.3430   56.6290   49.8110 O.2   175  ARG175     -0.2867
     95  CB        18.5440   58.7130   51.8180 C.3   175  ARG175      0.0307
     96  CG        18.4120   60.1560   52.2010 C.3   175  ARG175      0.0489
     97  CD        19.7880   60.7540   52.3470 C.3   175  ARG175      0.2205
     98  NE        19.7420   62.1740   52.6690 N.pl3 175  ARG175     -0.0865
     99  CZ        20.6880   62.7980   53.3560 C.cat 175  ARG175      0.5346
    100  NH1       21.7330   62.1160   53.7850 N.pl3 175  ARG175      0.1354
    101  NH2       20.5970   64.0950   53.6040 N.pl3 175  ARG175      0.1354
    102  N         26.1800   56.6690   50.7970 N.3   203  GLU203     -0.1231
    103  CA        26.0050   57.9260   51.5120 C.3   203  GLU203      0.1699
    104  C         26.6750   59.0760   50.7820 C.2   203  GLU203      0.2592
    105  O         26.0860   60.1340   50.6170 O.2   203  GLU203     -0.2718
    106  CB        26.5800   57.8270   52.9250 C.3   203  GLU203      0.0402
    107  CG        25.7460   57.0260   53.8930 C.3   203  GLU203      0.1161
    108  CD        26.5130   56.6840   55.1470 C.2   203  GLU203      0.3649
    109  OE1       27.5210   57.3720   55.4150 O.co2 203  GLU203     -0.2457
    110  OE2       26.1140   55.7390   55.8670 O.co2 203  GLU203     -0.2457
    111  N         27.9050   58.8600   50.3400 N.am  204  ASN204     -0.1974
    112  CA        28.6540   59.8960   49.6530 C.3   204  ASN204      0.1688
    113  C         28.1690   60.1640   48.2360 C.2   204  ASN204      0.2292
    114  O         28.5530   61.1620   47.6340 O.2   204  ASN204     -0.2864
    115  CB        30.1370   59.5240   49.6360 C.3   204  ASN204      0.1181
    116  CG        30.7590   59.5330   51.0260 C.2   204  ASN204      0.2629
    117  OD1       31.8440   58.9920   51.2390 O.2   204  ASN204     -0.2716
    118  ND2       30.0750   60.1650   51.9800 N.am  204  ASN204     -0.0877
    119  N         24.6430   60.0560   47.2290 N.3   206  TRP206     -0.1227
    120  CA        23.2400   60.4580   47.1500 C.3   206  TRP206      0.1737
    121  C         23.0500   61.6240   46.1850 C.2   206  TRP206      0.2596
    122  O         22.2940   61.5220   45.2190 O.2   206  TRP206     -0.2718
    123  CB        22.7190   60.8440   48.5350 C.3   206  TRP206      0.0564
    124  CG        21.2510   61.0560   48.5750 C.ar  206  TRP206      0.0003
    125  CD1       20.2880   60.1990   48.1280 C.ar  206  TRP206      0.0946
    126  CD2       20.5610   62.1830   49.1250 C.ar  206  TRP206      0.0152
    127  NE1       19.0420   60.7200   48.3680 N.ar  206  TRP206     -0.2442
    128  CE2       19.1790   61.9370   48.9800 C.ar  206  TRP206      0.0810
    129  CE3       20.9750   63.3750   49.7320 C.ar  206  TRP206      0.0012
    130  CZ2       18.2090   62.8410   49.4190 C.ar  206  TRP206      0.0191
    131  CZ3       20.0090   64.2730   50.1680 C.ar  206  TRP206      0.0001
    132  CH2       18.6440   64.0000   50.0090 C.ar  206  TRP206      0.0015
    133  N         23.7370   62.7290   46.4510 N.am  207  GLY207     -0.1957
    134  CA        23.6250   63.8810   45.5800 C.3   207  GLY207      0.1869
    135  C         23.8690   63.5350   44.1230 C.2   207  GLY207      0.2309
    136  O         23.0300   63.8160   43.2590 O.2   207  GLY207     -0.2863
    137  N         17.1080   64.1880   46.3070 N.3   251  VAL251     -0.1245
    138  CA        17.0410   65.6290   46.5150 C.3   251  VAL251      0.1561
    139  C         16.6900   66.2510   45.1520 C.2   251  VAL251      0.2260
    140  O         17.1740   65.8060   44.1110 O.2   251  VAL251     -0.2867
    141  CB        18.3880   66.1950   47.0330 C.3   251  VAL251      0.0252
    142  CG1       19.5230   65.8210   46.0850 C.3   251  VAL251      0.0019
    143  CG2       18.2940   67.6910   47.1840 C.3   251  VAL251      0.0019
    144  N         16.6960   68.3860   41.9250 N.3   253  ARG253     -0.1245
    145  CA        17.7970   68.9710   41.1660 C.3   253  ARG253      0.1563
    146  C         17.3310   69.9020   40.0670 C.2   253  ARG253      0.2260
    147  O         17.8820   70.9820   39.8810 O.2   253  ARG253     -0.2867
    148  CB        18.6620   67.8840   40.5410 C.3   253  ARG253      0.0307
    149  CG        19.5420   67.1600   41.5190 C.3   253  ARG253      0.0489
    150  CD        20.3820   68.1350   42.3170 C.3   253  ARG253      0.2205
    151  NE        21.3850   67.4430   43.1200 N.pl3 253  ARG253     -0.0865
    152  CZ        22.2350   68.0560   43.9350 C.cat 253  ARG253      0.5346
    153  NH1       22.1900   69.3760   44.0530 N.pl3 253  ARG253      0.1354
    154  NH2       23.1390   67.3550   44.6100 N.pl3 253  ARG253      0.1354
@<TRIPOS>BOND
     1   147   146    2
     2   146   145    1
     3   148   145    1
     4   148   149    1
     5   145   144    1
     6   149   150    1
     7   150   151    1
     8   151   152    2
     9   136   135    2
    10   152   153    1
    11   152   154    1
    12   140   139    2
    13   135   134    1
    14   139   138    1
    15   122   121    2
    16   134   133    1
    17   142   141    1
    18   121   133   am
    19   121   120    1
    20   137   138    1
    21   138   141    1
    22   141   143    1
    23   120   119    1
    24   120   123    1
    25   114   113    2
    26   125   127   ar
    27   125   124   ar
    28   113   112    1
    29   127   128   ar
    30   123   124    1
    31   124   126   ar
    32   128   126   ar
    33   128   130   ar
    34   126   129   ar
    35   130   132   ar
    36   115   112    1
    37   115   116    1
    38   112   111    1
    39   129   131   ar
    40    94    93    2
    41   132   131   ar
    42   111   104   am
    43   105   104    2
    44   104   103    1
    45   102   103    1
    46   116   117    2
    47   116   118   am
    48    93    92    1
    49   103   106    1
    50    95    92    1
    51    95    96    1
    52    92    91    1
    53     5     2    1
    54     5     6    1
    55     2     1    1
    56     2     3    1
    57    96    97    1
    58    97    98    1
    59    98    99    2
    60     8     6   am
    61   106   107    1
    62     3     4    2
    63     3     9   am
    64     6     7    2
    65    99   101    1
    66    99   100    1
    67    89    88   ar
    68     9    10    1
    69   107   108    1
    70    85    84    2
    71    13    10    1
    72    90    88   ar
    73    88    87    1
    74    10    11    1
    75   108   109   ar
    76   108   110   ar
    77    20    22   ar
    78    20    19   ar
    79    84    83    1
    80    22    24   ar
    81    79    78    2
    82    83    86    1
    83    83    82    1
    84    63    65   ar
    85    63    61   ar
    86    11    14   am
    87    11    12    2
    88    65    66   ar
    89    86    87    1
    90    14    15    1
    91    18    19    1
    92    18    15    1
    93    19    21   ar
    94    52    53    1
    95    52    49    1
    96    55    53   am
    97    78    82   am
    98    78    77    1
    99    24    25    1
   100    24    23   ar
   101    15    16    1
   102    53    54    2
   103    60    61    1
   104    60    57    1
   105    61    62   ar
   106    66    67    1
   107    66    64   ar
   108    49    50    1
   109    49    48    1
   110    56    57    1
   111    56    50   am
   112    21    23   ar
   113    77    80    1
   114    77    76    1
   115    80    81    1
   116    57    58    1
   117    50    51    2
   118    58    59    2
   119    62    64   ar
   120    16    17    2
   121    16    26   am
   122    48    46   am
   123    74    72    1
   124    71    70    2
   125    26    27    1
   126    46    47    2
   127    46    45    1
   128    44    45    1
   129    70    69    1
   130    72    69    1
   131    72    73    1
   132    27    28    1
   133    27    30    1
   134    29    28    2
   135    75    73    1
   136    69    68    1
   137    32    30    1
   138    30    31    1
   139    36    35    2
   140    37    38    1
   141    37    34    1
   142    35    34    1
   143    40    38   ar
   144    40    42   ar
   145    38    39   ar
   146    42    43   ar
   147    34    33    1
   148    39    41   ar
   149    43    41   ar
