@<TRIPOS>MOLECULE
tmp/3rtjC00.pdb
 90 85 0 0 0
SMALL
GASTEIGER

@<TRIPOS>ATOM
      1  N         23.7560   44.5700   18.0350 N.3    22  ASP22      -0.1239
      2  CA        24.8490   44.6470   17.0730 C.3    22  ASP22       0.1674
      3  C         24.3890   44.9400   15.6210 C.2    22  ASP22       0.2266
      4  O         23.3510   44.4430   15.1810 O.2    22  ASP22      -0.2867
      5  CB        25.5420   43.2770   17.1850 C.3    22  ASP22       0.1410
      6  CG        26.8010   43.1630   16.3870 C.2    22  ASP22       0.3668
      7  OD1       26.7410   43.2390   15.1450 O.co2  22  ASP22      -0.2456
      8  OD2       27.8600   42.9650   17.0130 O.co2  22  ASP22      -0.2456
      9  N         24.9310   44.0460   12.0810 N.3    24  ARG24      -0.1231
     10  CA        25.5670   42.9650   11.3220 C.3    24  ARG24       0.1694
     11  C         26.7590   43.2930   10.4270 C.2    24  ARG24       0.2592
     12  O         26.7060   44.2040    9.5970 O.2    24  ARG24      -0.2718
     13  CB        24.5170   42.2170   10.5000 C.3    24  ARG24       0.0321
     14  CG        25.0520   40.9680    9.8040 C.3    24  ARG24       0.0489
     15  CD        23.9180   40.1250    9.2560 C.3    24  ARG24       0.2205
     16  NE        23.2050   39.4240   10.3200 N.pl3  24  ARG24      -0.0865
     17  CZ        21.9090   39.1250   10.2860 C.cat  24  ARG24       0.5346
     18  NH1       21.1710   39.4690    9.2390 N.pl3  24  ARG24       0.1354
     19  NH2       21.3490   38.4850   11.3010 N.pl3  24  ARG24       0.1354
     20  N         27.8240   42.5100   10.6160 N.am   25  ASP25      -0.1960
     21  CA        29.0860   42.6130    9.8830 C.3    25  ASP25       0.1840
     22  C         29.7100   44.0060    9.7850 C.2    25  ASP25       0.2623
     23  O         30.4760   44.2820    8.8690 O.2    25  ASP25      -0.2715
     24  CB        28.9290   42.0210    8.4790 C.3    25  ASP25       0.1450
     25  CG        28.5470   40.5530    8.5090 C.2    25  ASP25       0.3671
     26  OD1       29.1730   39.7990    9.2870 O.co2  25  ASP25      -0.2456
     27  OD2       27.6320   40.1540    7.7500 O.co2  25  ASP25      -0.2456
     28  N         29.3910   44.8800   10.7320 N.am   26  GLY26      -0.1940
     29  CA        29.9560   46.2160   10.7180 C.3    26  GLY26       0.2014
     30  C         29.6240   47.1090    9.5320 C.2    26  GLY26       0.2638
     31  O         30.2210   48.1740    9.3840 O.2    26  GLY26      -0.2714
     32  N         28.6730   46.7050    8.6950 N.am   27  ARG27      -0.1977
     33  CA        28.3060   47.5110    7.5270 C.3    27  ARG27       0.1597
     34  C         27.0850   48.3960    7.7720 C.2    27  ARG27       0.2287
     35  O         26.1620   48.0130    8.5020 O.2    27  ARG27      -0.2864
     36  CB        28.0310   46.6100    6.3350 C.3    27  ARG27       0.0334
     37  CG        28.9640   45.4420    6.2350 C.3    27  ARG27       0.0492
     38  CD        28.9570   44.9390    4.8220 C.3    27  ARG27       0.2205
     39  NE        29.8950   45.6800    3.9930 N.pl3  27  ARG27      -0.0865
     40  CZ        31.2070   45.4830    4.0170 C.cat  27  ARG27       0.5346
     41  NH1       31.7280   44.5680    4.8270 N.pl3  27  ARG27       0.1354
     42  NH2       31.9990   46.1990    3.2310 N.pl3  27  ARG27       0.1354
     43  N         21.2160   42.7070   14.8570 N.3    35  GLN35      -0.1245
     44  CA        21.1910   41.3690   15.4360 C.3    35  GLN35       0.1566
     45  C         21.7270   41.2740   16.8560 C.2    35  GLN35       0.2260
     46  O         22.3200   42.2170   17.3730 O.2    35  GLN35      -0.2867
     47  CB        22.0150   40.4380   14.5500 C.3    35  GLN35       0.0367
     48  CG        23.3040   41.0860   14.0530 C.3    35  GLN35       0.0905
     49  CD        24.3520   40.0870   13.5890 C.2    35  GLN35       0.2608
     50  OE1       24.0480   39.1080   12.9160 O.2    35  GLN35      -0.2717
     51  NE2       25.6020   40.3490   13.9370 N.am   35  GLN35      -0.0878
     52  N         24.3750   39.8220   19.3980 N.3    37  TRP37      -0.1241
     53  CA        25.7410   39.3950   19.1970 C.3    37  TRP37       0.1605
     54  C         26.5620   39.5930   20.4520 C.2    37  TRP37       0.2264
     55  O         26.4070   40.5930   21.1410 O.2    37  TRP37      -0.2867
     56  CB        26.3510   40.2020   18.0500 C.3    37  TRP37       0.0550
     57  CG        27.5990   39.6130   17.5250 C.ar   37  TRP37       0.0003
     58  CD1       28.8750   40.0350   17.7590 C.ar   37  TRP37       0.0946
     59  CD2       27.7010   38.4530   16.6950 C.ar   37  TRP37       0.0152
     60  NE1       29.7720   39.2080   17.1220 N.ar   37  TRP37      -0.2442
     61  CE2       29.0790   38.2300   16.4610 C.ar   37  TRP37       0.0810
     62  CE3       26.7590   37.5820   16.1190 C.ar   37  TRP37       0.0012
     63  CZ2       29.5410   37.1620   15.6790 C.ar   37  TRP37       0.0191
     64  CZ3       27.2160   36.5240   15.3420 C.ar   37  TRP37       0.0001
     65  CH2       28.5980   36.3240   15.1270 C.ar   37  TRP37       0.0015
     66  N         31.1980   43.3150   22.7310 N.3    40  LYS40      -0.1245
     67  CA        32.6000   43.5810   22.4950 C.3    40  LYS40       0.1561
     68  C         33.2360   44.5410   23.4790 C.2    40  LYS40       0.2260
     69  O         32.5850   45.4530   23.9900 O.2    40  LYS40      -0.2867
     70  CB        32.7780   44.1080   21.0740 C.3    40  LYS40       0.0271
     71  CG        32.2970   43.1250   20.0330 C.3    40  LYS40       0.0035
     72  CD        32.7350   43.5020   18.6360 C.3    40  LYS40       0.0206
     73  CE        32.0200   44.7280   18.1250 C.3    40  LYS40       0.1093
     74  NZ        32.2290   44.8290   16.6540 N.3    40  LYS40      -0.1314
     75  N         34.1530   49.5020   18.4950 N.3    44  ASP44      -0.1239
     76  CA        33.4670   49.2720   17.2260 C.3    44  ASP44       0.1674
     77  C         32.0710   49.8930   17.2630 C.2    44  ASP44       0.2266
     78  O         31.1640   49.3750   17.9180 O.2    44  ASP44      -0.2867
     79  CB        33.3910   47.7730   16.9230 C.3    44  ASP44       0.1410
     80  CG        34.7690   47.1350   16.8200 C.2    44  ASP44       0.3668
     81  OD1       35.7050   47.8290   16.3610 O.co2  44  ASP44      -0.2456
     82  OD2       34.9200   45.9450   17.1860 O.co2  44  ASP44      -0.2456
     83  N         29.6300   49.7060   15.6890 N.3    46  ASN46      -0.1240
     84  CA        28.4950   48.8810   15.2980 C.3    46  ASN46       0.1653
     85  C         27.8240   48.2460   16.5100 C.2    46  ASN46       0.2266
     86  O         26.8660   47.4830   16.3700 O.2    46  ASN46      -0.2867
     87  CB        28.9330   47.7990   14.3000 C.3    46  ASN46       0.1155
     88  CG        29.4240   46.5380   14.9750 C.2    46  ASN46       0.2627
     89  OD1       30.2540   46.5890   15.8760 O.2    46  ASN46      -0.2716
     90  ND2       28.9180   45.3940   14.5310 N.am   46  ASN46      -0.0877
@<TRIPOS>BOND
     1    42    40    1
     2    39    40    2
     3    39    38    1
     4    40    41    1
     5    38    37    1
     6    37    36    1
     7    36    33    1
     8    33    34    1
     9    33    32    1
    10    27    25   ar
    11    34    35    2
    12    24    25    1
    13    24    21    1
    14    25    26   ar
    15    32    30   am
    16    23    22    2
    17    18    17    1
    18    15    14    1
    19    15    16    1
    20    31    30    2
    21    30    29    1
    22    12    11    2
    23    22    21    1
    24    22    28   am
    25    14    13    1
    26    21    20    1
    27    17    16    2
    28    17    19    1
    29    11    20   am
    30    11    10    1
    31    13    10    1
    32    29    28    1
    33    10     9    1
    34    50    49    2
    35    49    51   am
    36    49    48    1
    37    48    47    1
    38    87    88    1
    39    87    84    1
    40    90    88   am
    41    47    44    1
    42    43    44    1
    43    88    89    2
    44    65    64   ar
    45    65    63   ar
    46     7     6   ar
    47     4     3    2
    48    84    83    1
    49    84    85    1
    50    64    62   ar
    51    44    45    1
    52     3     2    1
    53    63    61   ar
    54    62    59   ar
    55    81    80   ar
    56    86    85    2
    57     6     8   ar
    58     6     5    1
    59    61    59   ar
    60    61    60   ar
    61    74    73    1
    62    59    57   ar
    63    80    79    1
    64    80    82   ar
    65    45    46    2
    66    79    76    1
    67     2     5    1
    68     2     1    1
    69    60    58   ar
    70    76    77    1
    71    76    75    1
    72    77    78    2
    73    57    58   ar
    74    57    56    1
    75    56    53    1
    76    73    72    1
    77    72    71    1
    78    53    52    1
    79    53    54    1
    80    71    70    1
    81    54    55    2
    82    70    67    1
    83    67    66    1
    84    67    68    1
    85    68    69    2
