@<TRIPOS>MOLECULE
tmp/3rtjC01.pdb
 92 87 0 0 0
SMALL
GASTEIGER

@<TRIPOS>ATOM
      1  N         -1.5470   31.8310   42.4120 N.3   199  GLU199     -0.1245
      2  CA        -0.8660   31.0200   43.4270 C.3   199  GLU199      0.1567
      3  C          0.1020   29.9750   42.9150 C.2   199  GLU199      0.2260
      4  O          0.5260   29.0960   43.6750 O.2   199  GLU199     -0.2867
      5  CB        -1.8710   30.3410   44.3610 C.3   199  GLU199      0.0388
      6  CG        -1.8710   30.9460   45.7550 C.3   199  GLU199      0.1160
      7  CD        -2.9940   30.4350   46.6370 C.2   199  GLU199      0.3649
      8  OE1       -2.9480   29.2590   47.0450 O.co2 199  GLU199     -0.2457
      9  OE2       -3.9270   31.2150   46.9210 O.co2 199  GLU199     -0.2457
     10  N          5.8810   36.1570   46.4470 N.3   234  ASP234     -0.1225
     11  CA         5.2330   36.0570   47.7520 C.3   234  ASP234      0.1805
     12  C          5.5960   34.7810   48.4940 C.2   234  ASP234      0.2598
     13  O          5.4110   33.6960   47.9580 O.2   234  ASP234     -0.2718
     14  CB         3.7190   36.0930   47.5180 C.3   234  ASP234      0.1424
     15  CG         2.9110   35.9460   48.7880 C.2   234  ASP234      0.3668
     16  OD1        3.0920   34.9510   49.5250 O.co2 234  ASP234     -0.2456
     17  OD2        2.0700   36.8350   49.0370 O.co2 234  ASP234     -0.2456
     18  N          6.1010   34.8980   49.7200 N.am  235  VAL235     -0.1966
     19  CA         6.4330   33.7070   50.5010 C.3   235  VAL235      0.1727
     20  C          5.1280   33.1850   51.1090 C.2   235  VAL235      0.2616
     21  O          4.5440   33.8110   51.9940 O.2   235  VAL235     -0.2715
     22  CB         7.4420   34.0160   51.6110 C.3   235  VAL235      0.0290
     23  CG1        7.7460   32.7490   52.3830 C.3   235  VAL235      0.0023
     24  CG2        8.7270   34.5750   51.0090 C.3   235  VAL235      0.0023
     25  N          4.6850   32.0290   50.6200 N.am  236  ARG236     -0.1963
     26  CA         3.4190   31.4120   51.0240 C.3   236  ARG236      0.1729
     27  C          3.0280   31.4290   52.5000 C.2   236  ARG236      0.2616
     28  O          3.6340   30.7520   53.3350 O.2   236  ARG236     -0.2715
     29  CB         3.3490   29.9760   50.4970 C.3   236  ARG236      0.0348
     30  CG         1.9400   29.4270   50.4680 C.3   236  ARG236      0.0492
     31  CD         1.8540   28.1920   49.6080 C.3   236  ARG236      0.2205
     32  NE         0.5250   28.0400   49.0300 N.pl3 236  ARG236     -0.0865
     33  CZ         0.2660   27.3000   47.9560 C.cat 236  ARG236      0.5346
     34  NH1        1.2520   26.6430   47.3500 N.pl3 236  ARG236      0.1354
     35  NH2       -0.9710   27.2320   47.4700 N.pl3 236  ARG236      0.1354
     36  N          1.9860   32.2010   52.8010 N.am  237  ALA237     -0.1963
     37  CA         1.4780   32.3240   54.1590 C.3   237  ALA237      0.1728
     38  C          2.6190   32.5910   55.1410 C.2   237  ALA237      0.2616
     39  O          2.8160   31.8200   56.0810 O.2   237  ALA237     -0.2715
     40  CB         0.7430   31.0480   54.5380 C.3   237  ALA237      0.0334
     41  N          3.3650   33.6760   54.9170 N.am  238  SER238     -0.1950
     42  CA         4.5030   34.0450   55.7660 C.3   238  SER238      0.1924
     43  C          5.1420   32.8460   56.4550 C.2   238  SER238      0.2314
     44  O          5.5500   32.9290   57.6100 O.2   238  SER238     -0.2863
     45  CB         4.0620   35.0570   56.8150 C.3   238  SER238      0.2116
     46  OG         3.8000   36.3010   56.2050 O.3   238  SER238     -0.2180
     47  N          5.4000   31.7750   45.8590 N.3   246  ILE246     -0.1245
     48  CA         4.3140   31.8200   44.8950 C.3   246  ILE246      0.1561
     49  C          4.1500   33.2040   44.2950 C.2   246  ILE246      0.2260
     50  O          4.7560   34.1680   44.7430 O.2   246  ILE246     -0.2867
     51  CB         2.9570   31.4390   45.5550 C.3   246  ILE246      0.0252
     52  CG1        2.5650   32.5090   46.5740 C.3   246  ILE246      0.0019
     53  CG2        3.0570   30.0910   46.2580 C.3   246  ILE246      0.0019
     54  CD1        1.1450   32.4110   47.0690 C.3   246  ILE246      0.0001
     55  N          1.5740   36.1340   43.7680 N.3   248  TYR248     -0.1241
     56  CA         0.3700   36.5340   44.4790 C.3   248  TYR248      0.1605
     57  C          0.1210   38.0200   44.2760 C.2   248  TYR248      0.2264
     58  O          1.0550   38.7810   44.0530 O.2   248  TYR248     -0.2867
     59  CB         0.5560   36.2280   45.9690 C.3   248  TYR248      0.0534
     60  CG        -0.7230   36.1030   46.7560 C.ar  248  TYR248     -0.0201
     61  CD1       -1.5570   34.9960   46.5990 C.ar  248  TYR248     -0.0009
     62  CD2       -1.1210   37.1080   47.6360 C.ar  248  TYR248     -0.0009
     63  CE1       -2.7630   34.8930   47.2970 C.ar  248  TYR248      0.0417
     64  CE2       -2.3240   37.0160   48.3380 C.ar  248  TYR248      0.0417
     65  CZ        -3.1400   35.9090   48.1630 C.ar  248  TYR248      0.1957
     66  OH        -4.3370   35.8290   48.8460 O.3   248  TYR248     -0.2866
     67  N         -0.1080   43.1880   48.3590 N.3   251  HIS251     -0.1241
     68  CA        -0.7670   43.6540   49.5770 C.3   251  HIS251      0.1621
     69  C          0.2530   44.3490   50.4760 C.2   251  HIS251      0.2264
     70  O         -0.1010   44.9790   51.4700 O.2   251  HIS251     -0.2867
     71  CB        -1.5200   42.5270   50.3230 C.3   251  HIS251      0.0745
     72  CG        -0.6790   41.3530   50.7150 C.ar  251  HIS251      0.0817
     73  ND1        0.4370   41.4640   51.5150 N.ar  251  HIS251     -0.2268
     74  CD2       -0.8410   40.0300   50.4770 C.ar  251  HIS251      0.1154
     75  CE1        0.9260   40.2600   51.7560 C.ar  251  HIS251      0.1986
     76  NE2        0.1690   39.3730   51.1380 N.ar  251  HIS251     -0.2212
     77  N          2.6470   43.2830   52.6910 N.3   253  ASP253     -0.1239
     78  CA         3.1810   42.7820   53.9640 C.3   253  ASP253      0.1674
     79  C          4.6470   42.3730   53.8450 C.2   253  ASP253      0.2266
     80  O          5.2130   42.3700   52.7550 O.2   253  ASP253     -0.2867
     81  CB         2.3820   41.5780   54.4720 C.3   253  ASP253      0.1410
     82  CG         1.0570   41.9690   55.0810 C.2   253  ASP253      0.3668
     83  OD1        1.0270   42.9520   55.8570 O.co2 253  ASP253     -0.2456
     84  OD2        0.0530   41.2800   54.7910 O.co2 253  ASP253     -0.2456
     85  N          6.0350   39.5810   53.7440 N.3   255  ASN255     -0.1240
     86  CA         6.2870   38.3970   52.9290 C.3   255  ASN255      0.1653
     87  C          6.3070   38.6790   51.4210 C.2   255  ASN255      0.2266
     88  O          6.3400   37.7560   50.6130 O.2   255  ASN255     -0.2867
     89  CB         5.2620   37.3030   53.2540 C.3   255  ASN255      0.1155
     90  CG         3.8560   37.6820   52.8510 C.2   255  ASN255      0.2627
     91  OD1        3.3080   38.6650   53.3300 O.2   255  ASN255     -0.2716
     92  ND2        3.2610   36.8950   51.9670 N.am  255  ASN255     -0.0877
@<TRIPOS>BOND
     1     1     2    1
     2     3     2    1
     3     3     4    2
     4     2     5    1
     5    55    56    1
     6    58    57    2
     7    57    56    1
     8    49    50    2
     9    49    48    1
    10     5     6    1
    11    56    59    1
    12    48    51    1
    13    48    47    1
    14    51    53    1
    15    51    52    1
    16     6     7    1
    17    59    60    1
    18    10    11    1
    19    52    54    1
    20    61    60   ar
    21    61    63   ar
    22     7     9   ar
    23     7     8   ar
    24    60    62   ar
    25    63    65   ar
    26    34    33    1
    27    35    33    1
    28    14    11    1
    29    14    15    1
    30    62    64   ar
    31    11    12    1
    32    33    32    2
    33    13    12    2
    34    65    64   ar
    35    65    66    1
    36    67    68    1
    37    12    18   am
    38    15    17   ar
    39    15    16   ar
    40    32    31    1
    41    68    71    1
    42    68    69    1
    43    31    30    1
    44    18    19    1
    45    71    72    1
    46    30    29    1
    47    69    70    2
    48    74    72   ar
    49    74    76   ar
    50    29    26    1
    51    19    20    1
    52    19    22    1
    53    88    87    2
    54    25    26    1
    55    25    20   am
    56    72    73   ar
    57    24    22    1
    58    26    27    1
    59    20    21    2
    60    76    75   ar
    61    87    86    1
    62    73    75   ar
    63    22    23    1
    64    92    90   am
    65    27    36   am
    66    27    28    2
    67    77    78    1
    68    80    79    2
    69    36    37    1
    70    90    89    1
    71    90    91    2
    72    86    89    1
    73    86    85    1
    74    79    78    1
    75    78    81    1
    76    37    40    1
    77    37    38    1
    78    81    82    1
    79    84    82   ar
    80    41    38   am
    81    41    42    1
    82    82    83   ar
    83    38    39    2
    84    42    43    1
    85    42    45    1
    86    46    45    1
    87    43    44    2
