@<TRIPOS>MOLECULE
tmp/3rtmA00.pdb
 146 137 0 0 0
SMALL
GASTEIGER

@<TRIPOS>ATOM
      1  N         77.3660   45.0290    1.0960 N.3    14  GLN14      -0.1245
      2  CA        77.5300   46.3030    1.8160 C.3    14  GLN14       0.1566
      3  C         76.5090   47.3980    1.4560 C.2    14  GLN14       0.2260
      4  O         76.6270   48.5280    1.9420 O.2    14  GLN14      -0.2867
      5  CB        78.9650   46.8190    1.6680 C.3    14  GLN14       0.0367
      6  CG        80.0020   45.7600    2.0110 C.3    14  GLN14       0.0905
      7  CD        81.4050   46.3270    2.2210 C.2    14  GLN14       0.2608
      8  OE1       81.7850   47.3480    1.6030 O.2    14  GLN14      -0.2717
      9  NE2       82.1900   45.6630    3.0880 N.am   14  GLN14      -0.0878
     10  N         73.7170   55.6660    1.5460 N.3    32  LEU32      -0.1245
     11  CA        73.1080   54.3950    1.2610 C.3    32  LEU32       0.1561
     12  C         71.6280   54.5310    1.0470 C.2    32  LEU32       0.2260
     13  O         70.9210   55.0720    1.8990 O.2    32  LEU32      -0.2867
     14  CB        73.3830   53.4170    2.3950 C.3    32  LEU32       0.0270
     15  CG        72.6940   52.0540    2.2810 C.3    32  LEU32       0.0019
     16  CD1       73.6620   50.9900    2.6240 C.3    32  LEU32       0.0001
     17  CD2       71.4570   51.9570    3.1820 C.3    32  LEU32       0.0001
     18  N         68.0940   53.3540    1.1470 N.3    34  ASP34      -0.1239
     19  CA        67.3710   52.3910    2.0030 C.3    34  ASP34       0.1674
     20  C         65.8720   52.6180    2.0260 C.2    34  ASP34       0.2266
     21  O         65.4100   53.5560    2.6570 O.2    34  ASP34      -0.2867
     22  CB        67.9100   52.4670    3.4310 C.3    34  ASP34       0.1410
     23  CG        67.1120   51.6330    4.4230 C.2    34  ASP34       0.3668
     24  OD1       66.5310   50.6020    4.0190 O.co2  34  ASP34      -0.2456
     25  OD2       67.0800   52.0060    5.6210 O.co2  34  ASP34      -0.2456
     26  N         63.9080   50.7900    3.4370 N.3    36  GLY36      -0.1210
     27  CA        63.4490   50.1210    4.6560 C.3    36  GLY36       0.1956
     28  C         63.3150   51.0660    5.8440 C.2    36  GLY36       0.2612
     29  O         62.8710   50.6510    6.9230 O.2    36  GLY36      -0.2717
     30  N         63.6950   52.3290    5.6700 N.am   37  SER37      -0.1952
     31  CA        63.5820   53.3000    6.7480 C.3    37  SER37       0.1924
     32  C         63.3460   54.7280    6.2430 C.2    37  SER37       0.2314
     33  O         63.4220   54.9910    5.0330 O.2    37  SER37      -0.2863
     34  CB        64.8500   53.2550    7.6160 C.3    37  SER37       0.2116
     35  OG        65.9640   53.7550    6.9120 O.3    37  SER37      -0.2180
     36  N         68.2870   55.7580   17.7150 N.3    71  VAL71      -0.1245
     37  CA        67.7440   54.6740   16.9090 C.3    71  VAL71       0.1561
     38  C         68.4100   53.3430   17.2640 C.2    71  VAL71       0.2260
     39  O         69.4260   52.9920   16.6760 O.2    71  VAL71      -0.2867
     40  CB        67.8560   54.9570   15.3670 C.3    71  VAL71       0.0252
     41  CG1       67.2050   53.8430   14.5660 C.3    71  VAL71       0.0019
     42  CG2       67.2250   56.2860   15.0020 C.3    71  VAL71       0.0019
     43  N         68.4100   49.2150   17.1920 N.3    73  TYR73      -0.1241
     44  CA        67.8440   48.1340   16.4150 C.3    73  TYR73       0.1605
     45  C         68.4330   46.8320   16.9170 C.2    73  TYR73       0.2264
     46  O         69.0550   46.8030   17.9800 O.2    73  TYR73      -0.2867
     47  CB        68.0400   48.3390   14.9070 C.3    73  TYR73       0.0534
     48  CG        69.4440   48.7370   14.4780 C.ar   73  TYR73      -0.0201
     49  CD1       70.3350   47.7760   13.9830 C.ar   73  TYR73      -0.0009
     50  CD2       69.8790   50.0740   14.5540 C.ar   73  TYR73      -0.0009
     51  CE1       71.6170   48.1210   13.5920 C.ar   73  TYR73       0.0417
     52  CE2       71.1620   50.4310   14.1590 C.ar   73  TYR73       0.0417
     53  CZ        72.0240   49.4490   13.6780 C.ar   73  TYR73       0.1957
     54  OH        73.2990   49.7780   13.2800 O.3    73  TYR73      -0.2866
     55  N         72.2990   53.7620   16.2310 N.3    78  TRP78      -0.1241
     56  CA        72.8400   55.0670   15.8930 C.3    78  TRP78       0.1605
     57  C         72.0750   56.1870   16.6220 C.2    78  TRP78       0.2264
     58  O         70.9180   56.0340   17.0180 O.2    78  TRP78      -0.2867
     59  CB        72.9460   55.2800   14.3720 C.3    78  TRP78       0.0550
     60  CG        71.6740   55.6440   13.6580 C.ar   78  TRP78       0.0003
     61  CD1       70.8530   54.7950   12.9770 C.ar   78  TRP78       0.0946
     62  CD2       71.1010   56.9450   13.5300 C.ar   78  TRP78       0.0152
     63  NE1       69.7970   55.4820   12.4440 N.ar   78  TRP78      -0.2442
     64  CE2       69.9210   56.8070   12.7660 C.ar   78  TRP78       0.0810
     65  CE3       71.4590   58.2130   13.9910 C.ar   78  TRP78       0.0012
     66  CZ2       69.0890   57.8970   12.4520 C.ar   78  TRP78       0.0191
     67  CZ3       70.6360   59.2970   13.6730 C.ar   78  TRP78       0.0001
     68  CH2       69.4620   59.1290   12.9130 C.ar   78  TRP78       0.0015
     69  N         76.8740   50.0960   13.1820 N.3   110  PHE110     -0.1241
     70  CA        76.1700   50.7910   12.1330 C.3   110  PHE110      0.1605
     71  C         77.0530   50.9520   10.8770 C.2   110  PHE110      0.2264
     72  O         76.6650   50.5270    9.7940 O.2   110  PHE110     -0.2867
     73  CB        75.6650   52.1340   12.6420 C.3   110  PHE110      0.0534
     74  CG        74.8690   52.8900   11.6300 C.ar  110  PHE110     -0.0203
     75  CD1       73.5810   52.4940   11.3140 C.ar  110  PHE110     -0.0042
     76  CD2       75.4160   53.9880   10.9750 C.ar  110  PHE110     -0.0042
     77  CE1       72.8280   53.1820   10.3740 C.ar  110  PHE110     -0.0003
     78  CE2       74.6730   54.6880   10.0280 C.ar  110  PHE110     -0.0003
     79  CZ        73.3700   54.2820    9.7300 C.ar  110  PHE110     -0.0000
     80  N         79.9670   50.1500    8.2350 N.3   112  ILE112     -0.1245
     81  CA        80.6530   48.9310    7.8650 C.3   112  ILE112      0.1561
     82  C         82.1310   49.2080    7.6070 C.2   112  ILE112      0.2260
     83  O         82.4920   50.0470    6.7790 O.2   112  ILE112     -0.2867
     84  CB        79.9780   48.2230    6.6720 C.3   112  ILE112      0.0252
     85  CG1       78.4960   47.9360    6.9740 C.3   112  ILE112      0.0019
     86  CG2       80.7480   46.9480    6.2890 C.3   112  ILE112      0.0019
     87  CD1       77.6960   47.4720    5.7490 C.3   112  ILE112      0.0001
     88  N         80.3580   54.1480    2.2240 N.3   117  TRP117     -0.1241
     89  CA        79.2760   55.0810    2.4520 C.3   117  TRP117      0.1605
     90  C         79.2980   55.6160    3.8710 C.2   117  TRP117      0.2264
     91  O         79.8080   54.9570    4.7820 O.2   117  TRP117     -0.2867
     92  CB        77.9210   54.4740    2.1260 C.3   117  TRP117      0.0550
     93  CG        77.6110   53.1880    2.7850 C.ar  117  TRP117      0.0003
     94  CD1       77.7840   51.9640    2.2620 C.ar  117  TRP117      0.0946
     95  CD2       77.0360   52.9920    4.0850 C.ar  117  TRP117      0.0152
     96  NE1       77.3610   51.0090    3.1360 N.ar  117  TRP117     -0.2442
     97  CE2       76.8970   51.6130    4.2690 C.ar  117  TRP117      0.0810
     98  CE3       76.6420   53.8550    5.1230 C.ar  117  TRP117      0.0012
     99  CZ2       76.3730   51.0570    5.4530 C.ar  117  TRP117      0.0191
    100  CZ3       76.1100   53.3110    6.2850 C.ar  117  TRP117      0.0001
    101  CH2       75.9800   51.9310    6.4450 C.ar  117  TRP117      0.0015
    102  N         72.9070   57.2440    5.5540 N.3   120  ILE120     -0.1245
    103  CA        71.7650   56.4580    5.0930 C.3   120  ILE120      0.1561
    104  C         70.6710   57.3920    4.5920 C.2   120  ILE120      0.2260
    105  O         70.5280   58.5160    5.1000 O.2   120  ILE120     -0.2867
    106  CB        71.2230   55.5940    6.2350 C.3   120  ILE120      0.0252
    107  CG1       70.2150   54.5880    5.7170 C.3   120  ILE120      0.0019
    108  CG2       70.5480   56.4500    7.2970 C.3   120  ILE120      0.0019
    109  CD1       69.8200   53.5610    6.7510 C.3   120  ILE120      0.0001
    110  N         62.5510   46.2150    0.6220 N.3   219  ASP219     -0.1239
    111  CA        63.6730   46.8750    1.3220 C.3   219  ASP219      0.1674
    112  C         65.0350   46.7860    0.6120 C.2   219  ASP219      0.2266
    113  O         65.6990   45.7510    0.6250 O.2   219  ASP219     -0.2867
    114  CB        63.7920   46.3120    2.7420 C.3   219  ASP219      0.1410
    115  CG        64.9260   46.9290    3.5360 C.2   219  ASP219      0.3668
    116  OD1       65.5340   47.9470    3.1230 O.co2 219  ASP219     -0.2456
    117  OD2       65.2040   46.3880    4.6100 O.co2 219  ASP219     -0.2456
    118  N         67.6680   48.0610    1.6550 N.3   221  GLY221     -0.1210
    119  CA        68.6930   47.9640    2.6860 C.3   221  GLY221      0.1956
    120  C         68.9720   46.5510    3.1720 C.2   221  GLY221      0.2612
    121  O         70.0490   46.2870    3.7140 O.2   221  GLY221     -0.2717
    122  N         68.0050   45.6460    2.9990 N.am  222  THR222     -0.1952
    123  CA        68.2190   44.2160    3.2960 C.3   222  THR222      0.1897
    124  C         68.7620   43.4710    2.0970 C.2   222  THR222      0.2313
    125  O         68.4250   43.7750    0.9650 O.2   222  THR222     -0.2863
    126  CB        66.9410   43.5040    3.8170 C.3   222  THR222      0.1794
    127  OG1       66.6110   43.9910    5.1250 O.3   222  THR222     -0.2208
    128  CG2       67.1380   42.0010    3.8950 C.3   222  THR222      0.0378
    129  N         64.1960   37.4910    3.1990 N.3   226  ARG226     -0.1245
    130  CA        63.9140   37.0050    4.5210 C.3   226  ARG226      0.1563
    131  C         62.4370   36.6170    4.5740 C.2   226  ARG226      0.2260
    132  O         61.5760   37.4320    4.2350 O.2   226  ARG226     -0.2867
    133  CB        64.2100   38.0880    5.5700 C.3   226  ARG226      0.0307
    134  CG        65.6700   38.5580    5.6470 C.3   226  ARG226      0.0489
    135  CD        65.8060   39.7300    6.6360 C.3   226  ARG226      0.2205
    136  NE        65.8700   39.2710    8.0260 N.pl3 226  ARG226     -0.0865
    137  CZ        65.2260   39.8340    9.0500 C.cat 226  ARG226      0.5346
    138  NH1       64.4330   40.8800    8.8730 N.pl3 226  ARG226      0.1354
    139  NH2       65.3500   39.3290   10.2720 N.pl3 226  ARG226      0.1354
    140  N         60.7140   40.2880    4.0310 N.3   316  VAL316     -0.1245
    141  CA        61.5250   41.3740    3.5360 C.3   316  VAL316      0.1561
    142  C         62.0580   40.9660    2.1750 C.2   316  VAL316      0.2260
    143  O         62.8600   40.0420    2.0490 O.2   316  VAL316     -0.2867
    144  CB        62.6780   41.7570    4.5190 C.3   316  VAL316      0.0252
    145  CG1       63.5620   42.7970    3.8980 C.3   316  VAL316      0.0019
    146  CG2       62.1180   42.2820    5.8570 C.3   316  VAL316      0.0019
@<TRIPOS>BOND
     1   112   113    2
     2   112   111    1
     3   110   111    1
     4   125   124    2
     5    12    11    1
     6    12    13    2
     7     1     2    1
     8    18    19    1
     9    11    10    1
    10    11    14    1
    11   111   114    1
    12     3     2    1
    13     3     4    2
    14     8     7    2
    15   118   119    1
    16     5     2    1
    17     5     6    1
    18    19    20    1
    19    19    22    1
    20     6     7    1
    21    20    21    2
    22   143   142    2
    23   124   123    1
    24    92    89    1
    25    92    93    1
    26   142   141    1
    27     7     9   am
    28    88    89    1
    29    94    93   ar
    30    94    96   ar
    31    15    14    1
    32    15    16    1
    33    15    17    1
    34    89    90    1
    35   119   120    1
    36   114   115    1
    37    93    95   ar
    38   122   120   am
    39   122   123    1
    40   116   115   ar
    41    96    97   ar
    42   120   121    2
    43   129   130    1
    44   123   126    1
    45    22    23    1
    46    26    27    1
    47   115   117   ar
    48   141   140    1
    49   141   144    1
    50   126   128    1
    51   126   127    1
    52    90    91    2
    53   145   144    1
    54    24    23   ar
    55    95    97   ar
    56    95    98   ar
    57   132   131    2
    58    97    99   ar
    59    23    25   ar
    60   144   146    1
    61   130   131    1
    62   130   133    1
    63   104   103    1
    64   104   105    2
    65    27    28    1
    66    33    32    2
    67   103   102    1
    68   103   106    1
    69    98   100   ar
    70    99   101   ar
    71   133   134    1
    72   134   135    1
    73    30    28   am
    74    30    31    1
    75   107   106    1
    76   107   109    1
    77    87    85    1
    78    28    29    2
    79   106   108    1
    80    32    31    1
    81   100   101   ar
    82    86    84    1
    83   135   136    1
    84    84    85    1
    85    84    81    1
    86    31    34    1
    87    83    82    2
    88    35    34    1
    89    82    81    1
    90    81    80    1
    91   136   137    2
    92   138   137    1
    93   137   139    1
    94    79    78   ar
    95    79    77   ar
    96    72    71    2
    97    78    76   ar
    98    77    75   ar
    99    71    70    1
   100    76    74   ar
   101    75    74   ar
   102    74    73    1
   103    70    73    1
   104    70    69    1
   105    63    64   ar
   106    63    61   ar
   107    66    64   ar
   108    66    68   ar
   109    64    62   ar
   110    68    67   ar
   111    61    60   ar
   112    54    53    1
   113    62    60   ar
   114    62    65   ar
   115    51    53   ar
   116    51    49   ar
   117    60    59    1
   118    67    65   ar
   119    53    52   ar
   120    49    48   ar
   121    52    50   ar
   122    59    56    1
   123    48    50   ar
   124    48    47    1
   125    41    40    1
   126    47    44    1
   127    42    40    1
   128    40    37    1
   129    56    55    1
   130    56    57    1
   131    44    45    1
   132    44    43    1
   133    57    58    2
   134    39    38    2
   135    37    38    1
   136    37    36    1
   137    45    46    2
