@<TRIPOS>MOLECULE
tmp/3rtnA00.pdb
 184 174 0 0 0
SMALL
GASTEIGER

@<TRIPOS>ATOM
      1  N         67.6590   53.4800    1.8650 N.3    34  ASP34      -0.1239
      2  CA        67.0020   52.4690    2.6620 C.3    34  ASP34       0.1674
      3  C         65.5010   52.6400    2.7040 C.2    34  ASP34       0.2266
      4  O         65.0010   53.4570    3.4660 O.2    34  ASP34      -0.2867
      5  CB        67.5400   52.5580    4.0770 C.3    34  ASP34       0.1410
      6  CG        67.0220   51.4680    4.9830 C.2    34  ASP34       0.3668
      7  OD1       66.1870   50.6450    4.5890 O.co2  34  ASP34      -0.2456
      8  OD2       67.4780   51.4200    6.1250 O.co2  34  ASP34      -0.2456
      9  N         63.5810   50.7300    4.0970 N.3    36  GLY36      -0.1210
     10  CA        63.1850   50.0520    5.3420 C.3    36  GLY36       0.1956
     11  C         63.5070   50.7920    6.6540 C.2    36  GLY36       0.2612
     12  O         63.5450   50.1770    7.7330 O.2    36  GLY36      -0.2717
     13  N         63.7390   52.1020    6.5790 N.am   37  SER37      -0.1952
     14  CA        63.7270   52.9610    7.7650 C.3    37  SER37       0.1924
     15  C         63.3050   54.3470    7.3600 C.2    37  SER37       0.2314
     16  O         63.1070   54.6040    6.1970 O.2    37  SER37      -0.2863
     17  CB        65.0920   52.9760    8.4790 C.3    37  SER37       0.2116
     18  OG        66.1550   53.1960    7.5820 O.3    37  SER37      -0.2180
     19  N         64.6540   57.4350    9.1830 N.3    39  ASN39      -0.1240
     20  CA        65.5660   58.4750    9.6460 C.3    39  ASN39       0.1653
     21  C         66.6580   58.8520    8.6460 C.2    39  ASN39       0.2266
     22  O         67.1830   58.0020    7.9340 O.2    39  ASN39      -0.2867
     23  CB        66.1970   58.0890   10.9780 C.3    39  ASN39       0.1155
     24  CG        65.2250   58.1970   12.1270 C.2    39  ASN39       0.2627
     25  OD1       64.5220   57.2490   12.4580 O.2    39  ASN39      -0.2716
     26  ND2       65.1810   59.3650   12.7450 N.am   39  ASN39      -0.0877
     27  N         68.6360   54.6970   18.6510 N.3    71  VAL71      -0.1231
     28  CA        68.0790   53.7130   17.7390 C.3    71  VAL71       0.1678
     29  C         68.8590   52.4210   17.8480 C.2    71  VAL71       0.2434
     30  O         69.9790   52.3220   17.3320 O.2    71  VAL71      -0.2733
     31  CB        68.0530   54.1720   16.2540 C.3    71  VAL71       0.0265
     32  CG1       67.2440   53.1790   15.4180 C.3    71  VAL71       0.0020
     33  CG2       67.4890   55.5600   16.1080 C.3    71  VAL71       0.0020
     34  N         68.2780   51.4350   18.5530 N.am   72  PRO72      -0.2718
     35  CA        68.9110   50.1500   18.7110 C.3    72  PRO72       0.1535
     36  C         68.4100   49.1980   17.6560 C.2    72  PRO72       0.2598
     37  O         67.3530   49.4340   17.0850 O.2    72  PRO72      -0.2715
     38  CB        68.4500   49.7110   20.0990 C.3    72  PRO72       0.0310
     39  CG        67.1430   50.3220   20.2670 C.3    72  PRO72       0.0237
     40  CD        67.1540   51.6080   19.4940 C.3    72  PRO72       0.0939
     41  N         69.1720   48.1420   17.4000 N.am   73  TYR73      -0.1974
     42  CA        68.7800   47.1220   16.4680 C.3    73  TYR73       0.1639
     43  C         69.3160   45.7710   16.9410 C.2    73  TYR73       0.2290
     44  O         70.3000   45.7370   17.6620 O.2    73  TYR73      -0.2864
     45  CB        69.3230   47.4650   15.0820 C.3    73  TYR73       0.0560
     46  CG        68.9360   46.4800   14.0120 C.ar   73  TYR73      -0.0198
     47  CD1       67.6030   46.2570   13.7090 C.ar   73  TYR73      -0.0009
     48  CD2       69.8990   45.7780   13.3070 C.ar   73  TYR73      -0.0009
     49  CE1       67.2290   45.3540   12.7440 C.ar   73  TYR73       0.0417
     50  CE2       69.5420   44.8720   12.3230 C.ar   73  TYR73       0.0417
     51  CZ        68.1940   44.6670   12.0500 C.ar   73  TYR73       0.1957
     52  OH        67.7970   43.7790   11.0810 O.3    73  TYR73      -0.2866
     53  N         71.5820   43.4780   16.6970 N.3    75  GLN75      -0.1245
     54  CA        72.9080   43.7480   17.2090 C.3    75  GLN75       0.1566
     55  C         73.1460   45.2720   17.0570 C.2    75  GLN75       0.2260
     56  O         72.6960   45.8820   16.0680 O.2    75  GLN75      -0.2867
     57  CB        73.9320   42.8950   16.4540 C.3    75  GLN75       0.0367
     58  CG        74.9070   42.1240   17.3610 C.3    75  GLN75       0.0905
     59  CD        74.2470   41.0240   18.2040 C.2    75  GLN75       0.2608
     60  OE1       73.0370   41.0370   18.4410 O.2    75  GLN75      -0.2717
     61  NE2       75.0560   40.0710   18.6670 N.am   75  GLN75      -0.0878
     62  N         73.6860   49.6180   17.7210 N.3    77  LYS77      -0.1231
     63  CA        72.8540   50.8150   17.8240 C.3    77  LYS77       0.1693
     64  C         73.5470   52.0670   17.2450 C.2    77  LYS77       0.2592
     65  O         74.7570   52.0600   17.0000 O.2    77  LYS77      -0.2718
     66  CB        72.4520   51.0700   19.2800 C.3    77  LYS77       0.0285
     67  CG        73.2860   52.1430   20.0010 C.3    77  LYS77       0.0035
     68  CD        74.2030   51.5950   21.0710 C.3    77  LYS77       0.0206
     69  CE        74.7380   52.7550   21.9310 C.3    77  LYS77       0.1093
     70  NZ        75.6600   52.2990   23.0120 N.3    77  LYS77      -0.1314
     71  N         72.7620   53.1210   17.0100 N.am   78  TRP78      -0.1976
     72  CA        73.2980   54.4640   16.8000 C.3    78  TRP78       0.1640
     73  C         72.5560   55.5080   17.6280 C.2    78  TRP78       0.2290
     74  O         71.3570   55.4130   17.8380 O.2    78  TRP78      -0.2864
     75  CB        73.3890   54.8720   15.3170 C.3    78  TRP78       0.0576
     76  CG        72.0910   55.0550   14.5300 C.ar   78  TRP78       0.0006
     77  CD1       71.5470   54.1700   13.6420 C.ar   78  TRP78       0.0946
     78  CD2       71.2350   56.2150   14.5020 C.ar   78  TRP78       0.0152
     79  NE1       70.3950   54.6900   13.0860 N.ar   78  TRP78      -0.2442
     80  CE2       70.1790   55.9360   13.6000 C.ar   78  TRP78       0.0810
     81  CE3       71.2540   57.4560   15.1590 C.ar   78  TRP78       0.0012
     82  CZ2       69.1630   56.8400   13.3370 C.ar   78  TRP78       0.0191
     83  CZ3       70.2390   58.3560   14.9050 C.ar   78  TRP78       0.0001
     84  CH2       69.1990   58.0420   13.9980 C.ar   78  TRP78       0.0015
     85  N         78.2880   48.7440   15.8620 N.3   109  LYS109     -0.1231
     86  CA        77.8770   47.8030   14.8020 C.3   109  LYS109      0.1693
     87  C         76.9040   48.4280   13.7820 C.2   109  LYS109      0.2592
     88  O         76.0300   47.7570   13.2330 O.2   109  LYS109     -0.2718
     89  CB        77.3160   46.5030   15.3870 C.3   109  LYS109      0.0285
     90  CG        78.3290   45.6890   16.1690 C.3   109  LYS109      0.0035
     91  CD        77.6520   44.8280   17.2020 C.3   109  LYS109      0.0206
     92  CE        78.6500   43.8710   17.8430 C.3   109  LYS109      0.1093
     93  NZ        78.0100   42.9180   18.7900 N.3   109  LYS109     -0.1314
     94  N         77.0960   49.7200   13.5310 N.am  110  PHE110     -0.1976
     95  CA        76.3850   50.4350   12.4980 C.3   110  PHE110      0.1639
     96  C         77.2730   50.6390   11.2620 C.2   110  PHE110      0.2290
     97  O         76.9200   50.2210   10.1520 O.2   110  PHE110     -0.2864
     98  CB        75.8770   51.7630   13.0450 C.3   110  PHE110      0.0560
     99  CG        75.1180   52.5730   12.0500 C.ar  110  PHE110     -0.0200
    100  CD1       73.9050   52.1300   11.5490 C.ar  110  PHE110     -0.0042
    101  CD2       75.6100   53.7830   11.6080 C.ar  110  PHE110     -0.0042
    102  CE1       73.2150   52.8690   10.6120 C.ar  110  PHE110     -0.0003
    103  CE2       74.9110   54.5350   10.6910 C.ar  110  PHE110     -0.0003
    104  CZ        73.7220   54.0790   10.1910 C.ar  110  PHE110     -0.0000
    105  N         72.6950   57.2860    6.3290 N.3   120  ILE120     -0.1245
    106  CA        71.5660   56.5080    5.8870 C.3   120  ILE120      0.1561
    107  C         70.3970   57.4480    5.6200 C.2   120  ILE120      0.2260
    108  O         70.1600   58.4000    6.3900 O.2   120  ILE120     -0.2867
    109  CB        71.2000   55.4620    6.9590 C.3   120  ILE120      0.0252
    110  CG1       70.0510   54.5690    6.4930 C.3   120  ILE120      0.0019
    111  CG2       70.8630   56.1410    8.2840 C.3   120  ILE120      0.0019
    112  CD1       70.0750   53.2110    7.1250 C.3   120  ILE120      0.0001
    113  N         57.5520   54.8510   11.6160 N.3   128  ILE128     -0.1245
    114  CA        58.6750   54.0900   12.2030 C.3   128  ILE128      0.1561
    115  C         59.9480   54.9130   12.3970 C.2   128  ILE128      0.2260
    116  O         60.9890   54.3650   12.7660 O.2   128  ILE128     -0.2867
    117  CB        58.9940   52.7770   11.4400 C.3   128  ILE128      0.0252
    118  CG1       59.3500   53.0550    9.9730 C.3   128  ILE128      0.0019
    119  CG2       57.8300   51.8090   11.5610 C.3   128  ILE128      0.0019
    120  CD1       60.0170   51.8980    9.2940 C.3   128  ILE128      0.0001
    121  N         62.3260   57.2120   14.4140 N.3   130  ARG130     -0.1245
    122  CA        62.6880   57.3640   15.8190 C.3   130  ARG130      0.1563
    123  C         63.0300   58.8330   16.0710 C.2   130  ARG130      0.2260
    124  O         63.5180   59.5140   15.1690 O.2   130  ARG130     -0.2867
    125  CB        63.8440   56.4320   16.1760 C.3   130  ARG130      0.0307
    126  CG        63.4070   55.1180   16.8170 C.3   130  ARG130      0.0489
    127  CD        62.9960   54.0630   15.7880 C.3   130  ARG130      0.2205
    128  NE        62.5530   52.8100   16.4150 N.pl3 130  ARG130     -0.0865
    129  CZ        61.5380   52.0550   15.9840 C.cat 130  ARG130      0.5346
    130  NH1       61.2220   50.9380   16.6350 N.pl3 130  ARG130      0.1354
    131  NH2       60.8190   52.4150   14.9200 N.pl3 130  ARG130      0.1354
    132  N         56.2100   50.7900    7.0730 N.3   189  TYR189     -0.1241
    133  CA        57.1080   50.2130    6.0790 C.3   189  TYR189      0.1605
    134  C         56.4020   50.2830    4.7370 C.2   189  TYR189      0.2264
    135  O         55.2250   50.6560    4.6720 O.2   189  TYR189     -0.2867
    136  CB        57.3480   48.7390    6.3730 C.3   189  TYR189      0.0534
    137  CG        58.1970   48.4770    7.5720 C.ar  189  TYR189     -0.0201
    138  CD1       59.5870   48.5520    7.4940 C.ar  189  TYR189     -0.0009
    139  CD2       57.6200   48.1450    8.7920 C.ar  189  TYR189     -0.0009
    140  CE1       60.3850   48.3160    8.6060 C.ar  189  TYR189      0.0417
    141  CE2       58.4050   47.8960    9.9110 C.ar  189  TYR189      0.0417
    142  CZ        59.7850   47.9880    9.8130 C.ar  189  TYR189      0.1957
    143  OH        60.5570   47.7330   10.9180 O.3   189  TYR189     -0.2866
    144  N         57.4740   43.1390    3.2720 N.3   217  ILE217     -0.1245
    145  CA        57.9520   44.4890    2.9640 C.3   217  ILE217      0.1561
    146  C         58.9080   44.5610    1.7990 C.2   217  ILE217      0.2260
    147  O         59.5170   43.5610    1.3990 O.2   217  ILE217     -0.2867
    148  CB        58.5930   45.2300    4.1820 C.3   217  ILE217      0.0252
    149  CG1       59.8810   44.5310    4.6500 C.3   217  ILE217      0.0019
    150  CG2       57.5690   45.4470    5.3040 C.3   217  ILE217      0.0019
    151  CD1       60.8830   45.4500    5.3570 C.3   217  ILE217      0.0001
    152  N         62.2730   46.3870    0.8040 N.3   219  ASP219     -0.1239
    153  CA        63.3650   46.9540    1.5710 C.3   219  ASP219      0.1674
    154  C         64.6690   46.9560    0.8060 C.2   219  ASP219      0.2266
    155  O         65.3010   45.9070    0.6550 O.2   219  ASP219     -0.2867
    156  CB        63.5410   46.1830    2.8640 C.3   219  ASP219      0.1410
    157  CG        64.4990   46.8500    3.7930 C.2   219  ASP219      0.3668
    158  OD1       64.8960   48.0040    3.5140 O.co2 219  ASP219     -0.2456
    159  OD2       64.8530   46.2310    4.8120 O.co2 219  ASP219     -0.2456
    160  N         67.2090   48.1720    1.9590 N.3   221  GLY221     -0.1210
    161  CA        68.2110   48.0890    3.0090 C.3   221  GLY221      0.1956
    162  C         68.6480   46.6830    3.4020 C.2   221  GLY221      0.2612
    163  O         69.5650   46.5290    4.1970 O.2   221  GLY221     -0.2717
    164  N         67.9890   45.6680    2.8440 N.am  222  THR222     -0.1952
    165  CA        68.2930   44.2570    3.0960 C.3   222  THR222      0.1897
    166  C         68.8310   43.6280    1.8210 C.2   222  THR222      0.2313
    167  O         68.4220   44.0070    0.7130 O.2   222  THR222     -0.2863
    168  CB        67.0360   43.4980    3.5280 C.3   222  THR222      0.1794
    169  OG1       66.4510   44.1480    4.6540 O.3   222  THR222     -0.2208
    170  CG2       67.3520   42.0730    3.9240 C.3   222  THR222      0.0378
    171  N         60.8480   38.0690   11.2890 N.3   311  THR311     -0.1218
    172  CA        60.0250   39.2740   11.3240 C.3   311  THR311      0.1862
    173  C         59.2250   39.5020   10.0050 C.2   311  THR311      0.2287
    174  O         58.6570   40.5760    9.7960 O.2   311  THR311     -0.2866
    175  CB        60.8410   40.5290   11.7540 C.3   311  THR311      0.1770
    176  OG1       59.9510   41.6470   11.9340 O.3   311  THR311     -0.2211
    177  CG2       61.9250   40.8820   10.7180 C.3   311  THR311      0.0375
    178  N         60.7600   39.8770    3.4720 N.3   314  VAL314     -0.1245
    179  CA        61.4970   41.0770    3.1510 C.3   314  VAL314      0.1561
    180  C         61.9890   40.8810    1.7470 C.2   314  VAL314      0.2260
    181  O         62.7360   39.9490    1.4750 O.2   314  VAL314     -0.2867
    182  CB        62.6790   41.3050    4.1320 C.3   314  VAL314      0.0252
    183  CG1       63.6800   42.2820    3.5660 C.3   314  VAL314      0.0019
    184  CG2       62.1600   41.8160    5.4690 C.3   314  VAL314      0.0019
@<TRIPOS>BOND
     1   155   154    2
     2   167   166    2
     3   152   153    1
     4   154   153    1
     5   147   146    2
     6   181   180    2
     7   153   156    1
     8   180   179    1
     9   146   145    1
    10   166   165    1
    11     1     2    1
    12   160   161    1
    13     2     3    1
    14     2     5    1
    15     3     4    2
    16   164   165    1
    17   164   162   am
    18   156   157    1
    19   145   144    1
    20   145   148    1
    21   161   162    1
    22   165   168    1
    23   179   178    1
    24   179   182    1
    25   162   163    2
    26   158   157   ar
    27   168   170    1
    28   168   169    1
    29   183   182    1
    30   157   159   ar
    31     5     6    1
    32     9    10    1
    33   182   184    1
    34   148   149    1
    35   148   150    1
    36     7     6   ar
    37   149   151    1
    38   135   134    2
    39   134   133    1
    40     6     8   ar
    41    10    11    1
    42   107   106    1
    43   107   108    2
    44   106   105    1
    45   106   109    1
    46   133   136    1
    47   133   132    1
    48    16    15    2
    49   136   137    1
    50   110   109    1
    51   110   112    1
    52    13    11   am
    53    13    14    1
    54    11    12    2
    55   109   111    1
    56    15    14    1
    57   138   137   ar
    58   138   140   ar
    59   137   139   ar
    60    18    17    1
    61    14    17    1
    62    22    21    2
    63   140   142   ar
    64    21    20    1
    65   139   141   ar
    66    19    20    1
    67   120   118    1
    68    20    23    1
    69   174   173    2
    70   142   141   ar
    71   142   143    1
    72   118   117    1
    73   173   172    1
    74    97    96    2
    75   104   102   ar
    76   104   103   ar
    77   102   100   ar
    78   103   101   ar
    79   177   175    1
    80    23    24    1
    81    52    51    1
    82    96    95    1
    83   171   172    1
    84   172   175    1
    85   117   119    1
    86   117   114    1
    87   100    99   ar
    88   101    99   ar
    89   113   114    1
    90   175   176    1
    91    99    98    1
    92    51    50   ar
    93    51    49   ar
    94    24    25    2
    95    24    26   am
    96   114   115    1
    97    50    48   ar
    98   115   116    2
    99    95    98    1
   100    95    94    1
   101    49    47   ar
   102    79    80   ar
   103    79    77   ar
   104    88    87    2
   105    48    46   ar
   106    82    80   ar
   107    82    84   ar
   108    94    87   am
   109    80    78   ar
   110    77    76   ar
   111    47    46   ar
   112    87    86    1
   113    84    83   ar
   114    46    45    1
   115   121   122    1
   116    78    76   ar
   117    78    81   ar
   118    76    75    1
   119    86    89    1
   120    86    85    1
   121    83    81   ar
   122   131   129    1
   123    45    42    1
   124   124   123    2
   125    75    72    1
   126    89    90    1
   127    32    31    1
   128   127   128    1
   129   127   126    1
   130   122   123    1
   131   122   125    1
   132   129   128    2
   133   129   130    1
   134    56    55    2
   135    33    31    1
   136    90    91    1
   137   125   126    1
   138    31    28    1
   139    57    54    1
   140    57    58    1
   141    42    43    1
   142    42    41    1
   143    53    54    1
   144    72    71    1
   145    72    73    1
   146    43    44    2
   147    65    64    2
   148    71    64   am
   149    55    54    1
   150    37    36    2
   151    91    92    1
   152    64    63    1
   153    30    29    2
   154    58    59    1
   155    41    36   am
   156    73    74    2
   157    36    35    1
   158    62    63    1
   159    28    29    1
   160    28    27    1
   161    63    66    1
   162    92    93    1
   163    29    34   am
   164    59    60    2
   165    59    61   am
   166    34    35    1
   167    34    40    1
   168    35    38    1
   169    66    67    1
   170    40    39    1
   171    67    68    1
   172    38    39    1
   173    68    69    1
   174    69    70    1
