@<TRIPOS>MOLECULE
tmp/3rtpA00.pdb
 130 119 0 0 0
SMALL
GASTEIGER

@<TRIPOS>ATOM
      1  N         27.9190    8.9630   36.0850 N.3    25  ILE25      -0.1231
      2  CA        27.6950    9.0370   34.6370 C.3    25  ILE25       0.1692
      3  C         27.4070   10.4890   34.2290 C.2    25  ILE25       0.2592
      4  O         26.6230   10.7370   33.3070 O.2    25  ILE25      -0.2718
      5  CB        26.5070    8.1450   34.1480 C.3    25  ILE25       0.0266
      6  CG1       25.8760    7.3070   35.2790 C.3    25  ILE25       0.0019
      7  CG2       26.9310    7.3280   32.9290 C.3    25  ILE25       0.0020
      8  CD1       26.4380    5.8950   35.4550 C.3    25  ILE25       0.0001
      9  N         28.0580   11.4370   34.9070 N.am   26  GLY26      -0.1957
     10  CA        27.6950   12.8580   34.8480 C.3    26  GLY26       0.1869
     11  C         28.0310   13.6600   33.6010 C.2    26  GLY26       0.2309
     12  O         27.8090   13.2120   32.4720 O.2    26  GLY26      -0.2863
     13  N         25.3260   13.3460   37.0770 N.3    30  VAL30      -0.1245
     14  CA        24.4310   12.1890   37.2300 C.3    30  VAL30       0.1561
     15  C         25.1210   10.9630   37.8360 C.2    30  VAL30       0.2260
     16  O         26.2160   10.5850   37.4200 O.2    30  VAL30      -0.2867
     17  CB        23.7470   11.8090   35.8860 C.3    30  VAL30       0.0252
     18  CG1       23.1130   10.4180   35.9530 C.3    30  VAL30       0.0019
     19  CG2       22.7050   12.8490   35.5020 C.3    30  VAL30       0.0019
     20  N         24.2980    6.8110   39.1610 N.3    32  ALA32      -0.1245
     21  CA        23.4000    5.6660   39.1040 C.3    32  ALA32       0.1562
     22  C         23.5170    4.8800   40.4020 C.2    32  ALA32       0.2260
     23  O         24.5770    4.3270   40.7050 O.2    32  ALA32      -0.2867
     24  CB        23.7320    4.7900   37.9060 C.3    32  ALA32       0.0290
     25  N         18.5050    6.9390   38.9740 N.3    43  ALA43      -0.1245
     26  CA        19.4630    7.9440   38.5300 C.3    43  ALA43       0.1562
     27  C         19.3240    9.2100   39.3620 C.2    43  ALA43       0.2260
     28  O         18.2640    9.8360   39.3760 O.2    43  ALA43      -0.2867
     29  CB        19.2670    8.2540   37.0600 C.3    43  ALA43       0.0290
     30  N         20.4840   13.0740   40.0840 N.3    45  LYS45      -0.1245
     31  CA        21.0450   14.2300   39.4020 C.3    45  LYS45       0.1561
     32  C         21.2560   15.3670   40.3990 C.2    45  LYS45       0.2260
     33  O         20.2910   15.9320   40.9180 O.2    45  LYS45      -0.2867
     34  CB        20.1130   14.6690   38.2680 C.3    45  LYS45       0.0271
     35  CG        20.6690   15.7390   37.3320 C.3    45  LYS45       0.0035
     36  CD        19.6680   16.0460   36.2310 C.3    45  LYS45       0.0206
     37  CE        20.3250   16.7190   35.0470 C.3    45  LYS45       0.1093
     38  NZ        19.4740   16.6200   33.8310 N.3    45  LYS45      -0.1314
     39  N         10.8950   10.2050   30.6620 N.3    76  ILE76      -0.1245
     40  CA        11.2980    9.6970   31.9840 C.3    76  ILE76       0.1561
     41  C         10.5070   10.3170   33.1330 C.2    76  ILE76       0.2260
     42  O         10.1300   11.4950   33.0840 O.2    76  ILE76      -0.2867
     43  CB        12.8090    9.8590   32.2720 C.3    76  ILE76       0.0252
     44  CG1       13.2500   11.3060   32.0490 C.3    76  ILE76       0.0019
     45  CG2       13.6220    8.8780   31.4440 C.3    76  ILE76       0.0019
     46  CD1       14.4770   11.6850   32.8220 C.3    76  ILE76       0.0001
     47  N         15.4310   10.0500   39.4720 N.3    98  MET98      -0.1230
     48  CA        14.5610    9.6400   38.3740 C.3    98  MET98       0.1702
     49  C         14.9250    8.3690   37.6770 C.2    98  MET98       0.2592
     50  O         16.0180    7.9760   37.6700 O.2    98  MET98      -0.2718
     51  CB        14.5180   10.6910   37.3140 C.3    98  MET98       0.0401
     52  CG        15.4570   11.7630   37.5250 C.3    98  MET98       0.0596
     53  SD        15.7400   12.4150   35.9770 S.3    98  MET98      -0.1393
     54  CE        16.9600   13.5440   36.3500 C.3    98  MET98       0.0692
     55  N         13.9650    7.7580   37.0400 N.am   99  GLU99      -0.1966
     56  CA        14.0570    6.4110   36.4780 C.3    99  GLU99       0.1733
     57  C         15.3560    6.1890   35.7040 C.2    99  GLU99       0.2616
     58  O         15.8060    7.0740   34.9710 O.2    99  GLU99      -0.2715
     59  CB        12.8510    6.1680   35.5680 C.3    99  GLU99       0.0429
     60  CG        12.6730    4.7340   35.0940 C.3    99  GLU99       0.1163
     61  CD        11.4270    4.5530   34.2460 C.2    99  GLU99       0.3649
     62  OE1       10.9270    5.5570   33.6860 O.co2  99  GLU99      -0.2457
     63  OE2       10.9460    3.4030   34.1400 O.co2  99  GLU99      -0.2457
     64  N         15.9500    5.0070   35.8730 N.am  100  LEU100     -0.1963
     65  CA        17.2090    4.6700   35.2100 C.3   100  LEU100      0.1728
     66  C         17.0270    3.6550   34.0860 C.2   100  LEU100      0.2616
     67  O         16.3130    2.6600   34.2390 O.2   100  LEU100     -0.2715
     68  CB        18.2530    4.1720   36.2210 C.3   100  LEU100      0.0311
     69  CG        19.6360    3.7530   35.6990 C.3   100  LEU100      0.0022
     70  CD1       20.3890    4.9150   35.0590 C.3   100  LEU100      0.0001
     71  CD2       20.4600    3.1380   36.8080 C.3   100  LEU100      0.0001
     72  N         17.6840    3.9290   32.9610 N.am  101  MET101     -0.1963
     73  CA        17.7140    3.0270   31.8140 C.3   101  MET101      0.1736
     74  C         19.1100    2.4220   31.6860 C.2   101  MET101      0.2616
     75  O         19.9330    2.5520   32.5990 O.2   101  MET101     -0.2715
     76  CB        17.3190    3.7710   30.5330 C.3   101  MET101      0.0427
     77  CG        15.9750    4.4830   30.6170 C.3   101  MET101      0.0599
     78  SD        14.5700    3.3570   30.5470 S.3   101  MET101     -0.1393
     79  CE        14.3120    3.2420   28.7750 C.3   101  MET101      0.0692
     80  N         19.3770    1.7710   30.5560 N.am  102  ASP102     -0.1957
     81  CA        20.6100    0.9990   30.3860 C.3   102  ASP102      0.1840
     82  C         21.7330    1.7600   29.6770 C.2   102  ASP102      0.2622
     83  O         22.8940    1.6650   30.0780 O.2   102  ASP102     -0.2715
     84  CB        20.3160   -0.3320   29.6800 C.3   102  ASP102      0.1450
     85  CG        19.2960   -1.1880   30.4300 C.2   102  ASP102      0.3671
     86  OD1       18.8760   -0.8110   31.5470 O.co2 102  ASP102     -0.2456
     87  OD2       18.9070   -2.2490   29.8990 O.co2 102  ASP102     -0.2456
     88  N         21.3870    2.5170   28.6380 N.am  103  ALA103     -0.1963
     89  CA        22.3880    3.1880   27.8100 C.3   103  ALA103      0.1728
     90  C         21.9120    4.5230   27.2230 C.2   103  ALA103      0.2616
     91  O         20.7630    4.9340   27.4160 O.2   103  ALA103     -0.2715
     92  CB        22.8630    2.2500   26.6980 C.3   103  ALA103      0.0334
     93  N         22.8230    5.1910   26.5190 N.am  104  ASN104     -0.1972
     94  CA        22.5540    6.4420   25.8250 C.3   104  ASN104      0.1688
     95  C         22.3170    6.1660   24.3450 C.2   104  ASN104      0.2292
     96  O         22.7930    5.1590   23.8250 O.2   104  ASN104     -0.2864
     97  CB        23.7530    7.3690   25.9870 C.3   104  ASN104      0.1181
     98  CG        23.4020    8.8180   25.7580 C.2   104  ASN104      0.2629
     99  OD1       23.6210    9.3520   24.6720 O.2   104  ASN104     -0.2716
    100  ND2       22.8520    9.4680   26.7830 N.am  104  ASN104     -0.0877
    101  N         25.4640    5.7260   22.1600 N.3   107  GLN107     -0.1245
    102  CA        26.0020    4.3630   22.2280 C.3   107  GLN107      0.1566
    103  C         25.3220    3.4300   21.2230 C.2   107  GLN107      0.2260
    104  O         25.9090    2.4320   20.8040 O.2   107  GLN107     -0.2867
    105  CB        25.8750    3.7980   23.6520 C.3   107  GLN107      0.0367
    106  CG        26.8860    4.3650   24.6540 C.3   107  GLN107      0.0905
    107  CD        26.5000    4.1280   26.1150 C.2   107  GLN107      0.2608
    108  OE1       25.3690    4.3860   26.5260 O.2   107  GLN107     -0.2717
    109  NE2       27.4550    3.6540   26.9070 N.am  107  GLN107     -0.0878
    110  N         22.0500   12.3140   22.7110 N.3   145  SER145     -0.1217
    111  CA        22.6520   12.3810   24.0430 C.3   145  SER145      0.1889
    112  C         21.6200   12.6460   25.1400 C.2   145  SER145      0.2288
    113  O         21.8690   12.3660   26.3140 O.2   145  SER145     -0.2866
    114  CB        23.7610   13.4350   24.0770 C.3   145  SER145      0.2089
    115  OG        23.4560   14.5350   23.2360 O.3   145  SER145     -0.2183
    116  N         17.5080    8.1540   26.1400 N.3   148  VAL148     -0.1245
    117  CA        18.0310    6.9520   26.7850 C.3   148  VAL148      0.1561
    118  C         17.3450    5.6720   26.3200 C.2   148  VAL148      0.2260
    119  O         16.1580    5.6670   25.9860 O.2   148  VAL148     -0.2867
    120  CB        17.9940    7.0530   28.3240 C.3   148  VAL148      0.0252
    121  CG1       19.1120    7.9450   28.8000 C.3   148  VAL148      0.0019
    122  CG2       16.6490    7.5750   28.8100 C.3   148  VAL148      0.0019
    123  N         14.8990   12.3870   28.1420 N.3   158  LEU158     -0.1245
    124  CA        15.3970   12.9670   29.3900 C.3   158  LEU158      0.1561
    125  C         14.9620   14.4080   29.6260 C.2   158  LEU158      0.2260
    126  O         14.5520   14.7600   30.7310 O.2   158  LEU158     -0.2867
    127  CB        16.9250   12.8670   29.4580 C.3   158  LEU158      0.0270
    128  CG        17.5710   11.4790   29.4050 C.3   158  LEU158      0.0019
    129  CD1       19.0200   11.5970   28.9890 C.3   158  LEU158      0.0001
    130  CD2       17.4650   10.7640   30.7330 C.3   158  LEU158      0.0001
@<TRIPOS>BOND
     1   104   103    2
     2   103   102    1
     3   101   102    1
     4   102   105    1
     5   110   111    1
     6   115   114    1
     7   105   106    1
     8    96    95    2
     9   111   114    1
    10   111   112    1
    11    95    94    1
    12   106   107    1
    13    99    98    2
    14   112   113    2
    15    98    97    1
    16    98   100   am
    17    94    97    1
    18    94    93    1
    19   119   118    2
    20   107   108    2
    21   107   109   am
    22   116   117    1
    23   118   117    1
    24    93    90   am
    25    92    89    1
    26   117   120    1
    27    90    91    2
    28    90    89    1
    29    89    88    1
    30   123   124    1
    31   120   121    1
    32   120   122    1
    33    88    82   am
    34    79    78    1
    35   129   128    1
    36   124   127    1
    37   124   125    1
    38   128   127    1
    39   128   130    1
    40   125   126    2
    41    82    83    2
    42    82    81    1
    43    84    81    1
    44    84    85    1
    45    87    85   ar
    46    81    80    1
    47    85    86   ar
    48    76    77    1
    49    76    73    1
    50    78    77    1
    51    80    74   am
    52    39    40    1
    53    45    43    1
    54    74    73    1
    55    74    75    2
    56    73    72    1
    57    40    43    1
    58    40    41    1
    59    44    43    1
    60    44    46    1
    61    12    11    2
    62     7     5    1
    63    72    66   am
    64    42    41    2
    65     4     3    2
    66    11    10    1
    67    62    61   ar
    68    38    37    1
    69    66    67    2
    70    66    65    1
    71    63    61   ar
    72     5     2    1
    73     5     6    1
    74     3     2    1
    75     3     9   am
    76    61    60    1
    77     2     1    1
    78    10     9    1
    79    58    57    2
    80    37    36    1
    81    70    69    1
    82    60    59    1
    83    65    64    1
    84    65    68    1
    85     6     8    1
    86    19    17    1
    87    59    56    1
    88    69    68    1
    89    69    71    1
    90    57    64   am
    91    57    56    1
    92    17    18    1
    93    17    14    1
    94    53    54    1
    95    53    52    1
    96    36    35    1
    97    56    55    1
    98    55    49   am
    99    29    26    1
   100    13    14    1
   101    14    15    1
   102    51    52    1
   103    51    48    1
   104    35    34    1
   105    16    15    2
   106    50    49    2
   107    49    48    1
   108    24    21    1
   109    34    31    1
   110    48    47    1
   111    26    25    1
   112    26    27    1
   113    21    20    1
   114    21    22    1
   115    27    28    2
   116    31    30    1
   117    31    32    1
   118    32    33    2
   119    22    23    2
