@<TRIPOS>MOLECULE
tmp/3rtqA01.pdb
 114 113 0 0 0
SMALL
GASTEIGER

@<TRIPOS>ATOM
      1  N         29.2650    1.9610  -14.7710 N.3   106  SER106     -0.1202
      2  CA        30.1680    3.1130  -14.7780 C.3   106  SER106      0.2020
      3  C         29.8640    4.0710  -13.6240 C.2   106  SER106      0.2619
      4  O         28.8380    3.9430  -12.9490 O.2   106  SER106     -0.2717
      5  CB        30.0970    3.8560  -16.1180 C.3   106  SER106      0.2103
      6  OG        28.8300    4.4610  -16.3110 O.3   106  SER106     -0.2182
      7  N         30.7700    5.0200  -13.3980 N.am  107  GLU107     -0.1965
      8  CA        30.5580    6.0900  -12.4270 C.3   107  GLU107      0.1733
      9  C         31.1230    7.4000  -12.9620 C.2   107  GLU107      0.2617
     10  O         32.2920    7.4690  -13.3460 O.2   107  GLU107     -0.2715
     11  CB        31.1890    5.7440  -11.0750 C.3   107  GLU107      0.0429
     12  CG        30.8060    6.7080   -9.9530 C.3   107  GLU107      0.1163
     13  CD        31.4120    6.3430   -8.6070 C.2   107  GLU107      0.3649
     14  OE1       31.7790    5.1620   -8.4050 O.co2 107  GLU107     -0.2457
     15  OE2       31.5130    7.2470   -7.7450 O.co2 107  GLU107     -0.2457
     16  N         30.2860    8.4330  -12.9820 N.am  108  SER108     -0.1936
     17  CA        30.6670    9.7310  -13.5300 C.3   108  SER108      0.2055
     18  C         31.0740   10.7250  -12.4450 C.2   108  SER108      0.2643
     19  O         30.6190   10.6380  -11.3030 O.2   108  SER108     -0.2714
     20  CB        29.5260   10.3060  -14.3710 C.3   108  SER108      0.2130
     21  OG        29.1610    9.4080  -15.4030 O.3   108  SER108     -0.2179
     22  N         31.9310   11.6690  -12.8190 N.am  109  PHE109     -0.1973
     23  CA        32.4220   12.6920  -11.9000 C.3   109  PHE109      0.1639
     24  C         32.5560   14.0450  -12.5940 C.2   109  PHE109      0.2290
     25  O         32.7900   14.1150  -13.8030 O.2   109  PHE109     -0.2864
     26  CB        33.7700   12.2730  -11.2960 C.3   109  PHE109      0.0560
     27  CG        34.8570   12.0620  -12.3190 C.ar  109  PHE109     -0.0200
     28  CD1       35.0390   10.8190  -12.9150 C.ar  109  PHE109     -0.0042
     29  CD2       35.7000   13.1090  -12.6850 C.ar  109  PHE109     -0.0042
     30  CE1       36.0370   10.6220  -13.8630 C.ar  109  PHE109     -0.0003
     31  CE2       36.6990   12.9220  -13.6340 C.ar  109  PHE109     -0.0003
     32  CZ        36.8680   11.6750  -14.2230 C.ar  109  PHE109     -0.0000
     33  N         29.7760   18.5100   -8.9050 N.3   122  PHE122     -0.1227
     34  CA        28.3830   18.2550   -9.2370 C.3   122  PHE122      0.1736
     35  C         28.0380   16.8530   -8.7600 C.2   122  PHE122      0.2595
     36  O         28.6370   15.8750   -9.2050 O.2   122  PHE122     -0.2718
     37  CB        28.1200   18.3990  -10.7380 C.3   122  PHE122      0.0547
     38  CG        26.6600   18.5110  -11.0870 C.ar  122  PHE122     -0.0202
     39  CD1       26.0450   19.7580  -11.1630 C.ar  122  PHE122     -0.0042
     40  CD2       25.8970   17.3730  -11.3290 C.ar  122  PHE122     -0.0042
     41  CE1       24.6940   19.8730  -11.4770 C.ar  122  PHE122     -0.0003
     42  CE2       24.5450   17.4750  -11.6440 C.ar  122  PHE122     -0.0003
     43  CZ        23.9420   18.7280  -11.7190 C.ar  122  PHE122     -0.0000
     44  N         27.0830   16.7680   -7.8420 N.am  123  TRP123     -0.1962
     45  CA        26.6710   15.4930   -7.2710 C.3   123  TRP123      0.1771
     46  C         25.1520   15.3840   -7.2460 C.2   123  TRP123      0.2620
     47  O         24.4640   16.2610   -6.7170 O.2   123  TRP123     -0.2715
     48  CB        27.2530   15.3230   -5.8640 C.3   123  TRP123      0.0590
     49  CG        27.1050   13.9410   -5.2990 C.ar  123  TRP123      0.0006
     50  CD1       26.3140   13.5660   -4.2520 C.ar  123  TRP123      0.0946
     51  CD2       27.7680   12.7510   -5.7490 C.ar  123  TRP123      0.0152
     52  NE1       26.4410   12.2160   -4.0200 N.ar  123  TRP123     -0.2442
     53  CE2       27.3270   11.6910   -4.9240 C.ar  123  TRP123      0.0810
     54  CE3       28.6900   12.4760   -6.7690 C.ar  123  TRP123      0.0012
     55  CZ2       27.7770   10.3750   -5.0870 C.ar  123  TRP123      0.0191
     56  CZ3       29.1380   11.1660   -6.9310 C.ar  123  TRP123      0.0001
     57  CH2       28.6790   10.1330   -6.0930 C.ar  123  TRP123      0.0015
     58  N         24.6420   14.3060   -7.8340 N.am  124  GLY124     -0.1940
     59  CA        23.2070   14.0660   -7.9160 C.3   124  GLY124      0.2014
     60  C         22.5180   14.9960   -8.8940 C.2   124  GLY124      0.2639
     61  O         22.5270   14.7540  -10.1030 O.2   124  GLY124     -0.2714
     62  N         21.9250   16.0630   -8.3630 N.am  125  THR125     -0.1950
     63  CA        21.1400   17.0070   -9.1620 C.3   125  THR125      0.1897
     64  C         21.5740   18.4630   -8.9750 C.2   125  THR125      0.2313
     65  O         20.9570   19.3750   -9.5300 O.2   125  THR125     -0.2863
     66  CB        19.6290   16.9040   -8.8410 C.3   125  THR125      0.1794
     67  OG1       19.4200   17.1170   -7.4410 O.3   125  THR125     -0.2208
     68  CG2       19.0730   15.5410   -9.2360 C.3   125  THR125      0.0378
     69  N         19.8570   20.2130  -15.5300 N.3   152  ALA152     -0.1245
     70  CA        19.3230   19.1350  -16.3670 C.3   152  ALA152      0.1562
     71  C         20.3200   18.6720  -17.4300 C.2   152  ALA152      0.2260
     72  O         20.4200   17.4760  -17.7100 O.2   152  ALA152     -0.2867
     73  CB        18.0110   19.5640  -17.0160 C.3   152  ALA152      0.0290
     74  N         23.3840   16.8340  -15.6880 N.3   155  GLN155     -0.1231
     75  CA        22.8760   15.5090  -15.3300 C.3   155  GLN155      0.1698
     76  C         22.8730   14.5630  -16.5330 C.2   155  GLN155      0.2592
     77  O         23.2710   13.4030  -16.4120 O.2   155  GLN155     -0.2718
     78  CB        21.4700   15.6020  -14.7240 C.3   155  GLN155      0.0381
     79  CG        21.4300   16.0650  -13.2700 C.3   155  GLN155      0.0905
     80  CD        20.0150   16.1650  -12.7220 C.2   155  GLN155      0.2608
     81  OE1       19.2920   15.1730  -12.6530 O.2   155  GLN155     -0.2717
     82  NE2       19.6190   17.3670  -12.3210 N.am  155  GLN155     -0.0878
     83  N         22.4370   15.0700  -17.6870 N.am  156  MET156     -0.1979
     84  CA        22.3950   14.2840  -18.9240 C.3   156  MET156      0.1605
     85  C         23.7960   13.9420  -19.4380 C.2   156  MET156      0.2287
     86  O         24.0190   12.8450  -19.9510 O.2   156  MET156     -0.2864
     87  CB        21.5940   15.0130  -20.0080 C.3   156  MET156      0.0413
     88  CG        21.2100   14.1330  -21.2000 C.3   156  MET156      0.0598
     89  SD        20.6650   15.0500  -22.6580 S.3   156  MET156     -0.1393
     90  CE        22.1960   15.8300  -23.1840 C.3   156  MET156      0.0692
     91  N         26.5250   13.6190  -17.5430 N.3   158  LEU158     -0.1231
     92  CA        27.1600   12.6940  -16.6140 C.3   158  LEU158      0.1693
     93  C         26.4950   11.3160  -16.6130 C.2   158  LEU158      0.2592
     94  O         27.1730   10.3030  -16.7750 O.2   158  LEU158     -0.2718
     95  CB        27.2080   13.2870  -15.1990 C.3   158  LEU158      0.0284
     96  CG        27.9940   14.5900  -14.9940 C.3   158  LEU158      0.0019
     97  CD1       27.8280   15.0950  -13.5740 C.3   158  LEU158      0.0001
     98  CD2       29.4740   14.4360  -15.3300 C.3   158  LEU158      0.0001
     99  N         25.1740   11.2830  -16.4470 N.am  159  ASN159     -0.1960
    100  CA        24.4360   10.0200  -16.3720 C.3   159  ASN159      0.1819
    101  C         24.3570    9.2570  -17.6920 C.2   159  ASN159      0.2621
    102  O         24.4740    8.0300  -17.7070 O.2   159  ASN159     -0.2715
    103  CB        23.0150   10.2430  -15.8380 C.3   159  ASN159      0.1195
    104  CG        22.9890   10.8250  -14.4350 C.2   159  ASN159      0.2630
    105  OD1       24.0100   11.2730  -13.9060 O.2   159  ASN159     -0.2716
    106  ND2       21.8060   10.8220  -13.8280 N.am  159  ASN159     -0.0877
    107  N         24.1580    9.9820  -18.7910 N.am  160  ASP160     -0.1971
    108  CA        23.8430    9.3540  -20.0740 C.3   160  ASP160      0.1709
    109  C         24.9390    9.4730  -21.1290 C.2   160  ASP160      0.2293
    110  O         25.3770    8.4640  -21.6850 O.2   160  ASP160     -0.2864
    111  CB        22.5150    9.8870  -20.6250 C.3   160  ASP160      0.1436
    112  CG        21.3450    9.6290  -19.6900 C.2   160  ASP160      0.3671
    113  OD1       21.2770    8.5360  -19.0860 O.co2 160  ASP160     -0.2456
    114  OD2       20.4850   10.5260  -19.5650 O.co2 160  ASP160     -0.2456
@<TRIPOS>BOND
     1    90    89    1
     2    89    88    1
     3   110   109    2
     4    88    87    1
     5   109   108    1
     6   111   108    1
     7   111   112    1
     8   108   107    1
     9    87    84    1
    10    86    85    2
    11   112   114   ar
    12   112   113   ar
    13    85    84    1
    14    84    83    1
    15   107   101   am
    16    72    71    2
    17   102   101    2
    18   101   100    1
    19    83    76   am
    20    91    92    1
    21    71    70    1
    22    73    70    1
    23    94    93    2
    24    92    93    1
    25    92    95    1
    26    93    99   am
    27    76    77    2
    28    76    75    1
    29    99   100    1
    30   100   103    1
    31    70    69    1
    32     6     5    1
    33     5     2    1
    34   103   104    1
    35    74    75    1
    36    21    20    1
    37    75    78    1
    38    98    96    1
    39    95    96    1
    40    96    97    1
    41     2     1    1
    42     2     3    1
    43    78    79    1
    44   104   105    2
    45   104   106   am
    46    20    17    1
    47    32    30   ar
    48    32    31   ar
    49    30    28   ar
    50    25    24    2
    51    31    29   ar
    52     3     7   am
    53     3     4    2
    54    17    16    1
    55    17    18    1
    56     7     8    1
    57    10     9    2
    58    79    80    1
    59    16     9   am
    60     9     8    1
    61    28    27   ar
    62    22    18   am
    63    22    23    1
    64    80    81    2
    65    80    82   am
    66    29    27   ar
    67    24    23    1
    68    18    19    2
    69     8    11    1
    70    27    26    1
    71    23    26    1
    72    43    42   ar
    73    43    41   ar
    74    42    40   ar
    75    41    39   ar
    76    40    38   ar
    77    39    38   ar
    78    38    37    1
    79    11    12    1
    80    37    34    1
    81    61    60    2
    82    12    13    1
    83    65    64    2
    84    34    33    1
    85    34    35    1
    86    68    66    1
    87    36    35    2
    88    63    64    1
    89    63    66    1
    90    63    62    1
    91    60    62   am
    92    60    59    1
    93    66    67    1
    94    35    44   am
    95    13    14   ar
    96    13    15   ar
    97    59    58    1
    98    44    45    1
    99    58    46   am
   100    45    46    1
   101    45    48    1
   102    46    47    2
   103    56    54   ar
   104    56    57   ar
   105    54    51   ar
   106    57    55   ar
   107    48    49    1
   108    51    49   ar
   109    51    53   ar
   110    49    50   ar
   111    55    53   ar
   112    53    52   ar
   113    50    52   ar
