@<TRIPOS>MOLECULE
tmp/3rtsA00.pdb
 142 142 0 0 0
SMALL
GASTEIGER

@<TRIPOS>ATOM
      1  N         -3.5570  -11.4280    3.4630 N.3    74  GLY74      -0.1210
      2  CA        -3.2400  -10.2500    2.6510 C.3    74  GLY74       0.1956
      3  C         -2.7240   -9.0880    3.5090 C.2    74  GLY74       0.2612
      4  O         -1.7700   -9.2620    4.2820 O.2    74  GLY74      -0.2717
      5  N         -3.3500   -7.9220    3.3620 N.am   75  ILE75      -0.1965
      6  CA        -2.9790   -6.7000    4.1130 C.3    75  ILE75       0.1727
      7  C         -3.2790   -6.9500    5.5880 C.2    75  ILE75       0.2616
      8  O         -4.4180   -7.2850    5.9600 O.2    75  ILE75      -0.2715
      9  CB        -3.8040   -5.4550    3.6760 C.3    75  ILE75       0.0290
     10  CG1       -3.6910   -5.1570    2.1750 C.3    75  ILE75       0.0022
     11  CG2       -3.4520   -4.1990    4.5550 C.3    75  ILE75       0.0023
     12  CD1       -2.3310   -4.7660    1.7180 C.3    75  ILE75       0.0001
     13  N         -2.2520   -6.7990    6.4140 N.am   76  LEU76      -0.1963
     14  CA        -2.3360   -6.9690    7.8680 C.3    76  LEU76       0.1728
     15  C         -2.5910   -5.6530    8.6110 C.2    76  LEU76       0.2616
     16  O         -3.1860   -5.6530    9.6950 O.2    76  LEU76      -0.2715
     17  CB        -1.0370   -7.6080    8.3820 C.3    76  LEU76       0.0311
     18  CG        -0.6470   -8.8790    7.6270 C.3    76  LEU76       0.0022
     19  CD1        0.7170   -9.3880    8.0280 C.3    76  LEU76       0.0001
     20  CD2       -1.7390   -9.9940    7.7920 C.3    76  LEU76       0.0001
     21  N         -2.1340   -4.5430    8.0220 N.am   77  ALA77      -0.1963
     22  CA        -2.1560   -3.2350    8.6550 C.3    77  ALA77       0.1728
     23  C         -1.6880   -2.1680    7.6780 C.2    77  ALA77       0.2616
     24  O         -1.0100   -2.4770    6.6850 O.2    77  ALA77      -0.2715
     25  CB        -1.2320   -3.2660    9.8960 C.3    77  ALA77       0.0334
     26  N         -1.9920   -0.9060    7.9580 N.am   78  HIS78      -0.1973
     27  CA        -1.4230    0.1830    7.1630 C.3    78  HIS78       0.1656
     28  C         -1.3510    1.4260    8.0410 C.2    78  HIS78       0.2291
     29  O         -2.0810    1.5320    9.0320 O.2    78  HIS78      -0.2864
     30  CB        -2.2690    0.4430    5.9120 C.3    78  HIS78       0.0771
     31  CG        -3.5060    1.2240    6.1950 C.ar   78  HIS78       0.0820
     32  ND1       -3.5610    2.5980    6.0670 N.ar   78  HIS78      -0.2267
     33  CD2       -4.7090    0.8400    6.6740 C.ar   78  HIS78       0.1154
     34  CE1       -4.7520    3.0210    6.4430 C.ar   78  HIS78       0.1986
     35  NE2       -5.4690    1.9730    6.8120 N.ar   78  HIS78      -0.2212
     36  N          5.7140   -7.1100   15.9610 N.3   109  LEU109     -0.1231
     37  CA         6.4780   -7.0350   14.6970 C.3   109  LEU109      0.1693
     38  C          5.7570   -6.1850   13.6750 C.2   109  LEU109      0.2592
     39  O          6.3600   -5.3290   13.0260 O.2   109  LEU109     -0.2718
     40  CB         6.7900   -8.4440   14.1360 C.3   109  LEU109      0.0284
     41  CG         7.8200   -9.3190   14.8800 C.3   109  LEU109      0.0019
     42  CD1        7.8780  -10.7220   14.2930 C.3   109  LEU109      0.0001
     43  CD2        9.2260   -8.7040   14.8210 C.3   109  LEU109      0.0001
     44  N          4.4410   -6.3810   13.5590 N.am  110  THR110     -0.1953
     45  CA         3.6410   -5.5310   12.6880 C.3   110  THR110      0.1897
     46  C          3.6710   -4.0740   13.1350 C.2   110  THR110      0.2313
     47  O          3.7640   -3.1580   12.2850 O.2   110  THR110     -0.2863
     48  CB         2.1830   -6.0500   12.5300 C.3   110  THR110      0.1794
     49  OG1        2.2160   -7.4660   12.3090 O.3   110  THR110     -0.2208
     50  CG2        1.5160   -5.4000   11.3350 C.3   110  THR110      0.0378
     51  N          6.8430   -2.3380   12.0560 N.3   113  HIS113     -0.1226
     52  CA         6.7250   -1.9720   10.6160 C.3   113  HIS113      0.1752
     53  C          5.8120   -0.7550   10.3980 C.2   113  HIS113      0.2595
     54  O          6.1700    0.1790    9.7070 O.2   113  HIS113     -0.2718
     55  CB         6.2250   -3.1910    9.8330 C.3   113  HIS113      0.0759
     56  CG         6.0730   -2.9630    8.3610 C.ar  113  HIS113      0.0818
     57  ND1        7.0430   -3.3160    7.4450 N.ar  113  HIS113     -0.2268
     58  CD2        5.0610   -2.4250    7.6470 C.ar  113  HIS113      0.1154
     59  CE1        6.6320   -3.0010    6.2260 C.ar  113  HIS113      0.1986
     60  NE2        5.4400   -2.4430    6.3250 N.ar  113  HIS113     -0.2212
     61  N          4.6250   -0.7740   11.0030 N.am  114  GLU114     -0.1979
     62  CA         3.6590    0.3260   10.8680 C.3   114  GLU114      0.1602
     63  C          4.1870    1.6630   11.4260 C.2   114  GLU114      0.2287
     64  O          4.0600    2.7260   10.8090 O.2   114  GLU114     -0.2864
     65  CB         2.3500   -0.0580   11.5750 C.3   114  GLU114      0.0415
     66  CG         1.6040   -1.2020   10.8640 C.3   114  GLU114      0.1163
     67  CD         1.6180   -1.0320    9.3460 C.2   114  GLU114      0.3649
     68  OE1        1.9610   -1.9920    8.6330 O.co2 114  GLU114     -0.2457
     69  OE2        1.3350    0.0850    8.8660 O.co2 114  GLU114     -0.2457
     70  N          6.4290    3.4090    9.1580 N.3   117  HIS117     -0.1241
     71  CA         5.6550    4.2430    8.2350 C.3   117  HIS117      0.1621
     72  C          5.1510    5.5250    8.9050 C.2   117  HIS117      0.2264
     73  O          5.2310    6.5980    8.2950 O.2   117  HIS117     -0.2867
     74  CB         4.4420    3.4980    7.6730 C.3   117  HIS117      0.0745
     75  CG         4.7630    2.3910    6.7040 C.ar  117  HIS117      0.0817
     76  ND1        5.6000    2.5550    5.6160 N.ar  117  HIS117     -0.2268
     77  CD2        4.2820    1.1270    6.6230 C.ar  117  HIS117      0.1154
     78  CE1        5.6660    1.4220    4.9400 C.ar  117  HIS117      0.1986
     79  NE2        4.8530    0.5470    5.5130 N.ar  117  HIS117     -0.2212
     80  N          8.9830    1.3520    2.1770 N.3   123  HIS123     -0.1241
     81  CA         9.4030   -0.0320    2.2010 C.3   123  HIS123      0.1621
     82  C         10.8570   -0.2000    1.7900 C.2   123  HIS123      0.2264
     83  O         11.4220    0.6450    1.0930 O.2   123  HIS123     -0.2867
     84  CB         8.4850   -0.8910    1.3470 C.3   123  HIS123      0.0745
     85  CG         7.1550   -1.1420    1.9870 C.ar  123  HIS123      0.0817
     86  ND1        5.9730   -1.1460    1.2770 N.ar  123  HIS123     -0.2268
     87  CD2        6.8190   -1.3550    3.2810 C.ar  123  HIS123      0.1154
     88  CE1        4.9660   -1.3760    2.1040 C.ar  123  HIS123      0.1986
     89  NE2        5.4540   -1.5040    3.3280 N.ar  123  HIS123     -0.2212
     90  N         12.8680   -4.8450    8.6310 N.3   130  VAL130     -0.1245
     91  CA        11.5220   -4.8820    9.1630 C.3   130  VAL130      0.1561
     92  C         10.5480   -4.1520    8.2240 C.2   130  VAL130      0.2260
     93  O          9.3870   -4.4920    8.1830 O.2   130  VAL130     -0.2867
     94  CB        11.4090   -4.3960   10.6420 C.3   130  VAL130      0.0252
     95  CG1       11.4850   -2.8650   10.7570 C.3   130  VAL130      0.0019
     96  CG2       10.0800   -4.9230   11.2460 C.3   130  VAL130      0.0019
     97  N         10.7530   -4.2620    4.9630 N.3   132  PHE132     -0.1228
     98  CA        10.4180   -5.1230    3.8180 C.3   132  PHE132      0.1721
     99  C          8.8920   -5.3200    3.8040 C.2   132  PHE132      0.2437
    100  O          8.2620   -5.4130    4.8720 O.2   132  PHE132     -0.2733
    101  CB        11.1680   -6.4540    3.9240 C.3   132  PHE132      0.0547
    102  CG        11.0090   -7.3630    2.7170 C.ar  132  PHE132     -0.0202
    103  CD1       11.5700   -7.0240    1.4710 C.ar  132  PHE132     -0.0042
    104  CD2       10.3060   -8.5630    2.8290 C.ar  132  PHE132     -0.0042
    105  CE1       11.4390   -7.8850    0.3730 C.ar  132  PHE132     -0.0003
    106  CE2       10.1640   -9.4150    1.7270 C.ar  132  PHE132     -0.0003
    107  CZ        10.7530   -9.0700    0.5030 C.ar  132  PHE132     -0.0000
    108  N          8.2750   -5.3300    2.6080 N.am  133  PRO133     -0.2718
    109  CA         6.8120   -5.3660    2.5430 C.3   133  PRO133      0.1535
    110  C          6.1220   -6.6770    2.9890 C.2   133  PRO133      0.2599
    111  O          4.9180   -6.6820    3.1570 O.2   133  PRO133     -0.2715
    112  CB         6.5170   -5.0630    1.0640 C.3   133  PRO133      0.0310
    113  CG         7.8060   -4.5490    0.4790 C.3   133  PRO133      0.0237
    114  CD         8.8750   -5.2530    1.2650 C.3   133  PRO133      0.0939
    115  N          6.8650   -7.7630    3.1950 N.am  134  THR134     -0.1937
    116  CA         6.2510   -9.0640    3.5170 C.3   134  THR134      0.2028
    117  C          6.4440   -9.4790    4.9740 C.2   134  THR134      0.2642
    118  O          7.5690   -9.6450    5.4210 O.2   134  THR134     -0.2714
    119  CB         6.8210  -10.2020    2.6060 C.3   134  THR134      0.1808
    120  OG1        6.6020   -9.8760    1.2280 O.3   134  THR134     -0.2208
    121  CG2        6.2000  -11.5720    2.9510 C.3   134  THR134      0.0379
    122  N          5.3440   -9.6710    5.6960 N.am  135  TYR135     -0.1959
    123  CA         5.3970  -10.1590    7.0750 C.3   135  TYR135      0.1771
    124  C          6.0670  -11.5340    7.1750 C.2   135  TYR135      0.2619
    125  O          5.6980  -12.4710    6.4670 O.2   135  TYR135     -0.2715
    126  CB         3.9870  -10.2200    7.6940 C.3   135  TYR135      0.0574
    127  CG         3.9720  -10.8800    9.0580 C.ar  135  TYR135     -0.0198
    128  CD1        4.2510  -10.1430   10.2110 C.ar  135  TYR135     -0.0009
    129  CD2        3.7350  -12.2570    9.1950 C.ar  135  TYR135     -0.0009
    130  CE1        4.2720  -10.7400   11.4700 C.ar  135  TYR135      0.0417
    131  CE2        3.7620  -12.8690   10.4730 C.ar  135  TYR135      0.0417
    132  CZ         4.0330  -12.0980   11.5950 C.ar  135  TYR135      0.1957
    133  OH         4.0550  -12.6730   12.8480 O.3   135  TYR135     -0.2866
    134  N          7.0580  -11.6330    8.0490 N.am  136  LYS136     -0.1977
    135  CA         7.7300  -12.8820    8.3330 C.3   136  LYS136      0.1596
    136  C          8.0180  -12.9050    9.8220 C.2   136  LYS136      0.2287
    137  O          8.6450  -11.9750   10.3470 O.2   136  LYS136     -0.2864
    138  CB         9.0350  -12.9990    7.5260 C.3   136  LYS136      0.0298
    139  CG        10.0350  -13.9810    8.1300 C.3   136  LYS136      0.0038
    140  CD        10.9580  -14.5940    7.0920 C.3   136  LYS136      0.0206
    141  CE        11.6900  -15.8230    7.6540 C.3   136  LYS136      0.1093
    142  NZ        10.7770  -16.9770    7.9560 N.3   136  LYS136     -0.1314
@<TRIPOS>BOND
     1   105   107   ar
     2   105   103   ar
     3   113   112    1
     4   113   114    1
     5   107   106   ar
     6   112   109    1
     7    83    82    2
     8   120   119    1
     9   114   108    1
    10    86    85   ar
    11    86    88   ar
    12    84    85    1
    13    84    81    1
    14   103   102   ar
    15    12    10    1
    16   106   104   ar
    17    82    81    1
    18    85    87   ar
    19    88    89   ar
    20    10     9    1
    21    80    81    1
    22   109   108    1
    23   109   110    1
    24   119   121    1
    25   119   116    1
    26   108    99   am
    27     2     1    1
    28     2     3    1
    29   102   104   ar
    30   102   101    1
    31   110   111    2
    32   110   115   am
    33   115   116    1
    34    87    89   ar
    35     5     3   am
    36     5     6    1
    37     3     4    2
    38   116   117    1
    39     9     6    1
    40     9    11    1
    41    99    98    1
    42    99   100    2
    43    98   101    1
    44    98    97    1
    45     6     7    1
    46    78    79   ar
    47    78    76   ar
    48   117   118    2
    49   117   122   am
    50    79    77   ar
    51     7     8    2
    52     7    13   am
    53    76    75   ar
    54   122   123    1
    55    30    31    1
    56    30    27    1
    57    32    31   ar
    58    32    34   ar
    59    31    33   ar
    60    59    60   ar
    61    59    57   ar
    62    60    58   ar
    63    13    14    1
    64    34    35   ar
    65   125   124    2
    66    77    75   ar
    67    33    35   ar
    68    24    23    2
    69    75    74    1
    70   123   124    1
    71   123   126    1
    72   140   141    1
    73   140   139    1
    74    27    26    1
    75    27    28    1
    76   124   134   am
    77    57    56   ar
    78   138   139    1
    79   138   135    1
    80    18    20    1
    81    18    19    1
    82    18    17    1
    83    58    56   ar
    84   141   142    1
    85    74    71    1
    86    23    26   am
    87    23    22    1
    88   126   127    1
    89    14    17    1
    90    14    15    1
    91    21    15   am
    92    21    22    1
    93    28    29    2
    94   134   135    1
    95    93    92    2
    96    92    91    1
    97    71    72    1
    98    71    70    1
    99    73    72    2
   100   135   136    1
   101    56    55    1
   102    15    16    2
   103    90    91    1
   104    68    67   ar
   105    22    25    1
   106    69    67   ar
   107   127   129   ar
   108   127   128   ar
   109    91    94    1
   110   129   131   ar
   111    67    66    1
   112    54    53    2
   113   136   137    2
   114    55    52    1
   115   128   130   ar
   116    53    52    1
   117    53    61   am
   118   131   132   ar
   119    52    51    1
   120    94    95    1
   121    94    96    1
   122    64    63    2
   123    66    65    1
   124    62    61    1
   125    62    63    1
   126    62    65    1
   127    50    48    1
   128   130   132   ar
   129   132   133    1
   130    47    46    2
   131    49    48    1
   132    48    45    1
   133    45    46    1
   134    45    44    1
   135    39    38    2
   136    44    38   am
   137    38    37    1
   138    40    37    1
   139    40    41    1
   140    42    41    1
   141    37    36    1
   142    43    41    1
