@<TRIPOS>MOLECULE
tmp/3rttA00.pdb
 142 142 0 0 0
SMALL
GASTEIGER

@<TRIPOS>ATOM
      1  N          3.7550  -11.2790   -3.2530 N.3    74  GLY74      -0.1210
      2  CA         3.5600  -10.0430   -2.5200 C.3    74  GLY74       0.1956
      3  C          2.9210   -8.9590   -3.3850 C.2    74  GLY74       0.2612
      4  O          1.9790   -9.2370   -4.1620 O.2    74  GLY74      -0.2717
      5  N          3.4410   -7.7370   -3.2350 N.am   75  ILE75      -0.1965
      6  CA         3.0170   -6.5270   -3.9640 C.3    75  ILE75       0.1727
      7  C          3.3650   -6.7280   -5.4350 C.2    75  ILE75       0.2616
      8  O          4.5350   -6.8130   -5.7980 O.2    75  ILE75      -0.2715
      9  CB         3.7450   -5.2680   -3.4560 C.3    75  ILE75       0.0290
     10  CG1        3.4570   -4.9540   -1.9720 C.3    75  ILE75       0.0022
     11  CG2        3.5730   -4.0000   -4.4020 C.3    75  ILE75       0.0023
     12  CD1        2.0570   -5.1800   -1.6020 C.3    75  ILE75       0.0001
     13  N          2.3160   -6.7740   -6.2430 N.am   76  LEU76      -0.1963
     14  CA         2.3450   -7.0050   -7.6410 C.3    76  LEU76       0.1728
     15  C          2.6640   -5.7350   -8.4270 C.2    76  LEU76       0.2616
     16  O          3.4000   -5.7950   -9.4180 O.2    76  LEU76      -0.2715
     17  CB         0.9670   -7.5660   -8.0370 C.3    76  LEU76       0.0311
     18  CG         0.5990   -8.9160   -7.3910 C.3    76  LEU76       0.0022
     19  CD1       -0.6870   -9.3650   -8.0340 C.3    76  LEU76       0.0001
     20  CD2        1.6760  -10.0680   -7.5270 C.3    76  LEU76       0.0001
     21  N          2.1560   -4.5860   -7.9430 N.am   77  ALA77      -0.1963
     22  CA         2.1740   -3.2890   -8.6200 C.3    77  ALA77       0.1728
     23  C          1.6630   -2.1790   -7.6800 C.2    77  ALA77       0.2616
     24  O          0.9640   -2.4790   -6.6890 O.2    77  ALA77      -0.2715
     25  CB         1.2880   -3.3650   -9.8960 C.3    77  ALA77       0.0334
     26  N          1.9910   -0.9030   -7.9770 N.am   78  HIS78      -0.1973
     27  CA         1.4520    0.2290   -7.2190 C.3    78  HIS78       0.1656
     28  C          1.4450    1.5130   -8.0750 C.2    78  HIS78       0.2291
     29  O          2.1620    1.6150   -9.0680 O.2    78  HIS78      -0.2864
     30  CB         2.3050    0.4710   -5.9650 C.3    78  HIS78       0.0771
     31  CG         3.5610    1.2090   -6.2590 C.ar   78  HIS78       0.0820
     32  ND1        3.6970    2.5600   -6.0120 N.ar   78  HIS78      -0.2267
     33  CD2        4.7160    0.8150   -6.8260 C.ar   78  HIS78       0.1154
     34  CE1        4.8890    2.9540   -6.4050 C.ar   78  HIS78       0.1986
     35  NE2        5.5260    1.9190   -6.9050 N.ar   78  HIS78      -0.2212
     36  N         -5.7580   -7.1330  -16.0110 N.3   109  LEU109     -0.1231
     37  CA        -6.4890   -7.0890  -14.7230 C.3   109  LEU109      0.1693
     38  C         -5.7550   -6.2490  -13.7240 C.2   109  LEU109      0.2592
     39  O         -6.3890   -5.4070  -13.0570 O.2   109  LEU109     -0.2718
     40  CB        -6.7280   -8.4890  -14.1400 C.3   109  LEU109      0.0284
     41  CG        -7.8280   -9.2510  -14.9130 C.3   109  LEU109      0.0019
     42  CD1       -7.9940  -10.7370  -14.5870 C.3   109  LEU109      0.0001
     43  CD2       -9.0560   -8.5080  -14.6950 C.3   109  LEU109      0.0001
     44  N         -4.4250   -6.4540  -13.6210 N.am  110  THR110     -0.1953
     45  CA        -3.6040   -5.6090  -12.7250 C.3   110  THR110      0.1897
     46  C         -3.6320   -4.1330  -13.1230 C.2   110  THR110      0.2313
     47  O         -3.7930   -3.2590  -12.2700 O.2   110  THR110     -0.2863
     48  CB        -2.1060   -6.0530  -12.5960 C.3   110  THR110      0.1794
     49  OG1       -2.0530   -7.4670  -12.4150 O.3   110  THR110     -0.2208
     50  CG2       -1.4840   -5.3690  -11.3720 C.3   110  THR110      0.0378
     51  N         -6.6730   -2.2690  -12.0410 N.3   113  HIS113     -0.1226
     52  CA        -6.6480   -1.9390  -10.5980 C.3   113  HIS113      0.1752
     53  C         -5.7960   -0.7320  -10.2550 C.2   113  HIS113      0.2595
     54  O         -6.2140    0.1400   -9.5010 O.2   113  HIS113     -0.2718
     55  CB        -6.2130   -3.1590   -9.8120 C.3   113  HIS113      0.0759
     56  CG        -5.9880   -2.9080   -8.3410 C.ar  113  HIS113      0.0818
     57  ND1       -6.9400   -3.1930   -7.3880 N.ar  113  HIS113     -0.2268
     58  CD2       -4.8790   -2.5390   -7.6590 C.ar  113  HIS113      0.1154
     59  CE1       -6.4400   -2.9760   -6.1790 C.ar  113  HIS113      0.1986
     60  NE2       -5.2020   -2.5360   -6.3210 N.ar  113  HIS113     -0.2212
     61  N         -4.6100   -0.6830  -10.8760 N.am  114  GLU114     -0.1979
     62  CA        -3.6640    0.4580  -10.8050 C.3   114  GLU114      0.1602
     63  C         -4.1380    1.7810  -11.4190 C.2   114  GLU114      0.2287
     64  O         -3.9590    2.8540  -10.8150 O.2   114  GLU114     -0.2864
     65  CB        -2.3070    0.0500  -11.4200 C.3   114  GLU114      0.0415
     66  CG        -1.7110   -1.1890  -10.7420 C.3   114  GLU114      0.1163
     67  CD        -1.5970   -1.0170   -9.2360 C.2   114  GLU114      0.3649
     68  OE1       -1.9170   -1.9680   -8.4820 O.co2 114  GLU114     -0.2457
     69  OE2       -1.2280    0.0980   -8.8210 O.co2 114  GLU114     -0.2457
     70  N         -6.2920    3.4590   -9.1730 N.3   117  HIS117     -0.1241
     71  CA        -5.4580    4.2170   -8.2370 C.3   117  HIS117      0.1621
     72  C         -4.9700    5.5040   -8.9270 C.2   117  HIS117      0.2264
     73  O         -5.1270    6.5580   -8.3140 O.2   117  HIS117     -0.2867
     74  CB        -4.2670    3.3690   -7.7430 C.3   117  HIS117      0.0745
     75  CG        -4.6330    2.2770   -6.7650 C.ar  117  HIS117      0.0817
     76  ND1       -5.4200    2.4950   -5.6490 N.ar  117  HIS117     -0.2268
     77  CD2       -4.2170    0.9840   -6.6740 C.ar  117  HIS117      0.1154
     78  CE1       -5.5570    1.3700   -4.9740 C.ar  117  HIS117      0.1986
     79  NE2       -4.7770    0.4580   -5.5300 N.ar  117  HIS117     -0.2212
     80  N         -8.9460    1.3440   -2.2890 N.3   123  HIS123     -0.1241
     81  CA        -9.3890   -0.0270   -2.2860 C.3   123  HIS123      0.1621
     82  C        -10.8190   -0.2180   -1.8300 C.2   123  HIS123      0.2264
     83  O        -11.3640    0.5790   -1.0710 O.2   123  HIS123     -0.2867
     84  CB        -8.4890   -0.8220   -1.3820 C.3   123  HIS123      0.0745
     85  CG        -7.1590   -1.1300   -1.9920 C.ar  123  HIS123      0.0817
     86  ND1       -5.9900   -1.0960   -1.2630 N.ar  123  HIS123     -0.2268
     87  CD2       -6.8030   -1.4090   -3.2630 C.ar  123  HIS123      0.1154
     88  CE1       -4.9750   -1.3760   -2.0550 C.ar  123  HIS123      0.1986
     89  NE2       -5.4500   -1.6170   -3.2660 N.ar  123  HIS123     -0.2212
     90  N        -12.7120   -5.0530   -8.6930 N.3   130  VAL130     -0.1245
     91  CA       -11.3410   -5.0100   -9.1960 C.3   130  VAL130      0.1561
     92  C        -10.3340   -4.1990   -8.2700 C.2   130  VAL130      0.2260
     93  O         -9.1730   -4.5270   -8.2500 O.2   130  VAL130     -0.2867
     94  CB       -11.2890   -4.4930  -10.6670 C.3   130  VAL130      0.0252
     95  CG1      -11.5210   -2.9400  -10.7460 C.3   130  VAL130      0.0019
     96  CG2       -9.9530   -4.9440  -11.3880 C.3   130  VAL130      0.0019
     97  N        -10.6150   -4.3110   -4.9410 N.3   132  PHE132     -0.1228
     98  CA       -10.3500   -5.1390   -3.7550 C.3   132  PHE132      0.1721
     99  C         -8.8560   -5.4090   -3.7700 C.2   132  PHE132      0.2437
    100  O         -8.2850   -5.6440   -4.8390 O.2   132  PHE132     -0.2733
    101  CB       -11.1190   -6.4640   -3.8020 C.3   132  PHE132      0.0547
    102  CG       -10.9750   -7.3190   -2.5510 C.ar  132  PHE132     -0.0202
    103  CD1      -11.5950   -6.9510   -1.3510 C.ar  132  PHE132     -0.0042
    104  CD2      -10.2550   -8.5080   -2.5880 C.ar  132  PHE132     -0.0042
    105  CE1      -11.5200   -7.7620   -0.2250 C.ar  132  PHE132     -0.0003
    106  CE2      -10.1630   -9.3450   -1.4430 C.ar  132  PHE132     -0.0003
    107  CZ       -10.7940   -8.9540   -0.2630 C.ar  132  PHE132     -0.0000
    108  N         -8.2000   -5.3220   -2.6090 N.am  133  PRO133     -0.2718
    109  CA        -6.7400   -5.4090   -2.6330 C.3   133  PRO133      0.1535
    110  C         -6.0890   -6.7860   -2.9010 C.2   133  PRO133      0.2599
    111  O         -4.8960   -6.8480   -2.9530 O.2   133  PRO133     -0.2715
    112  CB        -6.3010   -4.7510   -1.2900 C.3   133  PRO133      0.0310
    113  CG        -7.5940   -4.3460   -0.5650 C.3   133  PRO133      0.0237
    114  CD        -8.7360   -5.0520   -1.2590 C.3   133  PRO133      0.0939
    115  N         -6.8490   -7.8570   -3.1240 N.am  134  THR134     -0.1937
    116  CA        -6.2470   -9.1420   -3.4280 C.3   134  THR134      0.2028
    117  C         -6.4390   -9.5880   -4.8950 C.2   134  THR134      0.2642
    118  O         -7.5600   -9.9070   -5.3030 O.2   134  THR134     -0.2714
    119  CB        -6.7210  -10.2720   -2.4270 C.3   134  THR134      0.1808
    120  OG1       -6.4650   -9.8530   -1.0700 O.3   134  THR134     -0.2208
    121  CG2       -6.0750  -11.6700   -2.7640 C.3   134  THR134      0.0379
    122  N         -5.3320   -9.6490   -5.6490 N.am  135  TYR135     -0.1959
    123  CA        -5.3460  -10.1880   -7.0200 C.3   135  TYR135      0.1771
    124  C         -6.0210  -11.5620   -7.1240 C.2   135  TYR135      0.2619
    125  O         -5.5100  -12.5690   -6.5850 O.2   135  TYR135     -0.2715
    126  CB        -3.9040  -10.2340   -7.6300 C.3   135  TYR135      0.0574
    127  CG        -3.8780  -10.8560   -9.0270 C.ar  135  TYR135     -0.0198
    128  CD1       -4.1670  -10.1050  -10.1580 C.ar  135  TYR135     -0.0009
    129  CD2       -3.6260  -12.2210   -9.2070 C.ar  135  TYR135     -0.0009
    130  CE1       -4.2020  -10.6800  -11.4090 C.ar  135  TYR135      0.0417
    131  CE2       -3.6640  -12.8010  -10.4640 C.ar  135  TYR135      0.0417
    132  CZ        -3.9490  -12.0340  -11.5590 C.ar  135  TYR135      0.1957
    133  OH        -3.9660  -12.6080  -12.8070 O.3   135  TYR135     -0.2866
    134  N         -7.1480  -11.6160   -7.8250 N.am  136  LYS136     -0.1977
    135  CA        -7.8000  -12.8880   -8.1490 C.3   136  LYS136      0.1596
    136  C         -8.0540  -12.9550   -9.6770 C.2   136  LYS136      0.2287
    137  O         -8.7000  -12.0790  -10.2030 O.2   136  LYS136     -0.2864
    138  CB        -9.1000  -13.0100   -7.3060 C.3   136  LYS136      0.0298
    139  CG       -10.1610  -13.9900   -7.8400 C.3   136  LYS136      0.0038
    140  CD        -9.9660  -15.4330   -7.3140 C.3   136  LYS136      0.0206
    141  CE       -11.2830  -16.1790   -7.3120 C.3   136  LYS136      0.1093
    142  NZ       -11.4380  -16.9710   -8.5740 N.3   136  LYS136     -0.1314
@<TRIPOS>BOND
     1    36    37    1
     2    41    43    1
     3    41    42    1
     4    41    40    1
     5    37    40    1
     6    37    38    1
     7    38    44   am
     8    38    39    2
     9    44    45    1
    10    46    45    1
    11    46    47    2
    12   133   132    1
    13    45    48    1
    14    48    49    1
    15    48    50    1
    16    51    52    1
    17   132   130   ar
    18   132   131   ar
    19    65    62    1
    20    65    66    1
    21    63    64    2
    22    63    62    1
    23   130   128   ar
    24    96    94    1
    25    61    62    1
    26    61    53   am
    27    95    94    1
    28    66    67    1
    29    94    91    1
    30    52    53    1
    31    52    55    1
    32   131   129   ar
    33    53    54    2
    34   137   136    2
    35   128   127   ar
    36    25    22    1
    37    55    56    1
    38   136   135    1
    39    16    15    2
    40    67    69   ar
    41    67    68   ar
    42   129   127   ar
    43    91    90    1
    44    91    92    1
    45    70    71    1
    46    29    28    2
    47   127   126    1
    48    72    73    2
    49    72    71    1
    50    22    21    1
    51    22    23    1
    52   142   141    1
    53    15    21   am
    54    15    14    1
    55    56    58   ar
    56    56    57   ar
    57    92    93    2
    58    71    74    1
    59   135   134    1
    60   135   138    1
    61    28    27    1
    62    17    14    1
    63    17    18    1
    64    19    18    1
    65    26    23   am
    66    26    27    1
    67   139   140    1
    68   139   138    1
    69   134   124   am
    70    74    75    1
    71    23    24    2
    72    58    60   ar
    73    14    13    1
    74   126   123    1
    75    20    18    1
    76    57    59   ar
    77   140   141    1
    78    27    30    1
    79   124   123    1
    80   124   125    2
    81   123   122    1
    82    35    33   ar
    83    35    34   ar
    84    33    31   ar
    85    75    77   ar
    86    75    76   ar
    87    77    79   ar
    88    34    32   ar
    89    60    59   ar
    90    31    32   ar
    91    31    30    1
    92    13     7   am
    93     8     7    2
    94   122   117   am
    95    76    78   ar
    96    79    78   ar
    97     7     6    1
    98   118   117    2
    99    97    98    1
   100   117   116    1
   101   100    99    2
   102    11     9    1
   103     4     3    2
   104     6     9    1
   105     6     5    1
   106   101    98    1
   107   101   102    1
   108    99    98    1
   109    99   108   am
   110     9    10    1
   111   116   115    1
   112   116   119    1
   113     3     5   am
   114     3     2    1
   115    89    87   ar
   116    89    88   ar
   117    87    85   ar
   118     1     2    1
   119   115   110   am
   120   111   110    2
   121   110   109    1
   122   121   119    1
   123   109   108    1
   124   109   112    1
   125   108   114    1
   126   104   102   ar
   127   104   106   ar
   128   102   103   ar
   129   119   120    1
   130    80    81    1
   131    81    82    1
   132    81    84    1
   133    88    86   ar
   134    85    84    1
   135    85    86   ar
   136    10    12    1
   137    82    83    2
   138   106   107   ar
   139   103   105   ar
   140   112   113    1
   141   114   113    1
   142   107   105   ar
