@<TRIPOS>MOLECULE
tmp/3rtwC00.pdb
 149 143 0 0 0
SMALL
GASTEIGER

@<TRIPOS>ATOM
      1  N         28.9730  -17.3290  -69.5960 N.3    10  GLU10      -0.1245
      2  CA        27.9190  -16.3250  -69.6990 C.3    10  GLU10       0.1567
      3  C         27.0800  -16.6520  -70.9230 C.2    10  GLU10       0.2260
      4  O         27.6080  -16.7040  -72.0260 O.2    10  GLU10      -0.2867
      5  CB        28.5500  -14.9390  -69.8850 C.3    10  GLU10       0.0388
      6  CG        27.5700  -13.7610  -69.8640 C.3    10  GLU10       0.1160
      7  CD        27.2190  -13.3110  -68.4530 C.2    10  GLU10       0.3649
      8  OE1       26.0710  -13.5600  -68.0250 O.co2  10  GLU10      -0.2457
      9  OE2       28.0860  -12.7260  -67.7640 O.co2  10  GLU10      -0.2457
     10  N         35.0540   -9.9580  -64.8620 N.3    58  TYR58      -0.1241
     11  CA        35.3800   -9.3330  -66.1330 C.3    58  TYR58       0.1605
     12  C         36.7200   -8.6220  -66.0800 C.2    58  TYR58       0.2264
     13  O         37.6180   -8.9340  -66.8640 O.2    58  TYR58      -0.2867
     14  CB        34.2550   -8.4030  -66.6040 C.3    58  TYR58       0.0534
     15  CG        33.0990   -9.1820  -67.1720 C.ar   58  TYR58      -0.0201
     16  CD1       32.0880   -9.6840  -66.3490 C.ar   58  TYR58      -0.0009
     17  CD2       33.0300   -9.4520  -68.5330 C.ar   58  TYR58      -0.0009
     18  CE1       31.0250  -10.4140  -66.8870 C.ar   58  TYR58       0.0417
     19  CE2       31.9840  -10.1760  -69.0710 C.ar   58  TYR58       0.0417
     20  CZ        30.9850  -10.6590  -68.2430 C.ar   58  TYR58       0.1957
     21  OH        29.9530  -11.3780  -68.8080 O.3    58  TYR58      -0.2866
     22  N         32.3050  -11.4160  -73.8200 N.3    86  PRO86      -0.2102
     23  CA        31.5110  -10.1780  -73.8360 C.3    86  PRO86       0.1504
     24  C         32.2170   -9.0950  -73.0260 C.2    86  PRO86       0.2576
     25  O         31.6400   -8.6020  -72.0680 O.2    86  PRO86      -0.2718
     26  CB        30.2170  -10.5630  -73.1080 C.3    86  PRO86       0.0282
     27  CG        30.2950  -12.0070  -72.8110 C.3    86  PRO86       0.0208
     28  CD        31.7110  -12.4490  -72.9560 C.3    86  PRO86       0.0893
     29  N         33.4430   -8.7480  -73.4120 N.am   87  LEU87      -0.1966
     30  CA        34.3030   -7.8270  -72.6590 C.3    87  LEU87       0.1728
     31  C         34.2060   -6.3960  -73.2030 C.2    87  LEU87       0.2616
     32  O         34.6350   -6.1080  -74.3170 O.2    87  LEU87      -0.2715
     33  CB        35.7610   -8.3000  -72.7260 C.3    87  LEU87       0.0311
     34  CG        36.7760   -7.5960  -71.8240 C.3    87  LEU87       0.0022
     35  CD1       36.4790   -7.8490  -70.3850 C.3    87  LEU87       0.0001
     36  CD2       38.1990   -8.0510  -72.1290 C.3    87  LEU87       0.0001
     37  N         33.6590   -5.5010  -72.3980 N.am   88  THR88      -0.1951
     38  CA        33.4400   -4.1230  -72.8100 C.3    88  THR88       0.1897
     39  C         34.7240   -3.3270  -73.0250 C.2    88  THR88       0.2313
     40  O         35.5950   -3.2810  -72.1600 O.2    88  THR88      -0.2863
     41  CB        32.5870   -3.4040  -71.7640 C.3    88  THR88       0.1794
     42  OG1       31.3360   -4.0910  -71.6320 O.3    88  THR88      -0.2208
     43  CG2       32.3350   -1.9560  -72.1590 C.3    88  THR88       0.0378
     44  N         40.5890    0.2570  -69.3060 N.3    93  ARG93      -0.1245
     45  CA        41.1340   -1.0100  -69.7750 C.3    93  ARG93       0.1563
     46  C         42.0650   -0.8520  -70.9810 C.2    93  ARG93       0.2260
     47  O         43.0620   -1.5700  -71.0900 O.2    93  ARG93      -0.2867
     48  CB        40.0120   -1.9820  -70.1200 C.3    93  ARG93       0.0307
     49  CG        39.3270   -2.5760  -68.9210 C.3    93  ARG93       0.0489
     50  CD        38.0450   -3.2740  -69.3420 C.3    93  ARG93       0.2205
     51  NE        37.3080   -3.7930  -68.2000 N.pl3  93  ARG93      -0.0865
     52  CZ        36.1230   -4.3830  -68.3010 C.cat  93  ARG93       0.5346
     53  NH1       35.5620   -4.5210  -69.4870 N.pl3  93  ARG93       0.1354
     54  NH2       35.5030   -4.8420  -67.2240 N.pl3  93  ARG93       0.1354
     55  N         25.3900   -5.7600  -61.9490 N.3   135  LEU135     -0.1245
     56  CA        26.4820   -6.6940  -61.7050 C.3   135  LEU135      0.1561
     57  C         27.5090   -5.9320  -60.8700 C.2   135  LEU135      0.2260
     58  O         27.9230   -4.8280  -61.2430 O.2   135  LEU135     -0.2867
     59  CB        27.0840   -7.1630  -63.0340 C.3   135  LEU135      0.0270
     60  CG        28.1960   -8.2250  -63.0110 C.3   135  LEU135      0.0019
     61  CD1       27.6430   -9.5640  -62.5580 C.3   135  LEU135      0.0001
     62  CD2       28.8270   -8.3480  -64.3890 C.3   135  LEU135      0.0001
     63  N         30.5810   -6.0830  -60.1530 N.3   137  SER137     -0.1202
     64  CA        31.8680   -5.7490  -60.7590 C.3   137  SER137      0.2020
     65  C         31.6110   -5.6370  -62.2630 C.2   137  SER137      0.2619
     66  O         30.7550   -6.3650  -62.7850 O.2   137  SER137     -0.2717
     67  CB        32.8900   -6.8540  -60.4550 C.3   137  SER137      0.2103
     68  OG        34.1920   -6.5280  -60.9080 O.3   137  SER137     -0.2182
     69  N         32.3000   -4.7270  -62.9570 N.am  138  GLY138     -0.1942
     70  CA        32.0950   -4.5660  -64.3920 C.3   138  GLY138      0.2014
     71  C         31.8230   -3.1540  -64.8940 C.2   138  GLY138      0.2640
     72  O         31.7080   -2.2090  -64.1190 O.2   138  GLY138     -0.2714
     73  N         31.7130   -3.0030  -66.2090 N.am  139  SER139     -0.1935
     74  CA        31.5450   -1.6740  -66.8010 C.3   139  SER139      0.2055
     75  C         30.1810   -1.0350  -66.4990 C.2   139  SER139      0.2643
     76  O         30.0560    0.1900  -66.4360 O.2   139  SER139     -0.2714
     77  CB        31.8260   -1.7040  -68.3080 C.3   139  SER139      0.2130
     78  OG        30.8960   -2.5240  -68.9990 O.3   139  SER139     -0.2179
     79  N         29.1580   -1.8570  -66.3000 N.am  140  THR140     -0.1950
     80  CA        27.8410   -1.3200  -65.9740 C.3   140  THR140      0.1897
     81  C         27.8840   -0.5430  -64.6560 C.2   140  THR140      0.2313
     82  O         27.4430    0.6060  -64.5770 O.2   140  THR140     -0.2863
     83  CB        26.7970   -2.4340  -65.8810 C.3   140  THR140      0.1794
     84  OG1       26.6510   -3.0470  -67.1700 O.3   140  THR140     -0.2208
     85  CG2       25.4490   -1.8880  -65.3950 C.3   140  THR140      0.0378
     86  N         25.3180  -12.4550  -63.6430 N.3   171  THR171     -0.1218
     87  CA        24.0990  -12.1720  -64.3780 C.3   171  THR171      0.1862
     88  C         22.9750  -13.1080  -63.9500 C.2   171  THR171      0.2287
     89  O         21.8450  -12.6670  -63.7330 O.2   171  THR171     -0.2866
     90  CB        24.3280  -12.3220  -65.8850 C.3   171  THR171      0.1770
     91  OG1       25.3330  -11.3940  -66.2930 O.3   171  THR171     -0.2211
     92  CG2       23.0410  -12.0450  -66.6610 C.3   171  THR171      0.0375
     93  N         16.5560   -5.0760  -62.7710 N.3   187  TYR187     -0.1227
     94  CA        17.9600   -5.3420  -62.9810 C.3   187  TYR187      0.1736
     95  C         18.4810   -4.5610  -64.1780 C.2   187  TYR187      0.2595
     96  O         17.9220   -4.6380  -65.2760 O.2   187  TYR187     -0.2718
     97  CB        18.1730   -6.8460  -63.1670 C.3   187  TYR187      0.0548
     98  CG        19.6190   -7.2760  -63.1540 C.ar  187  TYR187     -0.0200
     99  CD1       20.4850   -6.8480  -62.1580 C.ar  187  TYR187     -0.0009
    100  CD2       20.1130   -8.1420  -64.1280 C.ar  187  TYR187     -0.0009
    101  CE1       21.8310   -7.2510  -62.1490 C.ar  187  TYR187      0.0417
    102  CE2       21.4390   -8.5500  -64.1280 C.ar  187  TYR187      0.0417
    103  CZ        22.2950   -8.1030  -63.1380 C.ar  187  TYR187      0.1957
    104  OH        23.6170   -8.5140  -63.1470 O.3   187  TYR187     -0.2866
    105  N         19.5400   -3.7930  -63.9550 N.am  188  LEU188     -0.1966
    106  CA        20.1970   -3.0510  -65.0260 C.3   188  LEU188      0.1728
    107  C         21.3210   -3.8990  -65.6050 C.2   188  LEU188      0.2616
    108  O         22.2620   -4.2750  -64.8900 O.2   188  LEU188     -0.2715
    109  CB        20.7340   -1.7300  -64.4820 C.3   188  LEU188      0.0311
    110  CG        19.6110   -0.9420  -63.7980 C.3   188  LEU188      0.0022
    111  CD1       20.1410   -0.0820  -62.6850 C.3   188  LEU188      0.0001
    112  CD2       18.9140   -0.0940  -64.8210 C.3   188  LEU188      0.0001
    113  N         21.2150   -4.2370  -66.8880 N.am  189  LEU189     -0.1963
    114  CA        22.2180   -5.1040  -67.5020 C.3   189  LEU189      0.1728
    115  C         22.4160   -4.8010  -68.9800 C.2   189  LEU189      0.2616
    116  O         21.6090   -4.1090  -69.5960 O.2   189  LEU189     -0.2715
    117  CB        21.8580   -6.5780  -67.3020 C.3   189  LEU189      0.0311
    118  CG        20.8990   -7.1760  -68.3300 C.3   189  LEU189      0.0022
    119  CD1       20.8430   -8.6820  -68.1680 C.3   189  LEU189      0.0001
    120  CD2       19.5210   -6.5660  -68.1620 C.3   189  LEU189      0.0001
    121  N         23.4990   -5.3090  -69.5470 N.am  190  GLU190     -0.1977
    122  CA        23.7800   -5.0630  -70.9510 C.3   190  GLU190      0.1602
    123  C         22.6820   -5.6560  -71.8430 C.2   190  GLU190      0.2287
    124  O         22.1730   -6.7450  -71.5830 O.2   190  GLU190     -0.2864
    125  CB        25.1840   -5.5590  -71.2980 C.3   190  GLU190      0.0415
    126  CG        26.2460   -4.6570  -70.6450 C.3   190  GLU190      0.1163
    127  CD        27.6590   -5.1870  -70.7440 C.2   190  GLU190      0.3649
    128  OE1       27.8470   -6.3960  -71.0360 O.co2 190  GLU190     -0.2457
    129  OE2       28.5860   -4.3690  -70.5250 O.co2 190  GLU190     -0.2457
    130  N         22.4370   -9.4050  -73.3280 N.3   193  MET193     -0.1245
    131  CA        22.0050  -10.3720  -72.3270 C.3   193  MET193      0.1570
    132  C         20.5190  -10.2100  -72.0340 C.2   193  MET193      0.2261
    133  O         19.8050  -11.1990  -71.8950 O.2   193  MET193     -0.2867
    134  CB        22.7940  -10.1980  -71.0290 C.3   193  MET193      0.0387
    135  CG        23.7870  -11.3160  -70.7260 C.3   193  MET193      0.0595
    136  SD        25.3490  -11.2480  -71.6380 S.3   193  MET193     -0.1393
    137  CE        25.6560   -9.4800  -71.7250 C.3   193  MET193      0.0692
    138  N         31.8070   -4.5580  -77.5290 N.3   217  TYR217     -0.1241
    139  CA        32.6160   -5.6430  -77.0010 C.3   217  TYR217      0.1605
    140  C         33.8410   -5.7440  -77.9090 C.2   217  TYR217      0.2264
    141  O         33.7400   -5.5940  -79.1290 O.2   217  TYR217     -0.2867
    142  CB        31.8610   -6.9890  -77.0440 C.3   217  TYR217      0.0534
    143  CG        30.7000   -7.1410  -76.0660 C.ar  217  TYR217     -0.0201
    144  CD1       30.7200   -6.5170  -74.8270 C.ar  217  TYR217     -0.0009
    145  CD2       29.6170   -7.9530  -76.3710 C.ar  217  TYR217     -0.0009
    146  CE1       29.6700   -6.6660  -73.9190 C.ar  217  TYR217      0.0417
    147  CE2       28.5520   -8.1140  -75.4780 C.ar  217  TYR217      0.0417
    148  CZ        28.5910   -7.4660  -74.2510 C.ar  217  TYR217      0.1957
    149  OH        27.5600   -7.6160  -73.3570 O.3   217  TYR217     -0.2866
@<TRIPOS>BOND
     1   141   140    2
     2   140   139    1
     3   138   139    1
     4   142   139    1
     5   142   143    1
     6   145   143   ar
     7   145   147   ar
     8   143   144   ar
     9   147   148   ar
    10   144   146   ar
    11    32    31    2
    12   148   146   ar
    13   148   149    1
    14    23    22    1
    15    23    26    1
    16    23    24    1
    17    22    28    1
    18    29    24   am
    19    29    30    1
    20   130   131    1
    21    31    30    1
    22    31    37   am
    23    26    27    1
    24    24    25    2
    25    39    38    1
    26    39    40    2
    27    28    27    1
    28    38    37    1
    29    38    41    1
    30    33    30    1
    31    33    34    1
    32   131   132    1
    33   131   134    1
    34    43    41    1
    35    36    34    1
    36   132   133    2
    37     4     3    2
    38   123   124    2
    39   123   122    1
    40    34    35    1
    41    41    42    1
    42   137   136    1
    43   136   135    1
    44   125   122    1
    45   125   126    1
    46    47    46    2
    47   128   127   ar
    48   134   135    1
    49    46    45    1
    50   122   121    1
    51     3     2    1
    52   127   126    1
    53   127   129   ar
    54    48    45    1
    55    48    49    1
    56     5     6    1
    57     5     2    1
    58     6     7    1
    59    45    44    1
    60     2     1    1
    61   116   115    2
    62   121   115   am
    63    53    52    1
    64    50    49    1
    65    50    51    1
    66    19    17   ar
    67    19    20   ar
    68    78    77    1
    69   115   114    1
    70    21    20    1
    71    17    15   ar
    72     7     8   ar
    73     7     9   ar
    74   118   119    1
    75   118   120    1
    76   118   117    1
    77    77    74    1
    78    52    51    2
    79    52    54    1
    80    20    18   ar
    81   114   117    1
    82   114   113    1
    83    15    14    1
    84    15    16   ar
    85    84    83    1
    86   113   107   am
    87    18    16   ar
    88    13    12    2
    89    74    75    1
    90    74    73    1
    91    92    90    1
    92    14    11    1
    93    75    76    2
    94    75    79   am
    95    79    80    1
    96    91    90    1
    97    73    71   am
    98    11    12    1
    99    11    10    1
   100    80    83    1
   101    80    81    1
   102    90    87    1
   103    83    85    1
   104   107   106    1
   105   107   108    2
   106    96    95    2
   107   106   109    1
   108   106   105    1
   109    71    70    1
   110    71    72    2
   111   112   110    1
   112    81    82    2
   113   109   110    1
   114    70    69    1
   115    62    60    1
   116    87    88    1
   117    87    86    1
   118    95   105   am
   119    95    94    1
   120   100   102   ar
   121   100    98   ar
   122   102   103   ar
   123    88    89    2
   124   110   111    1
   125    97    98    1
   126    97    94    1
   127    98    99   ar
   128   104   103    1
   129   103   101   ar
   130    59    60    1
   131    59    56    1
   132    60    61    1
   133    94    93    1
   134    69    65   am
   135    66    65    2
   136    65    64    1
   137    99   101   ar
   138    55    56    1
   139    56    57    1
   140    58    57    2
   141    68    67    1
   142    64    67    1
   143    64    63    1
