@<TRIPOS>MOLECULE
tmp/3rtxA00.pdb
 115 108 0 0 0
SMALL
GASTEIGER

@<TRIPOS>ATOM
      1  N         12.3250   23.8030  -53.5690 N.3    47  ALA47      -0.1245
      2  CA        13.2030   23.4260  -52.4740 C.3    47  ALA47       0.1562
      3  C         13.6310   21.9670  -52.5780 C.2    47  ALA47       0.2260
      4  O         12.8290   21.0940  -52.9110 O.2    47  ALA47      -0.2867
      5  CB        12.5070   23.6710  -51.1480 C.3    47  ALA47       0.0290
      6  N         15.3630   18.8940  -50.3980 N.3    49  PRO49      -0.2116
      7  CA        15.7580   18.3720  -49.0870 C.3    49  PRO49       0.1372
      8  C         17.0980   17.6590  -49.1860 C.2    49  PRO49       0.2244
      9  O         17.6610   17.5280  -50.2750 O.2    49  PRO49      -0.2868
     10  CB        14.6380   17.3950  -48.7490 C.3    49  PRO49       0.0268
     11  CG        13.4710   17.9230  -49.5220 C.3    49  PRO49       0.0207
     12  CD        14.0970   18.2860  -50.8350 C.3    49  PRO49       0.0892
     13  N          7.0410   10.0350  -46.1550 N.3    70  LYS70      -0.1231
     14  CA         7.8280   10.3910  -47.3300 C.3    70  LYS70       0.1693
     15  C          7.3710    9.4960  -48.4720 C.2    70  LYS70       0.2591
     16  O          7.9050    8.4050  -48.6710 O.2    70  LYS70      -0.2718
     17  CB         9.3170   10.1670  -47.0660 C.3    70  LYS70       0.0285
     18  CG        10.1970   10.3340  -48.2920 C.3    70  LYS70       0.0035
     19  CD        11.6460   10.0070  -47.9770 C.3    70  LYS70       0.0206
     20  CE        12.5140   10.0970  -49.2200 C.3    70  LYS70       0.1093
     21  NZ        13.9460    9.8290  -48.9150 N.3    70  LYS70      -0.1314
     22  N          6.3730    9.9640  -49.2140 N.am   71  ALA71      -0.1980
     23  CA         5.8100    9.2140  -50.3330 C.3    71  ALA71       0.1597
     24  C          6.7460    9.0920  -51.5360 C.2    71  ALA71       0.2287
     25  O          7.7100    9.8500  -51.6760 O.2    71  ALA71      -0.2864
     26  CB         4.4890    9.8530  -50.7670 C.3    71  ALA71       0.0319
     27  N          7.6740   14.9310  -58.0010 N.3    75  ARG75      -0.1245
     28  CA         7.6530   16.3330  -57.6030 C.3    75  ARG75       0.1563
     29  C          7.0250   17.2200  -58.6770 C.2    75  ARG75       0.2260
     30  O          7.3130   17.0760  -59.8670 O.2    75  ARG75      -0.2867
     31  CB         9.0760   16.8030  -57.3050 C.3    75  ARG75       0.0307
     32  CG         9.1920   18.2370  -56.8040 C.3    75  ARG75       0.0489
     33  CD         8.5120   18.4290  -55.4530 C.3    75  ARG75       0.2205
     34  NE         8.8150   19.7290  -54.8570 N.pl3  75  ARG75      -0.0865
     35  CZ        10.0210   20.0920  -54.4290 C.cat  75  ARG75       0.5346
     36  NH1       11.0390   19.2520  -54.5300 N.pl3  75  ARG75       0.1354
     37  NH2       10.2130   21.2940  -53.9030 N.pl3  75  ARG75       0.1354
     38  N          3.3570   23.6810  -53.8140 N.3   119  ASP119     -0.1225
     39  CA         4.4790   22.7780  -53.9910 C.3   119  ASP119      0.1805
     40  C          4.0450   21.4550  -53.3840 C.2   119  ASP119      0.2598
     41  O          3.4030   21.4200  -52.3360 O.2   119  ASP119     -0.2718
     42  CB         5.7240   23.3250  -53.2860 C.3   119  ASP119      0.1424
     43  CG         7.0140   22.6860  -53.7800 C.2   119  ASP119      0.3668
     44  OD1        7.0960   22.3370  -54.9740 O.co2 119  ASP119     -0.2456
     45  OD2        7.9630   22.5510  -52.9810 O.co2 119  ASP119     -0.2456
     46  N          4.3670   20.3670  -54.0640 N.am  120  GLY120     -0.1942
     47  CA         3.9920   19.0640  -53.5650 C.3   120  GLY120      0.2014
     48  C          4.3650   18.0130  -54.5800 C.2   120  GLY120      0.2638
     49  O          5.1960   18.2540  -55.4570 O.2   120  GLY120     -0.2714
     50  N          3.7560   16.8420  -54.4720 N.am  121  GLU121     -0.1977
     51  CA         4.0600   15.7900  -55.4150 C.3   121  GLU121      0.1602
     52  C          2.8160   15.1030  -55.9410 C.2   121  GLU121      0.2287
     53  O          1.7140   15.2880  -55.4240 O.2   121  GLU121     -0.2864
     54  CB         5.0200   14.7740  -54.7840 C.3   121  GLU121      0.0415
     55  CG         4.5680   14.1530  -53.4700 C.3   121  GLU121      0.1163
     56  CD         5.6720   13.3290  -52.8100 C.2   121  GLU121      0.3649
     57  OE1        5.4080   12.7060  -51.7620 O.co2 121  GLU121     -0.2457
     58  OE2        6.8080   13.3080  -53.3360 O.co2 121  GLU121     -0.2457
     59  N          2.3010   19.9570  -50.3690 N.3   138  TYR138     -0.1227
     60  CA         3.2940   19.9810  -49.3110 C.3   138  TYR138      0.1736
     61  C          3.4660   21.3820  -48.7490 C.2   138  TYR138      0.2595
     62  O          3.4140   21.5790  -47.5370 O.2   138  TYR138     -0.2718
     63  CB         4.6310   19.4670  -49.8400 C.3   138  TYR138      0.0548
     64  CG         4.7950   17.9820  -49.6850 C.ar  138  TYR138     -0.0200
     65  CD1        5.3510   17.4450  -48.5290 C.ar  138  TYR138     -0.0009
     66  CD2        4.3450   17.1070  -50.6720 C.ar  138  TYR138     -0.0009
     67  CE1        5.4540   16.0690  -48.3530 C.ar  138  TYR138      0.0417
     68  CE2        4.4390   15.7290  -50.5080 C.ar  138  TYR138      0.0417
     69  CZ         4.9930   15.2150  -49.3470 C.ar  138  TYR138      0.1957
     70  OH         5.0780   13.8510  -49.1720 O.3   138  TYR138     -0.2866
     71  N          3.6590   22.3570  -49.6300 N.am  139  ASP139     -0.1974
     72  CA         3.8570   23.7300  -49.1880 C.3   139  ASP139      0.1709
     73  C          3.1260   24.7090  -50.0760 C.2   139  ASP139      0.2293
     74  O          2.4520   24.3150  -51.0230 O.2   139  ASP139     -0.2864
     75  CB         5.3440   24.0770  -49.2070 C.3   139  ASP139      0.1436
     76  CG         5.7820   24.8030  -47.9600 C.2   139  ASP139      0.3671
     77  OD1        5.0220   25.6760  -47.4860 O.co2 139  ASP139     -0.2456
     78  OD2        6.8890   24.5000  -47.4610 O.co2 139  ASP139     -0.2456
     79  N         10.0510   12.6290  -43.4890 N.3   207  ILE207     -0.1245
     80  CA        10.6210   13.8920  -43.9370 C.3   207  ILE207      0.1561
     81  C         10.3700   14.9380  -42.8510 C.2   207  ILE207      0.2260
     82  O          9.2300   15.1630  -42.4460 O.2   207  ILE207     -0.2867
     83  CB        10.0060   14.3510  -45.2770 C.3   207  ILE207      0.0252
     84  CG1       10.7550   15.5780  -45.7870 C.3   207  ILE207      0.0019
     85  CG2        8.5300   14.6720  -45.1110 C.3   207  ILE207      0.0019
     86  CD1       10.2290   16.0950  -47.0890 C.3   207  ILE207      0.0001
     87  N         10.3920   18.7570  -41.7380 N.3   209  GLN209     -0.1245
     88  CA        10.3600   20.1530  -42.1680 C.3   209  GLN209      0.1566
     89  C         10.3970   21.0860  -40.9600 C.2   209  GLN209      0.2260
     90  O          9.6450   20.9020  -40.0000 O.2   209  GLN209     -0.2867
     91  CB         9.0790   20.4230  -42.9710 C.3   209  GLN209      0.0367
     92  CG         9.2680   20.6910  -44.4640 C.3   209  GLN209      0.0905
     93  CD         9.6360   22.1360  -44.7680 C.2   209  GLN209      0.2608
     94  OE1        9.6580   22.5510  -45.9260 O.2   209  GLN209     -0.2717
     95  NE2        9.9290   22.9070  -43.7300 N.am  209  GLN209     -0.0878
     96  N          9.8700   29.4100  -46.2890 N.3   214  TYR214     -0.1241
     97  CA        10.2150   28.7530  -47.5410 C.3   214  TYR214      0.1605
     98  C         11.5040   29.2960  -48.1400 C.2   214  TYR214      0.2264
     99  O         11.7490   30.5020  -48.1350 O.2   214  TYR214     -0.2867
    100  CB         9.0830   28.9130  -48.5590 C.3   214  TYR214      0.0534
    101  CG         9.1480   27.8870  -49.6670 C.ar  214  TYR214     -0.0201
    102  CD1        8.6470   26.6010  -49.4760 C.ar  214  TYR214     -0.0009
    103  CD2        9.7640   28.1830  -50.8840 C.ar  214  TYR214     -0.0009
    104  CE1        8.7590   25.6350  -50.4660 C.ar  214  TYR214      0.0417
    105  CE2        9.8830   27.2200  -51.8830 C.ar  214  TYR214      0.0417
    106  CZ         9.3810   25.9490  -51.6670 C.ar  214  TYR214      0.1957
    107  OH         9.5070   24.9860  -52.6390 O.3   214  TYR214     -0.2866
    108  N         15.9790   20.9610  -44.2540 N.3   222  ILE222     -0.1245
    109  CA        14.9580   19.9230  -44.4260 C.3   222  ILE222      0.1561
    110  C         15.6020   18.5530  -44.5750 C.2   222  ILE222      0.2260
    111  O         16.3260   18.2960  -45.5330 O.2   222  ILE222     -0.2867
    112  CB        14.0980   20.1880  -45.6720 C.3   222  ILE222      0.0252
    113  CG1       13.4250   21.5570  -45.5610 C.3   222  ILE222      0.0019
    114  CG2       13.0540   19.0910  -45.8200 C.3   222  ILE222      0.0019
    115  CD1       12.6980   21.9830  -46.8210 C.3   222  ILE222      0.0001
@<TRIPOS>BOND
     1    30    29    2
     2    29    28    1
     3    27    28    1
     4    28    31    1
     5    31    32    1
     6    32    33    1
     7    52    53    2
     8    52    51    1
     9    49    48    2
    10    33    34    1
    11    51    54    1
    12    51    50    1
    13    44    43   ar
    14    34    35    2
    15    54    55    1
    16    48    50   am
    17    48    47    1
    18    36    35    1
    19    35    37    1
    20    46    47    1
    21    46    40   am
    22    39    38    1
    23    39    40    1
    24    39    42    1
    25    43    42    1
    26    43    45   ar
    27     1     2    1
    28    55    56    1
    29    40    41    2
    30    58    56   ar
    31     4     3    2
    32    56    57   ar
    33   107   106    1
    34     3     2    1
    35     2     5    1
    36   105   106   ar
    37   105   103   ar
    38    25    24    2
    39   106   104   ar
    40    24    23    1
    41    74    73    2
    42   103   101   ar
    43    12     6    1
    44    12    11    1
    45    26    23    1
    46    66    68   ar
    47    66    64   ar
    48    68    69   ar
    49   104   102   ar
    50     6     7    1
    51    59    60    1
    52    23    22    1
    53     9     8    2
    54    73    72    1
    55    63    64    1
    56    63    60    1
    57    64    65   ar
    58   101   102   ar
    59   101   100    1
    60    71    72    1
    61    71    61   am
    62    11    10    1
    63    69    70    1
    64    69    67   ar
    65    60    61    1
    66    20    21    1
    67    20    19    1
    68    22    15   am
    69    75    72    1
    70    75    76    1
    71     8     7    1
    72     7    10    1
    73    61    62    2
    74    16    15    2
    75   100    97    1
    76    65    67   ar
    77    15    14    1
    78    18    19    1
    79    18    17    1
    80    98    99    2
    81    98    97    1
    82    76    77   ar
    83    76    78   ar
    84    97    96    1
    85    14    17    1
    86    14    13    1
    87    86    84    1
    88   115   113    1
    89    94    93    2
    90   114   112    1
    91    84    83    1
    92   112   113    1
    93   112   109    1
    94   111   110    2
    95    83    85    1
    96    83    80    1
    97    93    92    1
    98    93    95   am
    99   110   109    1
   100    92    91    1
   101   109   108    1
   102    80    79    1
   103    80    81    1
   104    91    88    1
   105    81    82    2
   106    88    87    1
   107    88    89    1
   108    89    90    2
