@<TRIPOS>MOLECULE
tmp/3ru0A00.pdb
 187 183 0 0 0
SMALL
GASTEIGER

@<TRIPOS>ATOM
      1  N        -16.2110   15.7640   22.4800 N.3    10  ASN10      -0.1225
      2  CA       -16.8620   15.5250   23.7650 C.3    10  ASN10       0.1785
      3  C        -15.9410   15.5640   24.9860 C.2    10  ASN10       0.2597
      4  O        -16.3680   15.2230   26.0900 O.2    10  ASN10      -0.2718
      5  CB       -17.5510   14.1600   23.7440 C.3    10  ASN10       0.1169
      6  CG       -18.5110   14.0080   22.5830 C.2    10  ASN10       0.2627
      7  OD1      -18.3280   13.1410   21.7280 O.2    10  ASN10      -0.2716
      8  ND2      -19.5380   14.8590   22.5410 N.am   10  ASN10      -0.0877
      9  N        -14.6790   15.9470   24.8090 N.am   11  ARG11      -0.1966
     10  CA       -13.7680   15.8880   25.9490 C.3    11  ARG11       0.1729
     11  C        -12.8740   17.1370   26.0610 C.2    11  ARG11       0.2617
     12  O        -11.7180   17.0490   26.4850 O.2    11  ARG11      -0.2715
     13  CB       -12.9790   14.5660   25.9380 C.3    11  ARG11       0.0348
     14  CG       -12.3530   14.2260   24.5960 C.3    11  ARG11       0.0492
     15  CD       -11.2510   13.2090   24.6730 C.3    11  ARG11       0.2205
     16  NE       -11.7630   11.8480   24.6970 N.pl3  11  ARG11      -0.0865
     17  CZ       -11.0570   10.7730   24.3520 C.cat  11  ARG11       0.5346
     18  NH1       -9.8030   10.8900   23.9270 N.pl3  11  ARG11       0.1354
     19  NH2      -11.6220    9.5740   24.4120 N.pl3  11  ARG11       0.1354
     20  N        -13.4240   18.2980   25.6750 N.am   12  GLY12      -0.1940
     21  CA       -12.7100   19.5790   25.7820 C.3    12  GLY12       0.2014
     22  C        -11.6250   19.7730   24.7460 C.2    12  GLY12       0.2638
     23  O        -11.7730   19.3730   23.5870 O.2    12  GLY12      -0.2714
     24  N        -10.5450   20.4260   25.1430 N.am   13  ASN13      -0.1972
     25  CA        -9.4110   20.5550   24.2450 C.3    13  ASN13       0.1688
     26  C         -8.5500   19.3020   24.3410 C.2    13  ASN13       0.2292
     27  O         -8.6080   18.5860   25.3460 O.2    13  ASN13      -0.2864
     28  CB        -8.6340   21.8190   24.5740 C.3    13  ASN13       0.1181
     29  CG        -9.4900   23.0480   24.4370 C.2    13  ASN13       0.2629
     30  OD1      -10.1850   23.1960   23.4360 O.2    13  ASN13      -0.2716
     31  ND2       -9.5060   23.8920   25.4610 N.am   13  ASN13      -0.0877
     32  N         -0.6520   25.9550   25.9620 N.3   121  TYR121     -0.1241
     33  CA        -1.7950   26.0220   26.8820 C.3   121  TYR121      0.1605
     34  C         -1.2700   26.6470   28.1540 C.2   121  TYR121      0.2264
     35  O         -0.1780   26.2960   28.6030 O.2   121  TYR121     -0.2867
     36  CB        -2.2740   24.6130   27.2140 C.3   121  TYR121      0.0534
     37  CG        -3.7680   24.3900   27.3980 C.ar  121  TYR121     -0.0201
     38  CD1       -4.7010   24.8860   26.4670 C.ar  121  TYR121     -0.0009
     39  CD2       -4.2310   23.5910   28.4450 C.ar  121  TYR121     -0.0009
     40  CE1       -6.0330   24.6250   26.6070 C.ar  121  TYR121      0.0417
     41  CE2       -5.5710   23.3250   28.5920 C.ar  121  TYR121      0.0417
     42  CZ        -6.4640   23.8420   27.6540 C.ar  121  TYR121      0.1957
     43  OH        -7.7900   23.5810   27.7810 O.3   121  TYR121     -0.2866
     44  N         -8.4030   23.2020   32.6610 N.3   127  GLU127     -0.1245
     45  CA        -9.7510   22.7750   32.9770 C.3   127  GLU127      0.1567
     46  C         -9.8940   22.6510   34.4900 C.2   127  GLU127      0.2260
     47  O         -9.0580   22.0240   35.1500 O.2   127  GLU127     -0.2867
     48  CB        -9.9990   21.4080   32.3170 C.3   127  GLU127      0.0388
     49  CG       -11.3810   20.8010   32.6270 C.3   127  GLU127      0.1160
     50  CD       -12.5120   21.6590   32.0900 C.2   127  GLU127      0.3649
     51  OE1      -12.6220   21.7780   30.8500 O.co2 127  GLU127     -0.2457
     52  OE2      -13.2730   22.2290   32.9100 O.co2 127  GLU127     -0.2457
     53  N        -13.1640   21.7760   35.8740 N.3   129  ASN129     -0.1240
     54  CA       -14.3660   20.9450   36.0870 C.3   129  ASN129      0.1653
     55  C        -15.2820   21.4600   37.2220 C.2   129  ASN129      0.2266
     56  O        -15.9090   20.6690   37.9290 O.2   129  ASN129     -0.2867
     57  CB       -13.9620   19.4540   36.2900 C.3   129  ASN129      0.1155
     58  CG       -13.4320   18.8050   35.0080 C.2   129  ASN129      0.2627
     59  OD1      -12.4070   18.1320   35.0180 O.2   129  ASN129     -0.2716
     60  ND2      -14.1140   19.0270   33.9050 N.am  129  ASN129     -0.0877
     61  N        -18.7330   20.2550   37.4970 N.3   132  LYS132     -0.1245
     62  CA       -18.8420   18.8010   37.6620 C.3   132  LYS132      0.1561
     63  C        -18.5250   18.2880   39.0470 C.2   132  LYS132      0.2260
     64  O        -18.8510   17.1330   39.3760 O.2   132  LYS132     -0.2867
     65  CB       -17.9930   18.0850   36.6180 C.3   132  LYS132      0.0271
     66  CG       -18.5120   18.3090   35.2190 C.3   132  LYS132      0.0035
     67  CD       -17.6100   17.7540   34.1570 C.3   132  LYS132      0.0206
     68  CE       -18.3060   17.9000   32.8140 C.3   132  LYS132      0.1093
     69  NZ       -17.5540   17.2240   31.7360 N.3   132  LYS132     -0.1314
     70  N         -7.1010   18.0940   38.6900 N.3   177  CYS177     -0.1221
     71  CA        -7.1520   17.3840   37.4330 C.3   177  CYS177      0.1808
     72  C         -6.0680   17.7460   36.3770 C.2   177  CYS177      0.2601
     73  O         -6.1660   17.3190   35.2220 O.2   177  CYS177     -0.2717
     74  CB        -8.5500   17.4690   36.8400 C.3   177  CYS177      0.0970
     75  SG        -9.0130   19.1170   36.3580 S.3   177  CYS177     -0.0800
     76  N         -5.0540   18.5250   36.7750 N.am  178  ASN178     -0.1974
     77  CA        -3.9430   18.8680   35.9070 C.3   178  ASN178      0.1688
     78  C         -2.5370   18.7530   36.5600 C.2   178  ASN178      0.2292
     79  O         -1.5660   19.2170   35.9950 O.2   178  ASN178     -0.2864
     80  CB        -4.1270   20.2900   35.3590 C.3   178  ASN178      0.1181
     81  CG        -5.4070   20.4500   34.5500 C.2   178  ASN178      0.2629
     82  OD1       -5.4710   20.0490   33.3970 O.2   178  ASN178     -0.2716
     83  ND2       -6.4340   20.9990   35.1630 N.am  178  ASN178     -0.0877
     84  N         -0.7280   19.4360   29.9140 N.3   199  SER199     -0.1202
     85  CA        -2.0880   19.1990   30.4130 C.3   199  SER199      0.2020
     86  C         -3.1670   19.1110   29.3390 C.2   199  SER199      0.2619
     87  O         -4.2770   18.6800   29.6050 O.2   199  SER199     -0.2717
     88  CB        -2.4680   20.2010   31.4870 C.3   199  SER199      0.2103
     89  OG        -1.7580   19.9380   32.6490 O.3   199  SER199     -0.2182
     90  N         -2.8060   19.4520   28.1190 N.am  200  LEU200     -0.1965
     91  CA        -3.6900   19.3760   26.9980 C.3   200  LEU200      0.1728
     92  C         -3.9990   17.9280   26.6400 C.2   200  LEU200      0.2616
     93  O         -5.0800   17.6390   26.1450 O.2   200  LEU200     -0.2715
     94  CB        -3.0220   20.0920   25.8510 C.3   200  LEU200      0.0311
     95  CG        -3.7450   20.7810   24.7360 C.3   200  LEU200      0.0022
     96  CD1       -5.0810   21.4110   25.1640 C.3   200  LEU200      0.0001
     97  CD2       -2.7620   21.7700   24.2060 C.3   200  LEU200      0.0001
     98  N         -3.0820   17.0120   26.9490 N.am  201  LEU201     -0.1963
     99  CA        -3.2730   15.6000   26.5620 C.3   201  LEU201      0.1728
    100  C         -4.4140   14.9500   27.3470 C.2   201  LEU201      0.2616
    101  O         -4.4020   14.9220   28.5940 O.2   201  LEU201     -0.2715
    102  CB        -2.0010   14.7920   26.7250 C.3   201  LEU201      0.0311
    103  CG        -0.7550   15.1250   25.8940 C.3   201  LEU201      0.0022
    104  CD1        0.4810   15.0310   26.7670 C.3   201  LEU201      0.0001
    105  CD2       -0.6130   14.1920   24.8160 C.3   201  LEU201      0.0001
    106  N         -5.4120   14.4380   26.6120 N.am  202  ASN202     -0.1958
    107  CA        -6.4520   13.6170   27.2290 C.3   202  ASN202      0.1819
    108  C         -5.9550   12.2470   27.6270 C.2   202  ASN202      0.2621
    109  O         -4.8800   11.8510   27.2270 O.2   202  ASN202     -0.2715
    110  CB        -7.7330   13.6060   26.3610 C.3   202  ASN202      0.1195
    111  CG        -8.4260   14.9570   26.3710 C.2   202  ASN202      0.2630
    112  OD1       -8.6460   15.5460   27.4390 O.2   202  ASN202     -0.2716
    113  ND2       -8.7810   15.4380   25.2110 N.am  202  ASN202     -0.0877
    114  N         -6.7210   11.5490   28.4700 N.am  203  HIS203     -0.1973
    115  CA        -6.3520   10.2380   28.9890 C.3   203  HIS203      0.1656
    116  C         -6.8170    9.0740   28.1060 C.2   203  HIS203      0.2291
    117  O         -7.8940    9.1200   27.5190 O.2   203  HIS203     -0.2864
    118  CB        -7.0210   10.0500   30.3940 C.3   203  HIS203      0.0771
    119  CG        -6.8420    8.6780   30.9550 C.ar  203  HIS203      0.0820
    120  ND1       -7.7570    7.6690   30.7550 N.ar  203  HIS203     -0.2267
    121  CD2       -5.8390    8.1390   31.6760 C.ar  203  HIS203      0.1154
    122  CE1       -7.3320    6.5740   31.3450 C.ar  203  HIS203      0.1986
    123  NE2       -6.1580    6.8230   31.8870 N.ar  203  HIS203     -0.2212
    124  N         -3.2400    8.5350   32.5570 N.3   236  TYR236     -0.1241
    125  CA        -3.1260    9.2600   33.8440 C.3   236  TYR236      0.1605
    126  C         -2.7800    8.3680   35.0630 C.2   236  TYR236      0.2264
    127  O         -2.3960    8.8920   36.0950 O.2   236  TYR236     -0.2867
    128  CB        -4.3910   10.0280   34.1910 C.3   236  TYR236      0.0534
    129  CG        -4.7780   11.1700   33.2630 C.ar  236  TYR236     -0.0201
    130  CD1       -4.0450   11.4580   32.1060 C.ar  236  TYR236     -0.0009
    131  CD2       -5.9380   11.8920   33.5050 C.ar  236  TYR236     -0.0009
    132  CE1       -4.4450   12.4830   31.2440 C.ar  236  TYR236      0.0417
    133  CE2       -6.3450   12.9350   32.6700 C.ar  236  TYR236      0.0417
    134  CZ        -5.6110   13.2100   31.5320 C.ar  236  TYR236      0.1957
    135  OH        -6.0180   14.2140   30.6910 O.3   236  TYR236     -0.2866
    136  N        -10.9790   13.1070   38.0940 N.3   254  TYR254     -0.1227
    137  CA       -10.9660   13.7780   36.7920 C.3   254  TYR254      0.1736
    138  C        -12.3300   14.1190   36.1950 C.2   254  TYR254      0.2596
    139  O        -12.4240   14.6680   35.0970 O.2   254  TYR254     -0.2718
    140  CB       -10.1370   12.9680   35.7890 C.3   254  TYR254      0.0548
    141  CG        -8.6700   12.9080   36.1500 C.ar  254  TYR254     -0.0200
    142  CD1       -7.8220   13.9710   35.8290 C.ar  254  TYR254     -0.0009
    143  CD2       -8.1290   11.7850   36.7900 C.ar  254  TYR254     -0.0009
    144  CE1       -6.4730   13.9380   36.1730 C.ar  254  TYR254      0.0417
    145  CE2       -6.7670   11.7350   37.1350 C.ar  254  TYR254      0.0417
    146  CZ        -5.9640   12.8110   36.8510 C.ar  254  TYR254      0.1957
    147  OH        -4.6130   12.7890   37.1170 O.3   254  TYR254     -0.2866
    148  N        -13.3780   13.8190   36.9290 N.am  255  CYS255     -0.1956
    149  CA       -14.7310   14.0830   36.4780 C.3   255  CYS255      0.1843
    150  C        -15.1150   13.5130   35.1030 C.2   255  CYS255      0.2625
    151  O        -15.7810   14.1850   34.3180 O.2   255  CYS255     -0.2714
    152  CB       -15.0370   15.5950   36.5910 C.3   255  CYS255      0.0997
    153  SG       -15.0010   16.1470   38.2900 S.3   255  CYS255     -0.0797
    154  N        -14.6930   12.2870   34.7980 N.am  256  PHE256     -0.1960
    155  CA       -15.1770   11.6180   33.5840 C.3   256  PHE256      0.1771
    156  C        -15.3200   10.1030   33.7360 C.2   256  PHE256      0.2619
    157  O        -14.7160    9.5010   34.6140 O.2   256  PHE256     -0.2715
    158  CB       -14.3610   12.0140   32.3210 C.3   256  PHE256      0.0574
    159  CG       -13.0030   11.3580   32.2240 C.ar  256  PHE256     -0.0200
    160  CD1      -12.8330   10.1720   31.5030 C.ar  256  PHE256     -0.0042
    161  CD2      -11.9000   11.9300   32.8310 C.ar  256  PHE256     -0.0042
    162  CE1      -11.5860    9.5860   31.3790 C.ar  256  PHE256     -0.0003
    163  CE2      -10.6210   11.3350   32.7180 C.ar  256  PHE256     -0.0003
    164  CZ       -10.4780   10.1520   31.9930 C.ar  256  PHE256     -0.0000
    165  N        -16.1850    9.5210   32.9150 N.am  257  GLU257     -0.1963
    166  CA       -16.3020    8.0650   32.7710 C.3   257  GLU257      0.1733
    167  C        -15.4210    7.6330   31.6190 C.2   257  GLU257      0.2616
    168  O        -15.6040    8.0720   30.4670 O.2   257  GLU257     -0.2715
    169  CB       -17.7570    7.6620   32.4810 C.3   257  GLU257      0.0429
    170  CG       -18.7880    8.2410   33.4770 C.3   257  GLU257      0.1163
    171  CD       -18.5810    7.7440   34.8990 C.2   257  GLU257      0.3649
    172  OE1      -18.6810    8.5730   35.8320 O.co2 257  GLU257     -0.2457
    173  OE2      -18.3060    6.5310   35.0800 O.co2 257  GLU257     -0.2457
    174  N        -14.4400    6.7860   31.9060 N.am  258  CYS258     -0.1954
    175  CA       -13.5920    6.3090   30.8400 C.3   258  CYS258      0.1843
    176  C        -14.3130    5.2560   29.9900 C.2   258  CYS258      0.2625
    177  O        -14.7440    4.2530   30.5050 O.2   258  CYS258     -0.2714
    178  CB       -12.2750    5.7210   31.3540 C.3   258  CYS258      0.0997
    179  SG       -11.1790    5.5460   29.9890 S.3   258  CYS258     -0.0797
    180  N        -14.3690    5.5210   28.6900 N.am  259  ASP259     -0.1971
    181  CA       -15.0530    4.6640   27.7020 C.3   259  ASP259      0.1709
    182  C        -14.0760    4.0590   26.7390 C.2   259  ASP259      0.2293
    183  O        -14.4470    3.6750   25.6200 O.2   259  ASP259     -0.2864
    184  CB       -16.0520    5.5170   26.8940 C.3   259  ASP259      0.1436
    185  CG       -15.3680    6.6240   26.0550 C.2   259  ASP259      0.3671
    186  OD1      -14.1390    6.8330   26.1480 O.co2 259  ASP259     -0.2456
    187  OD2      -16.0650    7.2930   25.2710 O.co2 259  ASP259     -0.2456
@<TRIPOS>BOND
     1     7     6    2
     2     1     2    1
     3     8     6   am
     4     6     5    1
     5    30    29    2
     6    23    22    2
     7     5     2    1
     8     2     3    1
     9    18    17    1
    10    97    95    1
    11    25    26    1
    12    25    28    1
    13    25    24    1
    14    26    27    2
    15    17    19    1
    16    17    16    2
    17    29    28    1
    18    29    31   am
    19    14    15    1
    20    14    13    1
    21    15    16    1
    22    95    96    1
    23    95    94    1
    24    22    24   am
    25    22    21    1
    26     9     3   am
    27     9    10    1
    28   105   103    1
    29     3     4    2
    30   113   111   am
    31   187   185   ar
    32   183   182    2
    33    20    21    1
    34    20    11   am
    35    94    91    1
    36   103   102    1
    37   103   104    1
    38    13    10    1
    39    10    11    1
    40    32    33    1
    41   185   186   ar
    42   185   184    1
    43    11    12    2
    44    93    92    2
    45   110   111    1
    46   110   107    1
    47   111   112    2
    48    38    40   ar
    49    38    37   ar
    50    99   102    1
    51    99    98    1
    52    99   100    1
    53    40    42   ar
    54   106   107    1
    55   106   100   am
    56    92    98   am
    57    92    91    1
    58   182   181    1
    59    33    36    1
    60    33    34    1
    61   184   181    1
    62    91    90    1
    63    36    37    1
    64   109   108    2
    65   107   108    1
    66   100   101    2
    67    37    39   ar
    68   117   116    2
    69   108   114   am
    70    42    43    1
    71    42    41   ar
    72   181   180    1
    73   116   115    1
    74    90    86   am
    75    34    35    2
    76    39    41   ar
    77   114   115    1
    78   180   176   am
    79   115   118    1
    80    86    87    2
    81    86    85    1
    82    84    85    1
    83   179   178    1
    84   176   177    2
    85   176   175    1
    86   118   119    1
    87    85    88    1
    88   168   167    2
    89   135   134    1
    90   120   119   ar
    91   120   122   ar
    92   175   178    1
    93   175   174    1
    94    51    50   ar
    95   119   121   ar
    96   132   134   ar
    97   132   130   ar
    98   122   123   ar
    99   162   160   ar
   100   162   164   ar
   101    88    89    1
   102   160   159   ar
   103   134   133   ar
   104   167   174   am
   105   167   166    1
   106   121   123   ar
   107    69    68    1
   108   164   163   ar
   109    50    49    1
   110    50    52   ar
   111   130   129   ar
   112   159   158    1
   113   159   161   ar
   114    48    49    1
   115    48    45    1
   116   158   155    1
   117   169   166    1
   118   169   170    1
   119   124   125    1
   120    44    45    1
   121   133   131   ar
   122   163   161   ar
   123   166   165    1
   124    68    67    1
   125   165   156   am
   126    45    46    1
   127   129   131   ar
   128   129   128    1
   129    82    81    2
   130   170   171    1
   131   155   156    1
   132   155   154    1
   133   156   157    2
   134   125   128    1
   135   125   126    1
   136    60    58   am
   137    67    66    1
   138   151   150    2
   139    46    47    2
   140    81    83   am
   141    81    80    1
   142   154   150   am
   143   171   173   ar
   144   171   172   ar
   145    58    59    2
   146    58    57    1
   147   126   127    2
   148   139   138    2
   149   150   149    1
   150    66    65    1
   151    73    72    2
   152    80    77    1
   153   140   141    1
   154   140   137    1
   155   142   141   ar
   156   142   144   ar
   157    53    54    1
   158    77    78    1
   159    77    76    1
   160    79    78    2
   161    54    57    1
   162    54    55    1
   163   141   143   ar
   164   144   146   ar
   165   138   137    1
   166   138   148   am
   167    75    74    1
   168    72    76   am
   169    72    71    1
   170   149   152    1
   171   149   148    1
   172   152   153    1
   173    65    62    1
   174   143   145   ar
   175   137   136    1
   176    74    71    1
   177   146   147    1
   178   146   145   ar
   179    55    56    2
   180    71    70    1
   181    61    62    1
   182    62    63    1
   183    63    64    2
