@<TRIPOS>MOLECULE
tmp/3ru1A00.pdb
 178 169 0 0 0
SMALL
GASTEIGER

@<TRIPOS>ATOM
      1  N         73.4140   55.4830    1.9860 N.3    32  LEU32      -0.1245
      2  CA        72.6650   54.2660    1.7320 C.3    32  LEU32       0.1561
      3  C         71.1810   54.5640    1.4680 C.2    32  LEU32       0.2260
      4  O         70.5400   55.3320    2.1970 O.2    32  LEU32      -0.2867
      5  CB        72.8380   53.2880    2.8950 C.3    32  LEU32       0.0270
      6  CG        72.2220   51.8940    2.7460 C.3    32  LEU32       0.0019
      7  CD1       73.1440   50.8230    3.2840 C.3    32  LEU32       0.0001
      8  CD2       70.8750   51.8240    3.4500 C.3    32  LEU32       0.0001
      9  N         67.5750   53.4010    1.6370 N.3    34  ASP34      -0.1239
     10  CA        66.8670   52.4710    2.5080 C.3    34  ASP34       0.1674
     11  C         65.3480   52.6760    2.5280 C.2    34  ASP34       0.2266
     12  O         64.8410   53.5790    3.2030 O.2    34  ASP34      -0.2867
     13  CB        67.4450   52.5650    3.9290 C.3    34  ASP34       0.1410
     14  CG        66.8100   51.5780    4.8960 C.2    34  ASP34       0.3668
     15  OD1       66.8950   51.8240    6.1090 O.co2  34  ASP34      -0.2456
     16  OD2       66.2280   50.5640    4.4650 O.co2  34  ASP34      -0.2456
     17  N         63.2860   50.7750    3.9930 N.3    36  GLY36      -0.1210
     18  CA        62.7490   50.1790    5.2200 C.3    36  GLY36       0.1956
     19  C         62.9790   50.9880    6.4810 C.2    36  GLY36       0.2613
     20  O         62.8460   50.4660    7.5920 O.2    36  GLY36      -0.2717
     21  N         63.3370   52.2560    6.3040 N.am   37  SER37      -0.1938
     22  CA        63.4110   53.2120    7.3880 C.3    37  SER37       0.2055
     23  C         63.0160   54.5940    6.8590 C.2    37  SER37       0.2644
     24  O         62.8290   54.7690    5.6510 O.2    37  SER37      -0.2714
     25  CB        64.8010   53.2050    8.0530 C.3    37  SER37       0.2130
     26  OG        65.8300   53.7300    7.2240 O.3    37  SER37      -0.2179
     27  N         62.8940   55.5690    7.7550 N.am   38  SER38      -0.1935
     28  CA        62.4020   56.9040    7.3860 C.3    38  SER38       0.2055
     29  C         63.2240   58.0820    7.9250 C.2    38  SER38       0.2643
     30  O         62.8020   59.2270    7.8000 O.2    38  SER38      -0.2714
     31  CB        60.9450   57.0520    7.8260 C.3    38  SER38       0.2130
     32  OG        60.1990   55.9020    7.4500 O.3    38  SER38      -0.2179
     33  N         64.3830   57.8100    8.5220 N.am   39  ASN39      -0.1971
     34  CA        65.2810   58.8790    8.9640 C.3    39  ASN39       0.1688
     35  C         66.4060   59.1220    7.9770 C.2    39  ASN39       0.2292
     36  O         67.0350   58.1730    7.4930 O.2    39  ASN39      -0.2864
     37  CB        65.8950   58.5600   10.3310 C.3    39  ASN39       0.1181
     38  CG        64.9460   58.8450   11.4770 C.2    39  ASN39       0.2629
     39  OD1       64.9790   59.9250   12.0620 O.2    39  ASN39      -0.2716
     40  ND2       64.0990   57.8830   11.7970 N.am   39  ASN39      -0.0877
     41  N         68.1520   55.4650   18.5060 N.3    71  VAL71      -0.1231
     42  CA        67.5750   54.4100   17.6790 C.3    71  VAL71       0.1678
     43  C         68.2340   53.0510   17.9240 C.2    71  VAL71       0.2434
     44  O         69.1760   52.6760   17.2340 O.2    71  VAL71      -0.2733
     45  CB        67.5690   54.7810   16.1560 C.3    71  VAL71       0.0265
     46  CG1       66.8910   53.7020   15.3330 C.3    71  VAL71       0.0020
     47  CG2       66.8700   56.1250   15.9180 C.3    71  VAL71       0.0020
     48  N         67.7270   52.3030   18.9140 N.am   72  PRO72      -0.2718
     49  CA        68.2040   50.9410   19.0800 C.3    72  PRO72       0.1535
     50  C         67.4830   50.0310   18.0930 C.2    72  PRO72       0.2599
     51  O         66.3710   50.3470   17.6720 O.2    72  PRO72      -0.2715
     52  CB        67.8150   50.6080   20.5180 C.3    72  PRO72       0.0310
     53  CG        66.5890   51.4260   20.7730 C.3    72  PRO72       0.0237
     54  CD        66.6880   52.6550   19.8990 C.3    72  PRO72       0.0939
     55  N         68.1320   48.9370   17.7120 N.am   73  TYR73      -0.1960
     56  CA        67.5530   47.9430   16.8010 C.3    73  TYR73       0.1771
     57  C         68.2570   46.6050   17.0270 C.2    73  TYR73       0.2620
     58  O         68.9700   46.4470   18.0180 O.2    73  TYR73      -0.2715
     59  CB        67.6670   48.3940   15.3290 C.3    73  TYR73       0.0574
     60  CG        69.0750   48.7540   14.8880 C.ar   73  TYR73      -0.0198
     61  CD1       69.5240   50.0710   14.9340 C.ar   73  TYR73      -0.0009
     62  CD2       69.9590   47.7750   14.4280 C.ar   73  TYR73      -0.0009
     63  CE1       70.8090   50.4070   14.5320 C.ar   73  TYR73       0.0417
     64  CE2       71.2520   48.1040   14.0230 C.ar   73  TYR73       0.0417
     65  CZ        71.6660   49.4250   14.0850 C.ar   73  TYR73       0.1957
     66  OH        72.9390   49.7600   13.6930 O.3    73  TYR73      -0.2866
     67  N         68.0490   45.6570   16.1120 N.am   74  THR74      -0.1951
     68  CA        68.7100   44.3480   16.1450 C.3    74  THR74       0.1897
     69  C         69.8160   44.2320   15.0730 C.2    74  THR74       0.2313
     70  O         69.5180   44.2440   13.8720 O.2    74  THR74      -0.2863
     71  CB        67.6830   43.1960   15.9260 C.3    74  THR74       0.1794
     72  OG1       66.6030   43.3190   16.8600 O.3    74  THR74      -0.2208
     73  CG2       68.3410   41.8320   16.1030 C.3    74  THR74       0.0378
     74  N         72.0780   53.5140   16.6170 N.3    78  TRP78      -0.1241
     75  CA        72.6990   54.7790   16.3210 C.3    78  TRP78       0.1605
     76  C         71.9360   55.8140   17.1140 C.2    78  TRP78       0.2264
     77  O         70.7740   55.6030   17.4770 O.2    78  TRP78      -0.2867
     78  CB        72.7280   55.0790   14.8120 C.3    78  TRP78       0.0550
     79  CG        71.3910   55.3290   14.1600 C.ar   78  TRP78       0.0003
     80  CD1       70.6150   54.4160   13.4980 C.ar   78  TRP78       0.0946
     81  CD2       70.6860   56.5750   14.0900 C.ar   78  TRP78       0.0152
     82  NE1       69.4760   55.0190   13.0210 N.ar   78  TRP78      -0.2442
     83  CE2       69.4970   56.3440   13.3670 C.ar   78  TRP78       0.0810
     84  CE3       70.9530   57.8690   14.5580 C.ar   78  TRP78       0.0012
     85  CZ2       68.5690   57.3560   13.1120 C.ar   78  TRP78       0.0191
     86  CZ3       70.0360   58.8690   14.3040 C.ar   78  TRP78       0.0001
     87  CH2       68.8560   58.6080   13.5860 C.ar   78  TRP78       0.0015
     88  N         76.6980   49.7640   13.4460 N.3   110  PHE110     -0.1241
     89  CA        75.9040   50.4800   12.4520 C.3   110  PHE110      0.1605
     90  C         76.6940   50.6380   11.1560 C.2   110  PHE110      0.2264
     91  O         76.2950   50.1080   10.1130 O.2   110  PHE110     -0.2867
     92  CB        75.4800   51.8500   13.0010 C.3   110  PHE110      0.0534
     93  CG        74.6530   52.6740   12.0430 C.ar  110  PHE110     -0.0203
     94  CD1       73.3340   52.3200   11.7490 C.ar  110  PHE110     -0.0042
     95  CD2       75.1870   53.8140   11.4490 C.ar  110  PHE110     -0.0042
     96  CE1       72.5660   53.0780   10.8700 C.ar  110  PHE110     -0.0003
     97  CE2       74.4240   54.5820   10.5660 C.ar  110  PHE110     -0.0003
     98  CZ        73.1080   54.2140   10.2800 C.ar  110  PHE110     -0.0000
     99  N         72.5730   57.2580    5.9160 N.3   120  ILE120     -0.1245
    100  CA        71.4480   56.4530    5.4540 C.3   120  ILE120      0.1561
    101  C         70.2500   57.3510    5.1110 C.2   120  ILE120      0.2260
    102  O         69.9430   58.3100    5.8240 O.2   120  ILE120     -0.2867
    103  CB        71.0710   55.3690    6.5010 C.3   120  ILE120      0.0252
    104  CG1       69.9400   54.4800    5.9920 C.3   120  ILE120      0.0019
    105  CG2       70.6710   55.9970    7.8530 C.3   120  ILE120      0.0019
    106  CD1       69.3510   53.5760    7.0610 C.3   120  ILE120      0.0001
    107  N         57.1080   55.6090   10.9220 N.3   128  ILE128     -0.1245
    108  CA        58.2160   54.8440   11.5000 C.3   128  ILE128      0.1561
    109  C         59.4830   55.6840   11.6820 C.2   128  ILE128      0.2260
    110  O         60.5630   55.1590   11.9370 O.2   128  ILE128     -0.2867
    111  CB        58.4960   53.5060   10.7440 C.3   128  ILE128      0.0252
    112  CG1       58.9070   53.7500    9.2900 C.3   128  ILE128      0.0019
    113  CG2       57.2830   52.5560   10.8400 C.3   128  ILE128      0.0019
    114  CD1       59.2670   52.4710    8.5540 C.3   128  ILE128      0.0001
    115  N         61.9550   58.2560   13.6780 N.3   130  ARG130     -0.1245
    116  CA        62.3310   58.4420   15.0690 C.3   130  ARG130      0.1563
    117  C         62.7380   59.8930   15.2930 C.2   130  ARG130      0.2260
    118  O         63.3630   60.4890   14.4180 O.2   130  ARG130     -0.2867
    119  CB        63.4450   57.4760   15.4780 C.3   130  ARG130      0.0307
    120  CG        62.9460   56.0930   15.9140 C.3   130  ARG130      0.0489
    121  CD        62.6250   55.2040   14.7220 C.3   130  ARG130      0.2205
    122  NE        62.6130   53.7890   15.0840 N.pl3 130  ARG130     -0.0865
    123  CZ        61.5260   53.0200   15.1380 C.cat 130  ARG130      0.5346
    124  NH1       61.6510   51.7450   15.4850 N.pl3 130  ARG130      0.1354
    125  NH2       60.3210   53.5060   14.8410 N.pl3 130  ARG130      0.1354
    126  N         55.8880   51.3560    6.6730 N.3   189  TYR189     -0.1241
    127  CA        56.8440   50.7220    5.7740 C.3   189  TYR189      0.1605
    128  C         56.1900   50.7220    4.3920 C.2   189  TYR189      0.2264
    129  O         55.0590   51.1940    4.2460 O.2   189  TYR189     -0.2867
    130  CB        57.1120   49.2780    6.1890 C.3   189  TYR189      0.0534
    131  CG        57.7120   49.0910    7.5640 C.ar  189  TYR189     -0.0201
    132  CD1       59.0890   48.9560    7.7320 C.ar  189  TYR189     -0.0009
    133  CD2       56.8980   49.0250    8.6980 C.ar  189  TYR189     -0.0009
    134  CE1       59.6390   48.7750    8.9990 C.ar  189  TYR189      0.0417
    135  CE2       57.4390   48.8420    9.9660 C.ar  189  TYR189      0.0417
    136  CZ        58.8030   48.7180   10.1090 C.ar  189  TYR189      0.1957
    137  OH        59.3350   48.5450   11.3730 O.3   189  TYR189     -0.2866
    138  N         56.9720   43.5930    3.5800 N.3   217  ILE217     -0.1245
    139  CA        57.4350   44.9160    3.1850 C.3   217  ILE217      0.1561
    140  C         58.4400   44.8180    2.0590 C.2   217  ILE217      0.2260
    141  O         59.0030   43.7570    1.8170 O.2   217  ILE217     -0.2867
    142  CB        58.0240   45.7130    4.3920 C.3   217  ILE217      0.0252
    143  CG1       59.3230   45.0660    4.9080 C.3   217  ILE217      0.0019
    144  CG2       56.9890   45.8390    5.4910 C.3   217  ILE217      0.0019
    145  CD1       60.0930   45.9170    5.9350 C.3   217  ILE217      0.0001
    146  N         62.0040   46.3130    0.9940 N.3   219  ASP219     -0.1239
    147  CA        63.1010   46.9360    1.7180 C.3   219  ASP219      0.1674
    148  C         64.4440   46.8420    1.0010 C.2   219  ASP219      0.2266
    149  O         65.0360   45.7650    0.9030 O.2   219  ASP219     -0.2867
    150  CB        63.2070   46.3210    3.1050 C.3   219  ASP219      0.1410
    151  CG        64.1480   47.0780    4.0020 C.2   219  ASP219      0.3668
    152  OD1       64.6530   48.1580    3.5990 O.co2 219  ASP219     -0.2456
    153  OD2       64.3690   46.5870    5.1210 O.co2 219  ASP219     -0.2456
    154  N         67.1100   48.1280    2.0730 N.3   221  GLY221     -0.1210
    155  CA        68.1330   48.0580    3.1080 C.3   221  GLY221      0.1956
    156  C         68.2950   46.6830    3.7350 C.2   221  GLY221      0.2612
    157  O         68.9320   46.5570    4.7810 O.2   221  GLY221     -0.2717
    158  N         67.7120   45.6600    3.1020 N.am  222  THR222     -0.1952
    159  CA        67.8270   44.2660    3.5420 C.3   222  THR222      0.1897
    160  C         68.3890   43.4400    2.3900 C.2   222  THR222      0.2313
    161  O         67.9740   43.5960    1.2390 O.2   222  THR222     -0.2863
    162  CB        66.4570   43.6860    3.9680 C.3   222  THR222      0.1794
    163  OG1       65.9640   44.3900    5.1120 O.3   222  THR222     -0.2208
    164  CG2       66.5590   42.2110    4.3070 C.3   222  THR222      0.0378
    165  N         59.2830   39.5080   12.3750 N.3   307  THR307     -0.1218
    166  CA        58.5760   40.7550   12.0590 C.3   307  THR307      0.1862
    167  C         57.8040   40.7150   10.7270 C.2   307  THR307      0.2287
    168  O         57.0880   41.6690   10.3940 O.2   307  THR307     -0.2866
    169  CB        59.5120   41.9920   12.1120 C.3   307  THR307      0.1770
    170  OG1       60.7360   41.7160   11.4140 O.3   307  THR307     -0.2211
    171  CG2       59.8150   42.3630   13.5640 C.3   307  THR307      0.0375
    172  N         60.1890   40.0570    4.2970 N.3   310  VAL310     -0.1245
    173  CA        60.9590   41.2030    3.8360 C.3   310  VAL310      0.1561
    174  C         61.4240   40.9220    2.4300 C.2   310  VAL310      0.2260
    175  O         62.1760   39.9790    2.1870 O.2   310  VAL310     -0.2867
    176  CB        62.1770   41.5540    4.7410 C.3   310  VAL310      0.0252
    177  CG1       62.8510   42.8040    4.2290 C.3   310  VAL310      0.0019
    178  CG2       61.7480   41.7780    6.1710 C.3   310  VAL310      0.0019
@<TRIPOS>BOND
     1   149   148    2
     2   146   147    1
     3   148   147    1
     4   161   160    2
     5     3     2    1
     6     3     4    2
     7     9    10    1
     8   147   150    1
     9     2     1    1
    10     2     5    1
    11   141   140    2
    12   140   139    1
    13   154   155    1
    14   175   174    2
    15   160   159    1
    16   174   173    1
    17    10    11    1
    18    10    13    1
    19    11    12    2
    20     6     5    1
    21     6     7    1
    22     6     8    1
    23   158   159    1
    24   158   156   am
    25   150   151    1
    26   155   156    1
    27   139   138    1
    28   139   142    1
    29   159   162    1
    30   152   151   ar
    31   156   157    2
    32   173   172    1
    33   173   176    1
    34    13    14    1
    35   162   164    1
    36   162   163    1
    37    17    18    1
    38   151   153   ar
    39   177   176    1
    40   129   128    2
    41   142   143    1
    42   142   144    1
    43   128   127    1
    44    16    14   ar
    45   176   178    1
    46    14    15   ar
    47   143   145    1
    48   101   100    1
    49   101   102    2
    50    18    19    1
    51   100    99    1
    52   100   103    1
    53    24    23    2
    54   127   130    1
    55   127   126    1
    56   104   103    1
    57   104   106    1
    58   130   131    1
    59    21    19   am
    60    21    22    1
    61    19    20    2
    62   103   105    1
    63    23    22    1
    64    23    27   am
    65    26    25    1
    66    28    27    1
    67    28    31    1
    68    28    29    1
    69    22    25    1
    70    32    31    1
    71    36    35    2
    72   131   132   ar
    73   131   133   ar
    74   132   134   ar
    75    30    29    2
    76    29    33   am
    77    35    34    1
    78    33    34    1
    79   114   112    1
    80   133   135   ar
    81    34    37    1
    82   134   136   ar
    83   112   111    1
    84   135   136   ar
    85   136   137    1
    86    91    90    2
    87    98    97   ar
    88    98    96   ar
    89    37    38    1
    90   168   167    2
    91    97    95   ar
    92   167   166    1
    93   111   113    1
    94   111   108    1
    95    96    94   ar
    96   107   108    1
    97    90    89    1
    98   170   169    1
    99    95    93   ar
   100    38    40   am
   101    38    39    2
   102   108   109    1
   103   109   110    2
   104    94    93   ar
   105    93    92    1
   106   166   169    1
   107   166   165    1
   108   169   171    1
   109    89    92    1
   110    89    88    1
   111    82    83   ar
   112    82    80   ar
   113    85    83   ar
   114    85    87   ar
   115    83    81   ar
   116    80    79   ar
   117    87    86   ar
   118   115   116    1
   119    66    65    1
   120    70    69    2
   121    64    65   ar
   122    64    62   ar
   123    65    63   ar
   124    81    79   ar
   125    81    84   ar
   126    79    78    1
   127    86    84   ar
   128   118   117    2
   129    62    60   ar
   130    63    61   ar
   131   121   122    1
   132   121   120    1
   133    78    75    1
   134   125   123    1
   135    60    61   ar
   136    60    59    1
   137   116   117    1
   138   116   119    1
   139    69    68    1
   140   122   123    2
   141   123   124    1
   142    59    56    1
   143    46    45    1
   144   119   120    1
   145    47    45    1
   146    71    73    1
   147    71    68    1
   148    71    72    1
   149    67    68    1
   150    67    57   am
   151    45    42    1
   152    75    74    1
   153    75    76    1
   154    56    57    1
   155    56    55    1
   156    57    58    2
   157    76    77    2
   158    44    43    2
   159    51    50    2
   160    42    43    1
   161    42    41    1
   162    55    50   am
   163    43    48   am
   164    50    49    1
   165    48    49    1
   166    48    54    1
   167    49    52    1
   168    54    53    1
   169    52    53    1
