@<TRIPOS>MOLECULE
tmp/3ru2A02.pdb
 148 137 0 0 0
SMALL
GASTEIGER

@<TRIPOS>ATOM
      1  N         14.2550   -4.5040  -52.7730 N.3   244  TYR244     -0.1241
      2  CA        14.3010   -4.1090  -51.3670 C.3   244  TYR244      0.1605
      3  C         13.5070   -2.8290  -51.1530 C.2   244  TYR244      0.2264
      4  O         14.0930   -1.7390  -51.0950 O.2   244  TYR244     -0.2867
      5  CB        15.7350   -3.8460  -50.9290 C.3   244  TYR244      0.0534
      6  CG        16.6810   -4.9960  -51.0600 C.ar  244  TYR244     -0.0201
      7  CD1       16.6520   -6.0640  -50.1520 C.ar  244  TYR244     -0.0009
      8  CD2       17.6560   -4.9810  -52.0320 C.ar  244  TYR244     -0.0009
      9  CE1       17.5830   -7.1330  -50.2440 C.ar  244  TYR244      0.0417
     10  CE2       18.5710   -6.0060  -52.1660 C.ar  244  TYR244      0.0417
     11  CZ        18.5450   -7.0890  -51.2450 C.ar  244  TYR244      0.1957
     12  OH        19.4680   -8.0920  -51.3900 O.3   244  TYR244     -0.2866
     13  N         11.5240   -2.1350  -48.4550 N.3   246  GLY246     -0.1210
     14  CA        11.3890   -1.7070  -47.0340 C.3   246  GLY246      0.1956
     15  C         12.5880   -0.9780  -46.4130 C.2   246  GLY246      0.2611
     16  O         12.4300   -0.1210  -45.5360 O.2   246  GLY246     -0.2717
     17  N         13.7980   -1.3090  -46.8390 N.am  247  ALA247     -0.1979
     18  CA        15.0010   -0.6840  -46.2580 C.3   247  ALA247      0.1597
     19  C         14.9250    0.8510  -46.1440 C.2   247  ALA247      0.2287
     20  O         15.3090    1.4190  -45.1180 O.2   247  ALA247     -0.2864
     21  CB        16.2790   -1.1010  -47.0440 C.3   247  ALA247      0.0319
     22  N         12.9410    2.1020  -43.1280 N.3   250  LEU250     -0.1245
     23  CA        13.6760    1.9150  -41.8700 C.3   250  LEU250      0.1561
     24  C         14.7220    2.9910  -41.6600 C.2   250  LEU250      0.2260
     25  O         14.8810    3.4980  -40.5390 O.2   250  LEU250     -0.2867
     26  CB        14.3420    0.5420  -41.8570 C.3   250  LEU250      0.0270
     27  CG        13.3730   -0.6600  -41.9640 C.3   250  LEU250      0.0019
     28  CD1       14.1940   -1.9580  -42.0420 C.3   250  LEU250      0.0001
     29  CD2       12.3760   -0.6620  -40.7170 C.3   250  LEU250      0.0001
     30  N         19.3820   -1.1660  -49.3500 N.3   317  GLY317     -0.1225
     31  CA        18.5060   -1.8020  -50.2850 C.3   317  GLY317      0.1811
     32  C         18.7300   -1.3770  -51.7250 C.2   317  GLY317      0.2280
     33  O         17.8460   -1.5610  -52.5590 O.2   317  GLY317     -0.2866
     34  N         23.2240   -4.6350  -55.8130 N.3   320  ASN320     -0.1240
     35  CA        24.6330   -4.7130  -56.1260 C.3   320  ASN320      0.1653
     36  C         24.7300   -5.1900  -57.5760 C.2   320  ASN320      0.2266
     37  O         24.7760   -6.3760  -57.8170 O.2   320  ASN320     -0.2867
     38  CB        25.2690   -5.7640  -55.2110 C.3   320  ASN320      0.1155
     39  CG        26.7580   -6.0210  -55.5300 C.2   320  ASN320      0.2627
     40  OD1       27.2910   -5.5570  -56.5310 O.2   320  ASN320     -0.2716
     41  ND2       27.4400   -6.7070  -54.6250 N.am  320  ASN320     -0.0877
     42  N         25.6970   -0.5270  -46.6300 N.3   343  ALA343     -0.1231
     43  CA        25.0720   -1.6250  -47.3140 C.3   343  ALA343      0.1694
     44  C         25.5520   -1.7510  -48.7290 C.2   343  ALA343      0.2592
     45  O         26.7500   -1.7540  -48.9860 O.2   343  ALA343     -0.2718
     46  CB        23.5170   -1.4350  -47.2200 C.3   343  ALA343      0.0304
     47  N         24.6330   -1.8670  -49.6730 N.am  344  ASP344     -0.1974
     48  CA        25.0250   -2.0080  -51.0890 C.3   344  ASP344      0.1709
     49  C         25.7950   -0.8280  -51.6990 C.2   344  ASP344      0.2293
     50  O         26.4760   -1.0380  -52.6700 O.2   344  ASP344     -0.2864
     51  CB        23.8070   -2.3230  -51.9400 C.3   344  ASP344      0.1436
     52  CG        23.4060   -3.7900  -51.8670 C.2   344  ASP344      0.3671
     53  OD1       24.2980   -4.6660  -51.8000 O.co2 344  ASP344     -0.2456
     54  OD2       22.1930   -4.0720  -51.9070 O.co2 344  ASP344     -0.2456
     55  N         29.1510   -2.1700  -50.9070 N.3   347  ASN347     -0.1240
     56  CA        29.5060   -3.2910  -51.7950 C.3   347  ASN347      0.1653
     57  C         29.9500   -2.9270  -53.2010 C.2   347  ASN347      0.2266
     58  O         30.5390   -3.7570  -53.8790 O.2   347  ASN347     -0.2867
     59  CB        28.3480   -4.2910  -51.9360 C.3   347  ASN347      0.1155
     60  CG        27.9850   -4.9310  -50.6430 C.2   347  ASN347      0.2627
     61  OD1       28.8370   -5.1560  -49.7710 O.2   347  ASN347     -0.2716
     62  ND2       26.7050   -5.2060  -50.4750 N.am  347  ASN347     -0.0877
     63  N         29.0110   -4.0050  -41.8510 N.3   366  HIS366     -0.1227
     64  CA        29.2450   -5.1950  -41.0430 C.3   366  HIS366      0.1737
     65  C         30.4860   -5.9150  -41.5830 C.2   366  HIS366      0.2438
     66  O         31.0020   -5.5800  -42.6690 O.2   366  HIS366     -0.2733
     67  CB        27.9870   -6.0830  -40.9140 C.3   366  HIS366      0.0758
     68  CG        27.5010   -6.6840  -42.1890 C.ar  366  HIS366      0.0818
     69  ND1       28.2450   -7.5880  -42.9150 N.ar  366  HIS366     -0.2268
     70  CD2       26.3490   -6.5060  -42.8770 C.ar  366  HIS366      0.1154
     71  CE1       27.5600   -7.9560  -43.9830 C.ar  366  HIS366      0.1986
     72  NE2       26.4050   -7.3220  -43.9810 N.ar  366  HIS366     -0.2212
     73  N         31.0100   -6.8700  -40.8230 N.am  367  PRO367     -0.2718
     74  CA        32.2650   -7.4780  -41.1830 C.3   367  PRO367      0.1535
     75  C         32.2540   -8.2050  -42.5440 C.2   367  PRO367      0.2599
     76  O         33.3000   -8.2850  -43.1850 O.2   367  PRO367     -0.2715
     77  CB        32.5070   -8.4800  -40.0390 C.3   367  PRO367      0.0310
     78  CG        31.7870   -7.8910  -38.8770 C.3   367  PRO367      0.0237
     79  CD        30.5800   -7.2670  -39.4630 C.3   367  PRO367      0.0939
     80  N         31.1040   -8.7310  -42.9630 N.am  368  GLY368     -0.1941
     81  CA        31.0190   -9.3570  -44.2930 C.3   368  GLY368      0.2014
     82  C         31.2360   -8.2930  -45.3670 C.2   368  GLY368      0.2638
     83  O         31.9260   -8.5090  -46.3460 O.2   368  GLY368     -0.2714
     84  N         30.6490   -7.1180  -45.1810 N.am  369  GLU369     -0.1977
     85  CA        30.8610   -6.0080  -46.1550 C.3   369  GLU369      0.1602
     86  C         32.2810   -5.4310  -46.1000 C.2   369  GLU369      0.2287
     87  O         32.8820   -5.0870  -47.1160 O.2   369  GLU369     -0.2864
     88  CB        29.8480   -4.8540  -45.8680 C.3   369  GLU369      0.0415
     89  CG        28.4930   -5.1910  -46.3530 C.3   369  GLU369      0.1163
     90  CD        27.3420   -4.4470  -45.6860 C.2   369  GLU369      0.3649
     91  OE1       27.5480   -3.6760  -44.7130 O.co2 369  GLU369     -0.2457
     92  OE2       26.2030   -4.6580  -46.1660 O.co2 369  GLU369     -0.2457
     93  N         34.6980   -7.6540  -47.9510 N.3   372  ARG372     -0.1245
     94  CA        34.6940   -7.4960  -49.4290 C.3   372  ARG372      0.1563
     95  C         35.3510   -6.2060  -49.8790 C.2   372  ARG372      0.2260
     96  O         36.0260   -6.1820  -50.8840 O.2   372  ARG372     -0.2867
     97  CB        33.2810   -7.5900  -49.9950 C.3   372  ARG372      0.0307
     98  CG        32.7680   -9.0400  -49.8280 C.3   372  ARG372      0.0489
     99  CD        31.2180   -9.2260  -49.8820 C.3   372  ARG372      0.2205
    100  NE        30.9670  -10.6490  -50.0930 N.pl3 372  ARG372     -0.0865
    101  CZ        31.1370  -11.2690  -51.2680 C.cat 372  ARG372      0.5346
    102  NH1       31.4830  -10.5890  -52.3770 N.pl3 372  ARG372      0.1354
    103  NH2       30.9330  -12.5780  -51.3400 N.pl3 372  ARG372      0.1354
    104  N         36.4550  -12.4060  -43.5820 N.3   378  VAL378     -0.1245
    105  CA        35.6460  -11.9760  -42.4780 C.3   378  VAL378      0.1561
    106  C         36.4080  -12.1210  -41.1770 C.2   378  VAL378      0.2260
    107  O         36.4150  -11.2090  -40.3900 O.2   378  VAL378     -0.2867
    108  CB        34.3210  -12.7600  -42.4080 C.3   378  VAL378      0.0252
    109  CG1       33.4720  -12.2910  -41.2490 C.3   378  VAL378      0.0019
    110  CG2       33.5140  -12.5520  -43.6810 C.3   378  VAL378      0.0019
    111  N         37.1920   -9.0250  -38.4970 N.3   382  LYS382     -0.1245
    112  CA        36.3020   -8.9610  -37.3670 C.3   382  LYS382      0.1561
    113  C         37.0040   -8.5510  -36.0670 C.2   382  LYS382      0.2260
    114  O         37.9920   -9.1150  -35.6740 O.2   382  LYS382     -0.2867
    115  CB        35.5760  -10.2870  -37.1690 C.3   382  LYS382      0.0271
    116  CG        34.3900  -10.0970  -36.2590 C.3   382  LYS382      0.0035
    117  CD        33.4030  -11.2110  -36.3140 C.3   382  LYS382      0.0206
    118  CE        32.3600  -11.0710  -35.1410 C.3   382  LYS382      0.1093
    119  NZ        32.1440  -12.4470  -34.4980 N.3   382  LYS382     -0.1314
    120  N         30.2980   -2.6780  -37.4900 N.3   402  LYS402     -0.1245
    121  CA        29.2230   -3.1370  -36.6050 C.3   402  LYS402      0.1561
    122  C         29.4310   -4.6120  -36.1660 C.2   402  LYS402      0.2260
    123  O         29.7590   -5.4630  -37.0060 O.2   402  LYS402     -0.2867
    124  CB        27.9230   -3.0570  -37.3810 C.3   402  LYS402      0.0271
    125  CG        27.5460   -1.7030  -37.8410 C.3   402  LYS402      0.0035
    126  CD        26.1680   -1.7050  -38.4550 C.3   402  LYS402      0.0206
    127  CE        26.1780   -2.2540  -39.9110 C.3   402  LYS402      0.1093
    128  NZ        25.0550   -1.6910  -40.6820 N.3   402  LYS402     -0.1314
    129  N         18.0560   -8.6230  -39.9540 N.3   427  GLY427     -0.1210
    130  CA        18.1360   -7.7060  -41.0650 C.3   427  GLY427      0.1956
    131  C         17.2320   -6.5320  -40.8000 C.2   427  GLY427      0.2612
    132  O         16.1260   -6.6830  -40.2860 O.2   427  GLY427     -0.2717
    133  N         17.6770   -5.3520  -41.1540 N.am  428  GLY428     -0.1956
    134  CA        16.8520   -4.1730  -40.9050 C.3   428  GLY428      0.1869
    135  C         17.4690   -3.3230  -39.8170 C.2   428  GLY428      0.2309
    136  O         17.4100   -2.0970  -39.9020 O.2   428  GLY428     -0.2863
    137  N         20.5590   -2.5760  -39.1380 N.3   430  GLY430     -0.1210
    138  CA        21.5710   -1.6990  -39.7210 C.3   430  GLY430      0.1956
    139  C         20.9740   -0.5440  -40.5170 C.2   430  GLY430      0.2611
    140  O         21.5120    0.5750  -40.5310 O.2   430  GLY430     -0.2717
    141  N         19.8880   -0.8050  -41.2220 N.am  431  ASP431     -0.1973
    142  CA        19.2470    0.2350  -42.0050 C.3   431  ASP431      0.1709
    143  C         18.7100    1.3750  -41.0840 C.2   431  ASP431      0.2293
    144  O         18.8120    2.5560  -41.4040 O.2   431  ASP431     -0.2864
    145  CB        18.1290   -0.3510  -42.8510 C.3   431  ASP431      0.1436
    146  CG        18.6010   -1.4780  -43.7950 C.2   431  ASP431      0.3671
    147  OD1       19.6320   -1.3440  -44.4800 O.co2 431  ASP431     -0.2456
    148  OD2       17.9070   -2.5180  -43.8420 O.co2 431  ASP431     -0.2456
@<TRIPOS>BOND
     1    37    36    2
     2    36    35    1
     3    40    39    2
     4    35    34    1
     5    35    38    1
     6    39    38    1
     7    39    41   am
     8    58    57    2
     9    57    56    1
    10     1     2    1
    11    50    49    2
    12    33    32    2
    13   102   101    1
    14    10     8   ar
    15    10    11   ar
    16     8     6   ar
    17    51    52    1
    18    51    48    1
    19    59    56    1
    20    59    60    1
    21    54    52   ar
    22    52    53   ar
    23    56    55    1
    24    32    31    1
    25    49    48    1
    26    12    11    1
    27     2     3    1
    28     2     5    1
    29   103   101    1
    30   101   100    2
    31    11     9   ar
    32     3     4    2
    33    48    47    1
    34     6     5    1
    35     6     7   ar
    36    96    95    2
    37    60    62   am
    38    60    61    2
    39    31    30    1
    40     9     7   ar
    41   100    99    1
    42    97    98    1
    43    97    94    1
    44    99    98    1
    45    95    94    1
    46    47    44   am
    47    94    93    1
    48    45    44    2
    49    44    43    1
    50    13    14    1
    51    43    46    1
    52    43    42    1
    53    87    86    2
    54    21    18    1
    55    14    15    1
    56    17    15   am
    57    17    18    1
    58    15    16    2
    59    89    88    1
    60    89    90    1
    61    83    82    2
    62    18    19    1
    63    92    90   ar
    64    85    86    1
    65    85    88    1
    66    85    84    1
    67    19    20    2
    68    90    91   ar
    69    82    84   am
    70    82    81    1
    71   147   146   ar
    72    81    80    1
    73    71    72   ar
    74    71    69   ar
    75    72    70   ar
    76   148   146   ar
    77   146   145    1
    78   110   108    1
    79   104   105    1
    80    76    75    2
    81    22    23    1
    82    80    75   am
    83    69    68   ar
    84    70    68   ar
    85   145   142    1
    86    66    65    2
    87    75    74    1
    88   105   108    1
    89   105   106    1
    90   108   109    1
    91    68    67    1
    92    28    27    1
    93   142   141    1
    94   142   143    1
    95    27    26    1
    96    27    29    1
    97    23    26    1
    98    23    24    1
    99    63    64    1
   100    24    25    2
   101    65    64    1
   102    65    73   am
   103   144   143    2
   104   141   139   am
   105    74    73    1
   106    74    77    1
   107   106   107    2
   108   133   134    1
   109   133   131   am
   110   130   131    1
   111   130   129    1
   112    64    67    1
   113   134   135    1
   114    73    79    1
   115   131   132    2
   116   128   127    1
   117   140   139    2
   118   139   138    1
   119    77    78    1
   120   127   126    1
   121   136   135    2
   122   138   137    1
   123    79    78    1
   124   111   112    1
   125   126   125    1
   126   125   124    1
   127   120   121    1
   128   124   121    1
   129   112   115    1
   130   112   113    1
   131   115   116    1
   132   123   122    2
   133   121   122    1
   134   117   116    1
   135   117   118    1
   136   113   114    2
   137   118   119    1
