@<TRIPOS>MOLECULE
tmp/3ru9B01.pdb
 149 140 0 0 0
SMALL
GASTEIGER

@<TRIPOS>ATOM
      1  N         23.2110   45.4700  -18.6650 N.3   104  VAL104     -0.1245
      2  CA        22.5710   46.4180  -19.5560 C.3   104  VAL104      0.1561
      3  C         23.2650   47.8170  -19.4930 C.2   104  VAL104      0.2260
      4  O         23.7840   48.3270  -20.5220 O.2   104  VAL104     -0.2867
      5  CB        21.0030   46.4260  -19.3080 C.3   104  VAL104      0.0252
      6  CG1       20.3500   47.6280  -19.9310 C.3   104  VAL104      0.0019
      7  CG2       20.3580   45.1520  -19.8700 C.3   104  VAL104      0.0019
      8  N         18.4640   36.5860  -13.5510 N.3   195  ASN195     -0.1240
      9  CA        18.6900   37.0950  -12.1480 C.3   195  ASN195      0.1653
     10  C         19.2860   36.0990  -11.1450 C.2   195  ASN195      0.2266
     11  O         18.7190   35.8150  -10.1070 O.2   195  ASN195     -0.2867
     12  CB        17.4210   37.7830  -11.5830 C.3   195  ASN195      0.1155
     13  CG        17.0350   39.0210  -12.3900 C.2   195  ASN195      0.2627
     14  OD1       17.5460   40.1220  -12.1410 O.2   195  ASN195     -0.2716
     15  ND2       16.1790   38.8450  -13.3820 N.am  195  ASN195     -0.0877
     16  N         26.7440   46.5220   -9.6460 N.3   208  ALA208     -0.1231
     17  CA        26.4380   45.4280   -8.7470 C.3   208  ALA208      0.1694
     18  C         24.9930   45.0680   -8.9840 C.2   208  ALA208      0.2592
     19  O         24.1530   45.9510   -9.0750 O.2   208  ALA208     -0.2718
     20  CB        26.6420   45.8770   -7.2910 C.3   208  ALA208      0.0304
     21  N         24.7180   43.7810   -9.0760 N.am  209  ALA209     -0.1966
     22  CA        23.3410   43.2770   -9.0650 C.3   209  ALA209      0.1728
     23  C         22.5820   43.4770   -7.7440 C.2   209  ALA209      0.2616
     24  O         23.1880   43.6050   -6.6380 O.2   209  ALA209     -0.2715
     25  CB        23.3320   41.7990   -9.5050 C.3   209  ALA209      0.0334
     26  N         21.2610   43.5390   -7.8630 N.am  210  VAL210     -0.1977
     27  CA        20.3800   43.9100   -6.7630 C.3   210  VAL210      0.1596
     28  C         20.6940   43.2330   -5.4320 C.2   210  VAL210      0.2287
     29  O         20.9230   43.9060   -4.4280 O.2   210  VAL210     -0.2864
     30  CB        18.9020   43.6400   -7.1160 C.3   210  VAL210      0.0276
     31  CG1       18.6290   42.1440   -7.1470 C.3   210  VAL210      0.0022
     32  CG2       17.9840   44.3360   -6.1230 C.3   210  VAL210      0.0022
     33  N         24.2890   44.0980   -3.7930 N.3   213  LYS213     -0.1231
     34  CA        24.3500   45.5440   -3.5210 C.3   213  LYS213      0.1693
     35  C         23.5440   45.8740   -2.2610 C.2   213  LYS213      0.2592
     36  O         24.0470   46.5020   -1.3240 O.2   213  LYS213     -0.2718
     37  CB        23.8230   46.2850   -4.7610 C.3   213  LYS213      0.0285
     38  CG        23.6130   47.7900   -4.6220 C.3   213  LYS213      0.0035
     39  CD        23.5850   48.4200   -6.0070 C.3   213  LYS213      0.0206
     40  CE        23.3740   49.9180   -5.9250 C.3   213  LYS213      0.1093
     41  NZ        23.7570   50.5450   -7.2300 N.3   213  LYS213     -0.1314
     42  N         22.3100   45.3760   -2.2180 N.am  214  TRP214     -0.1976
     43  CA        21.4300   45.6130   -1.0920 C.3   214  TRP214      0.1640
     44  C         21.8980   44.9300    0.1580 C.2   214  TRP214      0.2290
     45  O         21.7090   45.4500    1.2470 O.2   214  TRP214     -0.2864
     46  CB        20.0140   45.1460   -1.4050 C.3   214  TRP214      0.0576
     47  CG        19.2200   46.1290   -2.1950 C.ar  214  TRP214      0.0006
     48  CD1       19.6800   47.2620   -2.8200 C.ar  214  TRP214      0.0946
     49  CD2       17.8370   46.0360   -2.5090 C.ar  214  TRP214      0.0152
     50  NE1       18.6620   47.8780   -3.4850 N.ar  214  TRP214     -0.2442
     51  CE2       17.5140   47.1520   -3.3060 C.ar  214  TRP214      0.0810
     52  CE3       16.8380   45.1080   -2.2020 C.ar  214  TRP214      0.0012
     53  CZ2       16.2270   47.3720   -3.7920 C.ar  214  TRP214      0.0191
     54  CZ3       15.5530   45.3360   -2.6800 C.ar  214  TRP214      0.0001
     55  CH2       15.2590   46.4640   -3.4600 C.ar  214  TRP214      0.0015
     56  N         18.3980   51.6360   -1.9930 N.3   225  TYR225     -0.1241
     57  CA        17.6280   52.2170   -3.0930 C.3   225  TYR225      0.1605
     58  C         16.6210   51.2100   -3.6720 C.2   225  TYR225      0.2264
     59  O         17.0250   50.2700   -4.3770 O.2   225  TYR225     -0.2867
     60  CB        18.5550   52.6890   -4.2420 C.3   225  TYR225      0.0534
     61  CG        19.4500   53.9120   -3.9930 C.ar  225  TYR225     -0.0201
     62  CD1       18.9850   55.0300   -3.2640 C.ar  225  TYR225     -0.0009
     63  CD2       20.7640   53.9600   -4.5230 C.ar  225  TYR225     -0.0009
     64  CE1       19.8200   56.1640   -3.0450 C.ar  225  TYR225      0.0417
     65  CE2       21.6020   55.0800   -4.3200 C.ar  225  TYR225      0.0417
     66  CZ        21.1220   56.1800   -3.5810 C.ar  225  TYR225      0.1957
     67  OH        21.9280   57.2830   -3.3760 O.3   225  TYR225     -0.2866
     68  N         13.9950   51.3090   -6.4520 N.3   227  ASN227     -0.1240
     69  CA        13.5660   52.0870   -7.6360 C.3   227  ASN227      0.1653
     70  C         12.1240   51.7560   -8.0910 C.2   227  ASN227      0.2266
     71  O         11.8100   50.5820   -8.3210 O.2   227  ASN227     -0.2867
     72  CB        14.5550   51.8840   -8.8090 C.3   227  ASN227      0.1155
     73  CG        16.0100   51.9170   -8.3620 C.2   227  ASN227      0.2627
     74  OD1       16.3060   52.3430   -7.2490 O.2   227  ASN227     -0.2716
     75  ND2       16.9250   51.4690   -9.2310 N.am  227  ASN227     -0.0877
     76  N          7.8060   46.0430   -8.2910 N.3   232  THR232     -0.1218
     77  CA         8.4970   45.3700   -9.4290 C.3   232  THR232      0.1862
     78  C          9.0640   43.9820   -9.0940 C.2   232  THR232      0.2287
     79  O          9.4510   43.7340   -7.9370 O.2   232  THR232     -0.2866
     80  CB         9.6190   46.2540  -10.0080 C.3   232  THR232      0.1770
     81  OG1        9.0110   47.4530  -10.4920 O.3   232  THR232     -0.2211
     82  CG2       10.4000   45.5590  -11.1380 C.3   232  THR232      0.0375
     83  N         10.9950   39.9560  -10.2110 N.3   234  ARG234     -0.1245
     84  CA        11.9910   39.1710  -10.9730 C.3   234  ARG234      0.1563
     85  C         11.8970   37.7200  -10.5800 C.2   234  ARG234      0.2260
     86  O         11.3830   37.3830   -9.4970 O.2   234  ARG234     -0.2867
     87  CB        13.4420   39.6350  -10.6750 C.3   234  ARG234      0.0307
     88  CG        13.8320   41.0240  -11.1890 C.3   234  ARG234      0.0489
     89  CD        13.6540   40.9670  -12.6080 C.3   234  ARG234      0.2205
     90  NE        14.3550   41.9580  -13.3940 N.pl3 234  ARG234     -0.0865
     91  CZ        13.8760   43.1700  -13.6810 C.cat 234  ARG234      0.5346
     92  NH1       12.7240   43.5770  -13.1530 N.pl3 234  ARG234      0.1354
     93  NH2       14.5810   43.9790  -14.4760 N.pl3 234  ARG234      0.1354
     94  N         14.2530   35.5170   -9.4270 N.3   236  PHE236     -0.1241
     95  CA        15.5890   35.3480   -8.8460 C.3   236  PHE236      0.1605
     96  C         15.9940   33.8780   -8.7720 C.2   236  PHE236      0.2264
     97  O         15.2820   33.0540   -8.2070 O.2   236  PHE236     -0.2867
     98  CB        15.6960   36.0310   -7.4730 C.3   236  PHE236      0.0534
     99  CG        15.5770   37.5440   -7.5440 C.ar  236  PHE236     -0.0203
    100  CD1       16.6150   38.3150   -8.0820 C.ar  236  PHE236     -0.0042
    101  CD2       14.4370   38.1950   -7.1080 C.ar  236  PHE236     -0.0042
    102  CE1       16.5210   39.7030   -8.1680 C.ar  236  PHE236     -0.0003
    103  CE2       14.3230   39.6090   -7.1600 C.ar  236  PHE236     -0.0003
    104  CZ        15.3680   40.3550   -7.6990 C.ar  236  PHE236     -0.0000
    105  N         10.4960   43.4210   -5.5670 N.3   271  LEU271     -0.1245
    106  CA        11.4000   44.2440   -4.7450 C.3   271  LEU271      0.1561
    107  C         10.9760   44.4720   -3.2640 C.2   271  LEU271      0.2260
    108  O         11.8050   44.2850   -2.3670 O.2   271  LEU271     -0.2867
    109  CB        11.6910   45.5640   -5.4340 C.3   271  LEU271      0.0270
    110  CG        12.3420   45.4740   -6.8020 C.3   271  LEU271      0.0019
    111  CD1       12.9710   46.8050   -7.0920 C.3   271  LEU271      0.0001
    112  CD2       13.3960   44.3780   -6.8350 C.3   271  LEU271      0.0001
    113  N         13.0280   55.6080   -4.7720 N.3   291  ARG291     -0.1245
    114  CA        13.5740   56.6300   -5.6750 C.3   291  ARG291      0.1563
    115  C         13.0320   56.7310   -7.1190 C.2   291  ARG291      0.2260
    116  O         11.9980   57.3530   -7.3640 O.2   291  ARG291     -0.2867
    117  CB        15.1030   56.5220   -5.7170 C.3   291  ARG291      0.0307
    118  CG        15.6300   55.5610   -6.7700 C.3   291  ARG291      0.0489
    119  CD        16.8790   56.1090   -7.4420 C.3   291  ARG291      0.2205
    120  NE        18.0160   55.2040   -7.3030 N.pl3 291  ARG291     -0.0865
    121  CZ        19.0080   55.1100   -8.1820 C.cat 291  ARG291      0.5346
    122  NH1       19.0060   55.8670   -9.2700 N.pl3 291  ARG291      0.1354
    123  NH2       20.0030   54.2580   -7.9740 N.pl3 291  ARG291      0.1354
    124  N         15.1990   53.0100  -13.9680 N.3   294  ARG294     -0.1245
    125  CA        16.4080   52.9910  -14.8020 C.3   294  ARG294      0.1563
    126  C         16.0500   53.0820  -16.2980 C.2   294  ARG294      0.2260
    127  O         14.8950   53.4090  -16.6340 O.2   294  ARG294     -0.2867
    128  CB        17.3060   51.7770  -14.4640 C.3   294  ARG294      0.0307
    129  CG        18.7830   51.8500  -14.9660 C.3   294  ARG294      0.0489
    130  CD        19.8100   51.2180  -13.9630 C.3   294  ARG294      0.2205
    131  NE        20.0660   49.7690  -14.1160 N.pl3 294  ARG294     -0.0865
    132  CZ        19.2510   48.7780  -13.7200 C.cat 294  ARG294      0.5346
    133  NH1       18.0660   49.0270  -13.1530 N.pl3 294  ARG294      0.1354
    134  NH2       19.6220   47.5150  -13.9090 N.pl3 294  ARG294      0.1354
    135  N         15.0730   49.1410  -18.6970 N.3   297  ASP297     -0.1225
    136  CA        14.6490   48.3750  -17.4790 C.3   297  ASP297      0.1805
    137  C         13.1370   47.9510  -17.2960 C.2   297  ASP297      0.2597
    138  O         12.2130   48.7960  -17.3470 O.2   297  ASP297     -0.2718
    139  CB        15.1350   49.0850  -16.2000 C.3   297  ASP297      0.1424
    140  CG        14.7690   48.3140  -14.9400 C.2   297  ASP297      0.3668
    141  OD1       15.1780   47.1440  -14.8740 O.co2 297  ASP297     -0.2456
    142  OD2       14.0660   48.8540  -14.0490 O.co2 297  ASP297     -0.2456
    143  N         12.9340   46.6540  -16.9750 N.am  298  VAL298     -0.1980
    144  CA        11.6260   45.9840  -17.1230 C.3   298  VAL298      0.1595
    145  C         10.7420   45.8250  -15.8630 C.2   298  VAL298      0.2287
    146  O         11.2030   45.7750  -14.7150 O.2   298  VAL298     -0.2864
    147  CB        11.7340   44.6980  -17.9320 C.3   298  VAL298      0.0276
    148  CG1       10.7030   44.7460  -19.0720 C.3   298  VAL298      0.0022
    149  CG2       13.1570   44.5500  -18.5240 C.3   298  VAL298      0.0022
@<TRIPOS>BOND
     1     4     3    2
     2     6     5    1
     3     7     5    1
     4     2     3    1
     5     2     5    1
     6     2     1    1
     7   148   147    1
     8   135   136    1
     9   149   147    1
    10   147   144    1
    11   136   137    1
    12   136   139    1
    13   138   137    2
    14   137   143   am
    15   144   143    1
    16   144   145    1
    17   127   126    2
    18   126   125    1
    19   139   140    1
    20   145   146    2
    21   129   128    1
    22   129   130    1
    23   140   141   ar
    24   140   142   ar
    25   125   128    1
    26   125   124    1
    27    93    91    1
    28   131   130    1
    29   131   132    2
    30   134   132    1
    31   132   133    1
    32    91    90    2
    33    91    92    1
    34     8     9    1
    35    90    89    1
    36    15    13   am
    37    89    88    1
    38    13    14    2
    39    13    12    1
    40     9    12    1
    41     9    10    1
    42    88    87    1
    43    10    11    2
    44    82    80    1
    45    84    87    1
    46    84    85    1
    47    84    83    1
    48    85    86    2
    49    81    80    1
    50    80    77    1
    51    16    17    1
    52    25    22    1
    53    77    78    1
    54    77    76    1
    55    94    95    1
    56   122   121    1
    57    75    73   am
    58    78    79    2
    59    21    22    1
    60    21    18   am
    61    19    18    2
    62    22    23    1
    63    18    17    1
    64    95    96    1
    65    95    98    1
    66    72    73    1
    67    72    69    1
    68    96    97    2
    69    17    20    1
    70    73    74    2
    71    71    70    2
    72   121   123    1
    73   121   120    2
    74   102   100   ar
    75   102   104   ar
    76    70    69    1
    77   100    99   ar
    78    26    23   am
    79    26    27    1
    80    23    24    2
    81   104   103   ar
    82    69    68    1
    83    99    98    1
    84    99   101   ar
    85   119   120    1
    86   119   118    1
    87   116   115    2
    88    41    40    1
    89   103   101   ar
    90    31    30    1
    91   115   114    1
    92    30    27    1
    93    30    32    1
    94   111   110    1
    95   112   110    1
    96   110   109    1
    97   118   117    1
    98    27    28    1
    99    39    40    1
   100    39    38    1
   101   117   114    1
   102   114   113    1
   103   105   106    1
   104   109   106    1
   105    28    29    2
   106    37    38    1
   107    37    34    1
   108   106   107    1
   109    63    65   ar
   110    63    61   ar
   111    59    58    2
   112    65    66   ar
   113    60    61    1
   114    60    57    1
   115    61    62   ar
   116    33    34    1
   117    53    55   ar
   118    53    51   ar
   119    58    57    1
   120    66    67    1
   121    66    64   ar
   122    34    35    1
   123    50    51   ar
   124    50    48   ar
   125    55    54   ar
   126    51    49   ar
   127    62    64   ar
   128   107   108    2
   129    57    56    1
   130    48    47   ar
   131    54    52   ar
   132    49    52   ar
   133    49    47   ar
   134    35    42   am
   135    35    36    2
   136    42    43    1
   137    47    46    1
   138    46    43    1
   139    43    44    1
   140    44    45    2
