@<TRIPOS>MOLECULE
tmp/3ruhA01.pdb
 223 216 0 0 0
SMALL
GASTEIGER

@<TRIPOS>ATOM
      1  N         28.1690   -3.4950    9.6940 N.3   102  GLY102     -0.1210
      2  CA        26.7350   -3.3400    9.9230 C.3   102  GLY102      0.1956
      3  C         26.4410   -1.9250   10.3590 C.2   102  GLY102      0.2613
      4  O         27.3310   -1.0720   10.3330 O.2   102  GLY102     -0.2717
      5  N         25.1990   -1.6780   10.7730 N.am  103  SER103     -0.1938
      6  CA        24.7210   -0.3350   11.1410 C.3   103  SER103      0.2055
      7  C         24.1570    0.4230    9.9430 C.2   103  SER103      0.2643
      8  O         24.8870    0.8730    9.0460 O.2   103  SER103     -0.2714
      9  CB        25.8010    0.4940   11.8440 C.3   103  SER103      0.2130
     10  OG        25.4930    1.8720   11.8050 O.3   103  SER103     -0.2179
     11  N         22.8370    0.5430    9.9440 N.am  104  VAL104     -0.1963
     12  CA        22.1220    1.3620    8.9800 C.3   104  VAL104      0.1712
     13  C         22.6890    2.7980    8.9480 C.2   104  VAL104      0.2458
     14  O         22.9650    3.3120    7.8670 O.2   104  VAL104     -0.2730
     15  CB        20.5800    1.2990    9.2440 C.3   104  VAL104      0.0289
     16  CG1       19.8440    2.4700    8.6100 C.3   104  VAL104      0.0023
     17  CG2       20.0170   -0.0290    8.7600 C.3   104  VAL104      0.0023
     18  N         22.8910    3.4340   10.1280 N.am  105  PRO105     -0.2727
     19  CA        23.4170    4.8060   10.1880 C.3   105  PRO105      0.1402
     20  C         24.8000    4.9890    9.5600 C.2   105  PRO105      0.2269
     21  O         25.0060    5.9360    8.7970 O.2   105  PRO105     -0.2865
     22  CB        23.4990    5.0710   11.6950 C.3   105  PRO105      0.0296
     23  CG        22.4540    4.2560   12.2500 C.3   105  PRO105      0.0237
     24  CD        22.5140    2.9780   11.4790 C.3   105  PRO105      0.0939
     25  N         20.6490   -9.6630    6.2370 N.3   142  SER142     -0.1202
     26  CA        20.0360   -8.6790    7.1290 C.3   142  SER142      0.2020
     27  C         18.5380   -8.5090    6.9230 C.2   142  SER142      0.2619
     28  O         18.0500   -8.5130    5.7900 O.2   142  SER142     -0.2717
     29  CB        20.7410   -7.3250    6.9800 C.3   142  SER142      0.2103
     30  OG        20.0780   -6.3050    7.6980 O.3   142  SER142     -0.2182
     31  N         17.8260   -8.3320    8.0360 N.am  143  SER143     -0.1937
     32  CA        16.3830   -8.0890    8.0330 C.3   143  SER143      0.2055
     33  C         16.0270   -6.7040    7.5000 C.2   143  SER143      0.2643
     34  O         14.8520   -6.3930    7.2870 O.2   143  SER143     -0.2714
     35  CB        15.8090   -8.2550    9.4400 C.3   143  SER143      0.2130
     36  OG        15.7090   -7.0170   10.1390 O.3   143  SER143     -0.2179
     37  N         17.0400   -5.8660    7.3080 N.am  144  SER144     -0.1949
     38  CA        16.8270   -4.5610    6.7150 C.3   144  SER144      0.1924
     39  C         16.5300   -4.7170    5.2260 C.2   144  SER144      0.2314
     40  O         15.9920   -3.8060    4.5990 O.2   144  SER144     -0.2863
     41  CB        18.0340   -3.6500    6.9530 C.3   144  SER144      0.2116
     42  OG        19.2310   -4.2150    6.4440 O.3   144  SER144     -0.2180
     43  N         23.1870    0.3610    3.7710 N.3   166  TYR166     -0.1241
     44  CA        23.4540   -0.8890    4.4730 C.3   166  TYR166      0.1605
     45  C         22.5480   -2.0000    3.9900 C.2   166  TYR166      0.2264
     46  O         22.9890   -3.1270    3.8110 O.2   166  TYR166     -0.2867
     47  CB        23.3130   -0.7410    5.9880 C.3   166  TYR166      0.0534
     48  CG        23.3650   -2.0810    6.6890 C.ar  166  TYR166     -0.0201
     49  CD1       24.5560   -2.7800    6.7940 C.ar  166  TYR166     -0.0009
     50  CD2       22.2100   -2.6650    7.2090 C.ar  166  TYR166     -0.0009
     51  CE1       24.6030   -4.0100    7.4110 C.ar  166  TYR166      0.0417
     52  CE2       22.2500   -3.8990    7.8330 C.ar  166  TYR166      0.0417
     53  CZ        23.4530   -4.5650    7.9310 C.ar  166  TYR166      0.1957
     54  OH        23.5160   -5.7880    8.5430 O.3   166  TYR166     -0.2866
     55  N         19.4520  -11.8480    9.6930 N.3   193  TYR193     -0.1241
     56  CA        19.4000  -11.6560   11.1230 C.3   193  TYR193      0.1605
     57  C         18.4320  -10.5290   11.4810 C.2   193  TYR193      0.2264
     58  O         18.3370   -9.5230   10.7710 O.2   193  TYR193     -0.2867
     59  CB        20.7790  -11.3090   11.6790 C.3   193  TYR193      0.0534
     60  CG        21.8850  -12.3260   11.4990 C.ar  193  TYR193     -0.0201
     61  CD1       23.2160  -11.9120   11.5170 C.ar  193  TYR193     -0.0009
     62  CD2       21.6210  -13.6880   11.3340 C.ar  193  TYR193     -0.0009
     63  CE1       24.2580  -12.8170   11.3680 C.ar  193  TYR193      0.0417
     64  CE2       22.6590  -14.6050   11.1900 C.ar  193  TYR193      0.0417
     65  CZ        23.9770  -14.1580   11.2040 C.ar  193  TYR193      0.1957
     66  OH        25.0310  -15.0340   11.0540 O.3   193  TYR193     -0.2866
     67  N         18.2760   -8.2610   14.5950 N.3   195  ASN195     -0.1240
     68  CA        18.7100   -7.6940   15.8990 C.3   195  ASN195      0.1653
     69  C         19.2020   -8.7290   16.9080 C.2   195  ASN195      0.2266
     70  O         18.5800   -8.9390   17.9510 O.2   195  ASN195     -0.2867
     71  CB        17.5920   -6.8670   16.5600 C.3   195  ASN195      0.1155
     72  CG        16.7580   -6.1140   15.5630 C.2   195  ASN195      0.2627
     73  OD1       15.6890   -6.5750   15.1570 O.2   195  ASN195     -0.2716
     74  ND2       17.2440   -4.9620   15.1390 N.am  195  ASN195     -0.0877
     75  N         27.7330    3.6150   17.1140 N.3   207  TYR207     -0.1227
     76  CA        26.9120    2.6480   16.3850 C.3   207  TYR207      0.1736
     77  C         26.4420    1.4710   17.2130 C.2   207  TYR207      0.2595
     78  O         25.9180    0.5040   16.6550 O.2   207  TYR207     -0.2718
     79  CB        27.6410    2.1380   15.1440 C.3   207  TYR207      0.0548
     80  CG        28.0090    3.2300   14.1770 C.ar  207  TYR207     -0.0200
     81  CD1       27.0690    4.1740   13.7620 C.ar  207  TYR207     -0.0009
     82  CD2       29.2960    3.3160   13.6680 C.ar  207  TYR207     -0.0009
     83  CE1       27.4070    5.1690   12.8750 C.ar  207  TYR207      0.0417
     84  CE2       29.6430    4.3040   12.7690 C.ar  207  TYR207      0.0417
     85  CZ        28.6960    5.2270   12.3800 C.ar  207  TYR207      0.1957
     86  OH        29.0500    6.2110   11.4930 O.3   207  TYR207     -0.2866
     87  N         26.6210    1.5570   18.5310 N.am  208  ALA208     -0.1966
     88  CA        26.1540    0.5240   19.4540 C.3   208  ALA208      0.1728
     89  C         24.7040    0.1270   19.1850 C.2   208  ALA208      0.2616
     90  O         23.8500    0.9860   18.9300 O.2   208  ALA208     -0.2715
     91  CB        26.3100    0.9890   20.8770 C.3   208  ALA208      0.0334
     92  N         24.4520   -1.1800   19.2210 N.am  209  ALA209     -0.1963
     93  CA        23.1070   -1.7240   19.0840 C.3   209  ALA209      0.1728
     94  C         22.3030   -1.4370   20.3590 C.2   209  ALA209      0.2616
     95  O         22.8740   -1.3130   21.4420 O.2   209  ALA209     -0.2715
     96  CB        23.1740   -3.2120   18.8010 C.3   209  ALA209      0.0334
     97  N         20.9830   -1.3250   20.2240 N.am  210  VAL210     -0.1977
     98  CA        20.1150   -0.8700   21.3230 C.3   210  VAL210      0.1596
     99  C         20.3470   -1.5610   22.6770 C.2   210  VAL210      0.2287
    100  O         20.5210   -0.8960   23.6950 O.2   210  VAL210     -0.2864
    101  CB        18.5990   -0.8940   20.9290 C.3   210  VAL210      0.0276
    102  CG1       18.1100   -2.3050   20.6650 C.3   210  VAL210      0.0022
    103  CG2       17.7550   -0.2430   22.0010 C.3   210  VAL210      0.0022
    104  N         23.9710   -0.8490   24.2390 N.3   213  LYS213     -0.1231
    105  CA        23.9700    0.5960   24.4520 C.3   213  LYS213      0.1693
    106  C         23.1980    0.9840   25.7250 C.2   213  LYS213      0.2592
    107  O         23.7320    1.6900   26.5810 O.2   213  LYS213     -0.2718
    108  CB        23.3940    1.3160   23.2210 C.3   213  LYS213      0.0285
    109  CG        23.1770    2.8240   23.3980 C.3   213  LYS213      0.0035
    110  CD        24.1680    3.6740   22.5940 C.3   213  LYS213      0.0206
    111  CE        23.5290    4.2410   21.3250 C.3   213  LYS213      0.1093
    112  NZ        22.4170    5.1740   21.6520 N.3   213  LYS213     -0.1314
    113  N         21.9560    0.5060   25.8390 N.am  214  TRP214     -0.1976
    114  CA        21.0630    0.8370   26.9570 C.3   214  TRP214      0.1640
    115  C         21.5030    0.1960   28.2620 C.2   214  TRP214      0.2290
    116  O         21.3210    0.7720   29.3380 O.2   214  TRP214     -0.2864
    117  CB        19.6280    0.4020   26.6450 C.3   214  TRP214      0.0576
    118  CG        18.8870    1.3120   25.6950 C.ar  214  TRP214      0.0006
    119  CD1       19.3750    2.4240   25.0600 C.ar  214  TRP214      0.0946
    120  CD2       17.5340    1.1600   25.2480 C.ar  214  TRP214      0.0152
    121  NE1       18.4060    2.9790   24.2640 N.ar  214  TRP214     -0.2442
    122  CE2       17.2660    2.2240   24.3570 C.ar  214  TRP214      0.0810
    123  CE3       16.5200    0.2300   25.5170 C.ar  214  TRP214      0.0012
    124  CZ2       16.0240    2.3860   23.7320 C.ar  214  TRP214      0.0191
    125  CZ3       15.2820    0.3920   24.8940 C.ar  214  TRP214      0.0001
    126  CH2       15.0480    1.4640   24.0130 C.ar  214  TRP214      0.0015
    127  N         18.3680    6.4370   25.7090 N.3   225  TYR225     -0.1227
    128  CA        17.8310    7.1810   24.5690 C.3   225  TYR225      0.1736
    129  C         16.8740    6.3910   23.6820 C.2   225  TYR225      0.2595
    130  O         17.2180    5.3120   23.1950 O.2   225  TYR225     -0.2718
    131  CB        18.9690    7.7680   23.7240 C.3   225  TYR225      0.0548
    132  CG        19.3480    9.1830   24.1090 C.ar  225  TYR225     -0.0200
    133  CD1       18.3930   10.2050   24.1130 C.ar  225  TYR225     -0.0009
    134  CD2       20.6640    9.5070   24.4550 C.ar  225  TYR225     -0.0009
    135  CE1       18.7310   11.5070   24.4630 C.ar  225  TYR225      0.0417
    136  CE2       21.0150   10.8160   24.8070 C.ar  225  TYR225      0.0417
    137  CZ        20.0400   11.8050   24.8070 C.ar  225  TYR225      0.1957
    138  OH        20.3670   13.0940   25.1450 O.3   225  TYR225     -0.2866
    139  N         15.6830    6.9490   23.4610 N.am  226  ILE226     -0.1966
    140  CA        14.6720    6.3170   22.6010 C.3   226  ILE226      0.1727
    141  C         14.3930    7.1090   21.3140 C.2   226  ILE226      0.2616
    142  O         13.7770    8.1710   21.3480 O.2   226  ILE226     -0.2715
    143  CB        13.3440    6.0480   23.3560 C.3   226  ILE226      0.0290
    144  CG1       13.6100    5.3090   24.6760 C.3   226  ILE226      0.0022
    145  CG2       12.4000    5.2530   22.4670 C.3   226  ILE226      0.0023
    146  CD1       12.3690    5.0300   25.5140 C.3   226  ILE226      0.0001
    147  N         14.8400    6.5690   20.1840 N.am  227  ASN227     -0.1972
    148  CA        14.6630    7.2120   18.8790 C.3   227  ASN227      0.1688
    149  C         13.2550    7.0410   18.3180 C.2   227  ASN227      0.2292
    150  O         12.8720    5.9480   17.8830 O.2   227  ASN227     -0.2864
    151  CB        15.6990    6.6930   17.8760 C.3   227  ASN227      0.1181
    152  CG        17.0920    6.6620   18.4520 C.2   227  ASN227      0.2629
    153  OD1       17.3920    7.3710   19.4100 O.2   227  ASN227     -0.2716
    154  ND2       17.9510    5.8370   17.8790 N.am  227  ASN227     -0.0877
    155  N          8.5120    1.4650   18.1720 N.3   232  THR232     -0.1218
    156  CA         9.2840    0.7830   17.1440 C.3   232  THR232      0.1862
    157  C          9.6080   -0.6340   17.6330 C.2   232  THR232      0.2287
    158  O         10.3820   -0.8140   18.5800 O.2   232  THR232     -0.2866
    159  CB        10.5550    1.5810   16.7940 C.3   232  THR232      0.1770
    160  OG1       10.2000    2.6810   15.9480 O.3   232  THR232     -0.2211
    161  CG2       11.5750    0.7210   16.0730 C.3   232  THR232      0.0375
    162  N         10.6420   -4.8000   17.4280 N.3   234  ARG234     -0.1245
    163  CA        11.7140   -5.6260   16.8850 C.3   234  ARG234      0.1563
    164  C         11.6190   -7.0910   17.2850 C.2   234  ARG234      0.2260
    165  O         11.0050   -7.4360   18.3010 O.2   234  ARG234     -0.2867
    166  CB        13.0690   -5.0760   17.3270 C.3   234  ARG234      0.0307
    167  CG        13.9160   -4.5090   16.2190 C.3   234  ARG234      0.0489
    168  CD        13.3560   -3.2550   15.6250 C.3   234  ARG234      0.2205
    169  NE        14.2090   -2.7790   14.5470 N.pl3 234  ARG234     -0.0865
    170  CZ        14.0290   -1.6280   13.9150 C.cat 234  ARG234      0.5346
    171  NH1       13.0220   -0.8370   14.2450 N.pl3 234  ARG234      0.1354
    172  NH2       14.8550   -1.2710   12.9480 N.pl3 234  ARG234      0.1354
    173  N         13.9610   -9.4870   18.5860 N.3   236  PHE236     -0.1241
    174  CA        15.2610   -9.6990   19.2050 C.3   236  PHE236      0.1605
    175  C         15.6200  -11.1780   19.3250 C.2   236  PHE236      0.2264
    176  O         14.7900  -12.0140   19.6850 O.2   236  PHE236     -0.2867
    177  CB        15.3200   -8.9890   20.5500 C.3   236  PHE236      0.0534
    178  CG        15.3050   -7.4940   20.4330 C.ar  236  PHE236     -0.0203
    179  CD1       16.4210   -6.8090   19.9510 C.ar  236  PHE236     -0.0042
    180  CD2       14.1820   -6.7660   20.7920 C.ar  236  PHE236     -0.0042
    181  CE1       16.4110   -5.4250   19.8350 C.ar  236  PHE236     -0.0003
    182  CE2       14.1730   -5.3770   20.6840 C.ar  236  PHE236     -0.0003
    183  CZ        15.2850   -4.7100   20.2010 C.ar  236  PHE236     -0.0000
    184  N         10.4680   -0.8300   21.7650 N.3   271  LEU271     -0.1245
    185  CA        11.5330   -0.2390   22.5720 C.3   271  LEU271      0.1561
    186  C         11.0840    0.1360   23.9910 C.2   271  LEU271      0.2260
    187  O         11.8920    0.1170   24.9240 O.2   271  LEU271     -0.2867
    188  CB        12.1240    0.9790   21.8670 C.3   271  LEU271      0.0270
    189  CG        12.8020    0.7670   20.5120 C.3   271  LEU271      0.0019
    190  CD1       13.0050    2.1000   19.8090 C.3   271  LEU271      0.0001
    191  CD2       14.1270    0.0160   20.6500 C.3   271  LEU271      0.0001
    192  N         15.4180    7.6100   14.0090 N.3   294  ARG294     -0.1245
    193  CA        16.6030    7.3870   13.1930 C.3   294  ARG294      0.1563
    194  C         16.1560    7.3230   11.7190 C.2   294  ARG294      0.2260
    195  O         15.1830    6.6370   11.3870 O.2   294  ARG294     -0.2867
    196  CB        17.2880    6.0800   13.6320 C.3   294  ARG294      0.0307
    197  CG        18.7470    5.8750   13.1880 C.3   294  ARG294      0.0489
    198  CD        19.7790    6.6150   14.0700 C.3   294  ARG294      0.2205
    199  NE        19.9040    6.1070   15.4490 N.pl3 294  ARG294     -0.0865
    200  CZ        20.5710    5.0050   15.8150 C.cat 294  ARG294      0.5346
    201  NH1       21.1720    4.2320   14.9140 N.pl3 294  ARG294      0.1354
    202  NH2       20.6250    4.6600   17.1000 N.pl3 294  ARG294      0.1354
    203  N         16.0620    3.9050    9.2970 N.3   297  ASP297     -0.1225
    204  CA        15.5530    2.8830   10.2180 C.3   297  ASP297      0.1805
    205  C         14.1600    2.3540    9.8280 C.2   297  ASP297      0.2597
    206  O         13.2310    3.1360    9.5810 O.2   297  ASP297     -0.2718
    207  CB        15.5480    3.4650   11.6450 C.3   297  ASP297      0.1424
    208  CG        14.6200    2.7200   12.5970 C.2   297  ASP297      0.3668
    209  OD1       14.8840    1.5300   12.8720 O.co2 297  ASP297     -0.2456
    210  OD2       13.6390    3.3340   13.0850 O.co2 297  ASP297     -0.2456
    211  N         14.0300    1.0270    9.7730 N.am  298  VAL298     -0.1980
    212  CA        12.7380    0.3590    9.5250 C.3   298  VAL298      0.1595
    213  C         11.8120    0.5330   10.7360 C.2   298  VAL298      0.2287
    214  O         12.2720    0.5160   11.8790 O.2   298  VAL298     -0.2864
    215  CB        12.9120   -1.1670    9.2280 C.3   298  VAL298      0.0276
    216  CG1       11.6150   -1.7700    8.6750 C.3   298  VAL298      0.0022
    217  CG2       14.0750   -1.4290    8.2610 C.3   298  VAL298      0.0022
    218  N          9.5670   -4.7080   12.9750 N.3   301  SER301     -0.1217
    219  CA        10.1930   -5.9610   12.5430 C.3   301  SER301      0.1889
    220  C          9.7140   -7.1610   13.3660 C.2   301  SER301      0.2288
    221  O          9.7900   -7.1530   14.5970 O.2   301  SER301     -0.2866
    222  CB        11.7160   -5.8510   12.5930 C.3   301  SER301      0.2089
    223  OG        12.3100   -6.4860   11.4720 O.3   301  SER301     -0.2183
@<TRIPOS>BOND
     1    43    44    1
     2    46    45    2
     3    45    44    1
     4    44    47    1
     5    40    39    2
     6    39    38    1
     7    28    27    2
     8    47    48    1
     9    25    26    1
    10    42    41    1
    11    48    49   ar
    12    48    50   ar
    13    38    41    1
    14    38    37    1
    15    49    51   ar
    16    27    26    1
    17    27    31   am
    18    29    26    1
    19    29    30    1
    20    50    52   ar
    21    34    33    2
    22    37    33   am
    23    51    53   ar
    24    33    32    1
    25    52    53   ar
    26    14    13    2
    27    53    54    1
    28    32    31    1
    29    32    35    1
    30   217   215    1
    31    16    15    1
    32   216   215    1
    33    17    15    1
    34    21    20    2
    35    13    12    1
    36    13    18   am
    37    12    15    1
    38    12    11    1
    39     8     7    2
    40   215   212    1
    41   203   204    1
    42    35    36    1
    43   212   211    1
    44   212   213    1
    45    20    19    1
    46   206   205    2
    47    55    56    1
    48     1     2    1
    49   211   205   am
    50   205   204    1
    51     2     3    1
    52     7    11   am
    53     7     6    1
    54    18    19    1
    55    18    24    1
    56    19    22    1
    57   204   207    1
    58     4     3    2
    59     3     5   am
    60   213   214    2
    61    58    57    2
    62     5     6    1
    63    66    65    1
    64    56    57    1
    65    56    59    1
    66     6     9    1
    67    64    65   ar
    68    64    62   ar
    69    65    63   ar
    70    62    60   ar
    71    63    61   ar
    72   195   194    2
    73   223   222    1
    74    24    23    1
    75    86    85    1
    76    60    61   ar
    77    60    59    1
    78   207   208    1
    79    22    23    1
    80   194   193    1
    81    10     9    1
    82    85    84   ar
    83    85    83   ar
    84   219   222    1
    85   219   218    1
    86   219   220    1
    87   208   209   ar
    88   208   210   ar
    89    84    82   ar
    90    83    81   ar
    91   172   170    1
    92   197   196    1
    93   197   198    1
    94   193   196    1
    95   193   192    1
    96   220   221    2
    97    82    80   ar
    98    81    80   ar
    99   170   171    1
   100   170   169    2
   101   198   199    1
   102    80    79    1
   103   169   168    1
   104    67    68    1
   105   201   200    1
   106    74    72   am
   107    79    76    1
   108    73    72    2
   109   199   200    2
   110    72    71    1
   111   168   167    1
   112   200   202    1
   113    68    71    1
   114    68    69    1
   115   160   159    1
   116   161   159    1
   117   167   166    1
   118    76    75    1
   119    76    77    1
   120    78    77    2
   121   159   156    1
   122   163   164    1
   123   163   166    1
   124   163   162    1
   125    69    70    2
   126   156   157    1
   127   156   155    1
   128    77    87   am
   129   164   165    2
   130   157   158    2
   131   151   152    1
   132   151   148    1
   133   154   152   am
   134   150   149    2
   135   149   148    1
   136   152   153    2
   137    87    88    1
   138   173   174    1
   139    96    93    1
   140   148   147    1
   141    90    89    2
   142    93    92    1
   143    93    94    1
   144    89    92   am
   145    89    88    1
   146   174   175    1
   147   174   177    1
   148   175   176    2
   149    88    91    1
   150   190   189    1
   151   181   179   ar
   152   181   183   ar
   153   179   178   ar
   154   147   141   am
   155   183   182   ar
   156    97    94   am
   157    97    98    1
   158    94    95    2
   159   178   177    1
   160   178   180   ar
   161   189   191    1
   162   189   188    1
   163   102   101    1
   164   182   180   ar
   165   101    98    1
   166   101   103    1
   167   141   142    2
   168   141   140    1
   169    98    99    1
   170   111   112    1
   171   111   110    1
   172   184   185    1
   173   188   185    1
   174   145   143    1
   175   185   186    1
   176   110   109    1
   177   140   143    1
   178   140   139    1
   179    99   100    2
   180   130   129    2
   181   108   109    1
   182   108   105    1
   183   143   144    1
   184   139   129   am
   185   129   128    1
   186   131   132    1
   187   131   128    1
   188   124   126   ar
   189   124   122   ar
   190   186   187    2
   191   126   125   ar
   192   132   133   ar
   193   132   134   ar
   194   133   135   ar
   195   104   105    1
   196   121   122   ar
   197   121   119   ar
   198   122   120   ar
   199   105   106    1
   200   134   136   ar
   201   135   137   ar
   202   128   127    1
   203   144   146    1
   204   136   137   ar
   205   137   138    1
   206   125   123   ar
   207   119   118   ar
   208   120   123   ar
   209   120   118   ar
   210   118   117    1
   211   106   113   am
   212   106   107    2
   213   113   114    1
   214   117   114    1
   215   114   115    1
   216   115   116    2
