@<TRIPOS>MOLECULE
tmp/3rumA00.pdb
 146 137 0 0 0
SMALL
GASTEIGER

@<TRIPOS>ATOM
      1  N        -17.9650  -19.1910    4.8960 N.3    46  GLU46      -0.1245
      2  CA       -17.9090  -19.0270    3.4470 C.3    46  GLU46       0.1567
      3  C        -18.3350  -20.3010    2.7170 C.2    46  GLU46       0.2260
      4  O        -18.9500  -20.2380    1.6560 O.2    46  GLU46      -0.2867
      5  CB       -16.4890  -18.6540    3.0120 C.3    46  GLU46       0.0388
      6  CG       -15.9580  -17.3860    3.6630 C.3    46  GLU46       0.1160
      7  CD       -14.4850  -17.1550    3.3590 C.2    46  GLU46       0.3649
      8  OE1      -13.7820  -16.5810    4.2200 O.co2  46  GLU46      -0.2457
      9  OE2      -14.0330  -17.5520    2.2600 O.co2  46  GLU46      -0.2457
     10  N        -23.0190  -21.6520    2.2870 N.3    49  PRO49      -0.2102
     11  CA       -24.0930  -21.4420    1.3050 C.3    49  PRO49       0.1504
     12  C        -24.0900  -22.4330    0.1360 C.2    49  PRO49       0.2575
     13  O        -25.1510  -22.9140   -0.2670 O.2    49  PRO49      -0.2718
     14  CB       -23.8170  -20.0290    0.7830 C.3    49  PRO49       0.0282
     15  CG       -23.0570  -19.3680    1.8670 C.3    49  PRO49       0.0208
     16  CD       -22.2150  -20.4340    2.4900 C.3    49  PRO49       0.0893
     17  N        -22.9180  -22.7190   -0.4130 N.am   50  GLN50      -0.1980
     18  CA       -22.8520  -23.5370   -1.6150 C.3    50  GLN50       0.1601
     19  C        -22.9550  -25.0280   -1.3470 C.2    50  GLN50       0.2287
     20  O        -23.1400  -25.8030   -2.2800 O.2    50  GLN50      -0.2864
     21  CB       -21.5820  -23.2380   -2.4070 C.3    50  GLN50       0.0394
     22  CG       -21.6520  -21.9320   -3.1780 C.3    50  GLN50       0.0908
     23  CD       -20.5000  -21.7920   -4.1310 C.2    50  GLN50       0.2608
     24  OE1      -19.4180  -22.3200   -3.8830 O.2    50  GLN50      -0.2717
     25  NE2      -20.7190  -21.0860   -5.2330 N.am   50  GLN50      -0.0878
     26  N        -27.4970  -26.9350    0.5200 N.3    53  ALA53      -0.1245
     27  CA       -28.7000  -27.4990   -0.0840 C.3    53  ALA53       0.1562
     28  C        -28.5640  -28.9650   -0.4540 C.2    53  ALA53       0.2260
     29  O        -29.4450  -29.7720   -0.1540 O.2    53  ALA53      -0.2867
     30  CB       -29.1120  -26.6890   -1.3040 C.3    53  ALA53       0.0290
     31  N        -23.6690  -12.9510    9.5640 N.3    67  ARG67      -0.1245
     32  CA       -23.7060  -13.6960    8.3010 C.3    67  ARG67       0.1563
     33  C        -25.0870  -14.2690    8.0110 C.2    67  ARG67       0.2260
     34  O        -25.3680  -14.6980    6.8940 O.2    67  ARG67      -0.2867
     35  CB       -22.7290  -14.8780    8.3450 C.3    67  ARG67       0.0307
     36  CG       -21.2610  -14.4890    8.3550 C.3    67  ARG67       0.0489
     37  CD       -20.7410  -14.1920    6.9650 C.3    67  ARG67       0.2205
     38  NE       -19.3160  -13.8640    6.9980 N.pl3  67  ARG67      -0.0865
     39  CZ       -18.4750  -14.0710    5.9870 C.cat  67  ARG67       0.5346
     40  NH1      -18.9150  -14.6130    4.8530 N.pl3  67  ARG67       0.1354
     41  NH2      -17.1880  -13.7460    6.1080 N.pl3  67  ARG67       0.1354
     42  N        -27.9650  -12.8960    5.3430 N.3    70  GLY70      -0.1210
     43  CA       -27.6560  -13.3260    3.9890 C.3    70  GLY70       0.1956
     44  C        -28.0670  -14.7740    3.7180 C.2    70  GLY70       0.2611
     45  O        -28.6670  -15.0840    2.6820 O.2    70  GLY70      -0.2717
     46  N        -27.7320  -15.6710    4.6390 N.am   71  TYR71      -0.1976
     47  CA       -28.1750  -17.0600    4.5380 C.3    71  TYR71       0.1639
     48  C        -29.6990  -17.1120    4.4340 C.2    71  TYR71       0.2290
     49  O        -30.2480  -17.8120    3.5860 O.2    71  TYR71      -0.2864
     50  CB       -27.7650  -17.8680    5.7620 C.3    71  TYR71       0.0560
     51  CG       -26.2760  -18.0410    5.9900 C.ar   71  TYR71      -0.0198
     52  CD1      -25.3470  -17.7750    4.9860 C.ar   71  TYR71      -0.0009
     53  CD2      -25.8030  -18.4700    7.2210 C.ar   71  TYR71      -0.0009
     54  CE1      -23.9830  -17.9260    5.2160 C.ar   71  TYR71       0.0417
     55  CE2      -24.4410  -18.6300    7.4570 C.ar   71  TYR71       0.0417
     56  CZ       -23.5470  -18.3520    6.4530 C.ar   71  TYR71       0.1957
     57  OH       -22.2130  -18.5150    6.6960 O.3    71  TYR71      -0.2866
     58  N        -31.8880  -14.8130    3.4980 N.3    73  GLN73      -0.1231
     59  CA       -32.3460  -14.2660    2.2240 C.3    73  GLN73       0.1698
     60  C        -32.3330  -15.3230    1.1250 C.2    73  GLN73       0.2592
     61  O        -33.2040  -15.3230    0.2670 O.2    73  GLN73      -0.2718
     62  CB       -31.5020  -13.0570    1.8130 C.3    73  GLN73       0.0381
     63  CG       -31.9320  -12.4220    0.4940 C.3    73  GLN73       0.0905
     64  CD       -31.1070  -11.2010    0.1370 C.2    73  GLN73       0.2608
     65  OE1      -29.8820  -11.2770   -0.0140 O.2    73  GLN73      -0.2717
     66  NE2      -31.7740  -10.0680   -0.0080 N.am   73  GLN73      -0.0878
     67  N        -31.3480  -16.2220    1.1510 N.am   74  SER74      -0.1952
     68  CA       -31.2680  -17.2980    0.1660 C.3    74  SER74       0.1924
     69  C        -32.0400  -18.5510    0.5660 C.2    74  SER74       0.2314
     70  O        -31.8950  -19.5930   -0.0690 O.2    74  SER74      -0.2863
     71  CB       -29.8100  -17.6830   -0.0960 C.3    74  SER74       0.2116
     72  OG       -29.1140  -16.6190   -0.7050 O.3    74  SER74      -0.2180
     73  N        -31.7030  -20.4550    3.2180 N.3    76  LEU76      -0.1245
     74  CA       -30.8130  -21.5220    3.6900 C.3    76  LEU76       0.1561
     75  C        -30.9860  -21.9080    5.1590 C.2    76  LEU76       0.2260
     76  O        -30.4920  -22.9470    5.5900 O.2    76  LEU76      -0.2867
     77  CB       -29.3560  -21.1450    3.4250 C.3    76  LEU76       0.0270
     78  CG       -29.0070  -20.8720    1.9610 C.3    76  LEU76       0.0019
     79  CD1      -27.5540  -20.4180    1.8120 C.3    76  LEU76       0.0001
     80  CD2      -29.2640  -22.0970    1.1020 C.3    76  LEU76       0.0001
     81  N        -28.0920   -8.7530    4.6190 N.3   335  PRO335     -0.2116
     82  CA       -27.2710   -9.5110    3.6700 C.3   335  PRO335      0.1372
     83  C        -26.0410   -8.7230    3.2310 C.2   335  PRO335      0.2244
     84  O        -25.0420   -9.3170    2.8140 O.2   335  PRO335     -0.2868
     85  CB       -28.2200   -9.7230    2.4850 C.3   335  PRO335      0.0268
     86  CG       -29.5950   -9.7340    3.1050 C.3   335  PRO335      0.0207
     87  CD       -29.5110   -8.7000    4.2210 C.3   335  PRO335      0.0892
     88  N        -21.6510   -8.9250    4.3280 N.3   338  SER338     -0.1202
     89  CA       -20.4580   -9.5350    3.7340 C.3   338  SER338      0.2020
     90  C        -19.7630   -8.6070    2.7240 C.2   338  SER338      0.2618
     91  O        -18.5400   -8.5960    2.6550 O.2   338  SER338     -0.2717
     92  CB       -20.7240  -10.9300    3.1600 C.3   338  SER338      0.2103
     93  OG       -21.7750  -10.8900    2.2330 O.3   338  SER338     -0.2182
     94  N        -20.5350   -7.7980    1.9980 N.am  339  ALA339     -0.1979
     95  CA       -19.9550   -6.8240    1.0760 C.3   339  ALA339      0.1597
     96  C        -19.1990   -5.7570    1.8650 C.2   339  ALA339      0.2287
     97  O        -18.1030   -5.3510    1.4900 O.2   339  ALA339     -0.2864
     98  CB       -21.0250   -6.1980    0.2290 C.3   339  ALA339      0.0319
     99  N        -15.9140   -7.1790    3.2640 N.3   342  TYR342     -0.1241
    100  CA       -14.9970   -7.3390    2.1360 C.3   342  TYR342      0.1605
    101  C        -14.3850   -6.0000    1.7190 C.2   342  TYR342      0.2264
    102  O        -13.2060   -5.9210    1.3990 O.2   342  TYR342     -0.2867
    103  CB       -15.7520   -7.9590    0.9630 C.3   342  TYR342      0.0534
    104  CG       -14.9360   -8.1630   -0.2900 C.ar  342  TYR342     -0.0201
    105  CD1      -13.7320   -8.8500   -0.2570 C.ar  342  TYR342     -0.0009
    106  CD2      -15.3910   -7.7010   -1.5110 C.ar  342  TYR342     -0.0009
    107  CE1      -12.9920   -9.0460   -1.4130 C.ar  342  TYR342      0.0417
    108  CE2      -14.6620   -7.8850   -2.6660 C.ar  342  TYR342      0.0417
    109  CZ       -13.4650   -8.5590   -2.6140 C.ar  342  TYR342      0.1957
    110  OH       -12.7410   -8.7480   -3.7740 O.3   342  TYR342     -0.2866
    111  N        -17.6410    0.4540   -3.1680 N.3   368  ASN368     -0.1240
    112  CA       -17.8870   -0.9740   -3.2950 C.3   368  ASN368      0.1653
    113  C        -18.9470   -1.4860   -2.3250 C.2   368  ASN368      0.2266
    114  O        -19.8350   -2.2410   -2.7130 O.2   368  ASN368     -0.2867
    115  CB       -16.5840   -1.7510   -3.1280 C.3   368  ASN368      0.1155
    116  CG       -15.5500   -1.3680   -4.1730 C.2   368  ASN368      0.2627
    117  OD1      -15.8970   -0.8450   -5.2330 O.2   368  ASN368     -0.2716
    118  ND2      -14.2760   -1.6240   -3.8800 N.am  368  ASN368     -0.0877
    119  N        -22.4250   -0.7780   -3.6350 N.3   371  ALA371     -0.1231
    120  CA       -22.8400   -1.3560   -4.9110 C.3   371  ALA371      0.1694
    121  C        -24.0440   -2.2760   -4.7250 C.2   371  ALA371      0.2592
    122  O        -24.0810   -3.1040   -3.8130 O.2   371  ALA371     -0.2718
    123  CB       -21.6910   -2.1010   -5.5570 C.3   371  ALA371      0.0304
    124  N        -25.0400   -2.1210   -5.5860 N.am  372  ALA372     -0.1966
    125  CA       -26.2390   -2.9390   -5.4900 C.3   372  ALA372      0.1728
    126  C        -25.8800   -4.4010   -5.7270 C.2   372  ALA372      0.2616
    127  O        -24.9650   -4.7000   -6.4890 O.2   372  ALA372     -0.2715
    128  CB       -27.2900   -2.4670   -6.4900 C.3   372  ALA372      0.0334
    129  N        -26.5970   -5.3050   -5.0640 N.am  373  ALA373     -0.1963
    130  CA       -26.3150   -6.7360   -5.1540 C.3   373  ALA373      0.1728
    131  C        -27.5600   -7.5540   -4.8220 C.2   373  ALA373      0.2616
    132  O        -28.3090   -7.2020   -3.9090 O.2   373  ALA373     -0.2715
    133  CB       -25.1710   -7.1110   -4.2130 C.3   373  ALA373      0.0334
    134  N        -27.7810   -8.6370   -5.5680 N.am  374  GLY374     -0.1955
    135  CA       -28.9140   -9.5170   -5.3350 C.3   374  GLY374      0.1869
    136  C        -28.5600  -10.6150   -4.3550 C.2   374  GLY374      0.2309
    137  O        -27.4860  -10.5930   -3.7700 O.2   374  GLY374     -0.2863
    138  N        -27.7220  -13.7130   -4.6320 N.3   375  LYS375     -0.1245
    139  CA       -26.8700  -14.8370   -5.0290 C.3   375  LYS375      0.1561
    140  C        -25.3830  -14.5090   -5.1620 C.2   375  LYS375      0.2260
    141  O        -24.6020  -15.3810   -5.5350 O.2   375  LYS375     -0.2867
    142  CB       -27.3710  -15.4980   -6.3190 C.3   375  LYS375      0.0271
    143  CG       -28.7210  -16.2200   -6.2050 C.3   375  LYS375      0.0035
    144  CD       -29.0530  -16.9280   -7.5210 C.3   375  LYS375      0.0206
    145  CE       -30.4880  -17.4480   -7.5710 C.3   375  LYS375      0.1093
    146  NZ       -30.6280  -18.7910   -6.9410 N.3   375  LYS375     -0.1314
@<TRIPOS>BOND
     1   145   144    1
     2   145   146    1
     3   144   143    1
     4   128   125    1
     5   127   126    2
     6   142   143    1
     7   142   139    1
     8   126   125    1
     9   126   129   am
    10   124   125    1
    11   124   121   am
    12   134   135    1
    13   134   131   am
    14   123   120    1
    15   141   140    2
    16   135   136    1
    17    25    23   am
    18   117   116    2
    19   140   139    1
    20   130   129    1
    21   130   131    1
    22   130   133    1
    23   139   138    1
    24   120   121    1
    25   120   119    1
    26   131   132    2
    27   121   122    2
    28   136   137    2
    29   116   118   am
    30   116   115    1
    31    23    24    2
    32    23    22    1
    33   110   109    1
    34   112   111    1
    35   112   115    1
    36   112   113    1
    37    22    21    1
    38   114   113    2
    39   108   109   ar
    40   108   106   ar
    41   109   107   ar
    42    21    18    1
    43    20    19    2
    44    18    19    1
    45    18    17    1
    46   106   104   ar
    47   107   105   ar
    48    30    27    1
    49    72    71    1
    50    28    29    2
    51    28    27    1
    52    17    12   am
    53   104   105   ar
    54   104   103    1
    55    13    12    2
    56    71    68    1
    57    27    26    1
    58    70    69    2
    59    65    64    2
    60    66    64   am
    61    12    11    1
    62    64    63    1
    63    68    69    1
    64    68    67    1
    65    98    95    1
    66    61    60    2
    67    63    62    1
    68    14    11    1
    69    14    15    1
    70   103   100    1
    71    95    96    1
    72    95    94    1
    73    80    78    1
    74    60    67   am
    75    60    59    1
    76    11    10    1
    77   102   101    2
    78    97    96    2
    79     4     3    2
    80   101   100    1
    81    79    78    1
    82    62    59    1
    83    15    16    1
    84    78    77    1
    85    94    90   am
    86   100    99    1
    87    59    58    1
    88    93    92    1
    89     9     7   ar
    90    10    16    1
    91    85    86    1
    92    85    82    1
    93    91    90    2
    94    45    44    2
    95     3     2    1
    96    90    89    1
    97    84    83    2
    98     5     2    1
    99     5     6    1
   100    86    87    1
   101    92    89    1
   102    73    74    1
   103    83    82    1
   104     7     6    1
   105     7     8   ar
   106    77    74    1
   107     2     1    1
   108    49    48    2
   109    82    81    1
   110    74    75    1
   111    44    43    1
   112    44    46   am
   113    89    88    1
   114    43    42    1
   115    87    81    1
   116    48    47    1
   117    47    46    1
   118    47    50    1
   119    40    39    1
   120    52    54   ar
   121    52    51   ar
   122    75    76    2
   123    54    56   ar
   124    50    51    1
   125    39    41    1
   126    39    38    2
   127    51    53   ar
   128    56    57    1
   129    56    55   ar
   130    34    33    2
   131    37    38    1
   132    37    36    1
   133    53    55   ar
   134    33    32    1
   135    32    35    1
   136    32    31    1
   137    35    36    1
