@<TRIPOS>MOLECULE
tmp/3runA02.pdb
 95 89 0 0 0
SMALL
GASTEIGER

@<TRIPOS>ATOM
      1  N         28.9580  -30.9480    5.7440 N.3    11  GLU11      -0.1245
      2  CA        28.0300  -30.2190    4.8730 C.3    11  GLU11       0.1567
      3  C         27.0150  -31.0950    4.1460 C.2    11  GLU11       0.2260
      4  O         25.9780  -30.6020    3.7010 O.2    11  GLU11      -0.2867
      5  CB        28.8180  -29.4090    3.8400 C.3    11  GLU11       0.0388
      6  CG        29.7370  -28.3600    4.4530 C.3    11  GLU11       0.1160
      7  CD        29.0090  -27.1650    5.0380 C.2    11  GLU11       0.3649
      8  OE1       27.8100  -26.9470    4.7310 O.co2  11  GLU11      -0.2457
      9  OE2       29.6480  -26.4290    5.8170 O.co2  11  GLU11      -0.2457
     10  N         18.5450  -26.1390   -1.8250 N.3    18  TYR18      -0.1241
     11  CA        17.9790  -26.3230   -0.4890 C.3    18  TYR18       0.1605
     12  C         18.3130  -25.0880    0.3440 C.2    18  TYR18       0.2264
     13  O         19.0870  -24.2420   -0.0830 O.2    18  TYR18      -0.2867
     14  CB        18.5500  -27.5880    0.1760 C.3    18  TYR18       0.0534
     15  CG        20.0460  -27.5970    0.4830 C.ar   18  TYR18      -0.0201
     16  CD1       20.5270  -27.3000    1.7720 C.ar   18  TYR18      -0.0009
     17  CD2       20.9800  -27.9600   -0.4860 C.ar   18  TYR18      -0.0009
     18  CE1       21.9010  -27.3370    2.0660 C.ar   18  TYR18       0.0417
     19  CE2       22.3530  -27.9880   -0.2000 C.ar   18  TYR18       0.0417
     20  CZ        22.8050  -27.6880    1.0730 C.ar   18  TYR18       0.1957
     21  OH        24.1700  -27.7370    1.3330 O.3    18  TYR18      -0.2866
     22  N         20.0700  -23.6380    3.7850 N.3    20  ASP20      -0.1225
     23  CA        21.0280  -23.9710    4.8300 C.3    20  ASP20       0.1805
     24  C         20.4350  -23.7100    6.2120 C.2    20  ASP20       0.2598
     25  O         19.2540  -23.3890    6.3390 O.2    20  ASP20      -0.2718
     26  CB        22.3780  -23.2400    4.6240 C.3    20  ASP20       0.1424
     27  CG        22.3240  -21.7320    4.9190 C.2    20  ASP20       0.3668
     28  OD1       21.2960  -21.2150    5.3930 O.co2  20  ASP20      -0.2456
     29  OD2       23.3570  -21.0520    4.6980 O.co2  20  ASP20      -0.2456
     30  N         21.2160  -23.8660    7.2670 N.am   21  THR21      -0.1939
     31  CA        20.5890  -23.7460    8.5810 C.3    21  THR21       0.2028
     32  C         20.1080  -22.3300    8.8830 C.2    21  THR21       0.2642
     33  O         19.2530  -22.1320    9.7490 O.2    21  THR21      -0.2714
     34  CB        21.4790  -24.2230    9.7230 C.3    21  THR21       0.1808
     35  OG1       20.6940  -24.2650   10.9190 O.3    21  THR21      -0.2208
     36  CG2       22.6490  -23.2750    9.9170 C.3    21  THR21       0.0379
     37  N         20.6600  -21.3470    8.1770 N.am   22  GLU22      -0.1976
     38  CA        20.2350  -19.9630    8.3730 C.3    22  GLU22       0.1602
     39  C         19.0640  -19.5700    7.4700 C.2    22  GLU22       0.2287
     40  O         18.6130  -18.4250    7.4890 O.2    22  GLU22      -0.2864
     41  CB        21.4110  -19.0140    8.1440 C.3    22  GLU22       0.0415
     42  CG        22.5800  -19.2560    9.1030 C.3    22  GLU22       0.1163
     43  CD        22.3070  -18.8360   10.5400 C.2    22  GLU22       0.3649
     44  OE1       21.3280  -18.1100   10.7900 O.co2  22  GLU22      -0.2457
     45  OE2       23.0850  -19.2400   11.4300 O.co2  22  GLU22      -0.2457
     46  N         21.1450  -22.6650   -1.0770 N.3    26  THR26      -0.1218
     47  CA        22.4240  -23.3600   -1.0850 C.3    26  THR26       0.1862
     48  C         22.2740  -24.5650   -2.0070 C.2    26  THR26       0.2287
     49  O         21.1530  -24.9880   -2.3150 O.2    26  THR26      -0.2866
     50  CB        22.7290  -23.8380    0.3720 C.3    26  THR26       0.1770
     51  OG1       22.7360  -22.7000    1.2340 O.3    26  THR26      -0.2211
     52  CG2       24.0770  -24.5590    0.5200 C.3    26  THR26       0.0375
     53  N         27.2620  -27.6710    0.6110 N.3    30  GLY30      -0.1225
     54  CA        27.2570  -26.4000    1.3020 C.3    30  GLY30       0.1811
     55  C         27.6960  -25.1910    0.5010 C.2    30  GLY30       0.2280
     56  O         28.2440  -24.2450    1.0760 O.2    30  GLY30      -0.2866
     57  N         26.8440  -21.8200   -0.7530 N.3    32  LEU32      -0.1245
     58  CA        25.8800  -20.7320   -0.6480 C.3    32  LEU32       0.1561
     59  C         25.6330  -20.0810   -2.0130 C.2    32  LEU32       0.2260
     60  O         26.5760  -19.7040   -2.7000 O.2    32  LEU32      -0.2867
     61  CB        26.4020  -19.6650    0.3170 C.3    32  LEU32       0.0270
     62  CG        25.5790  -18.3760    0.3840 C.3    32  LEU32       0.0019
     63  CD1       24.2010  -18.6190    1.0030 C.3    32  LEU32       0.0001
     64  CD2       26.3240  -17.2830    1.1520 C.3    32  LEU32       0.0001
     65  N         35.3310  -21.9110    5.9510 N.3   104  PHE104     -0.1227
     66  CA        34.3550  -22.3880    4.9740 C.3   104  PHE104      0.1736
     67  C         32.9400  -22.0700    5.4480 C.2   104  PHE104      0.2595
     68  O         32.0900  -21.6150    4.6630 O.2   104  PHE104     -0.2718
     69  CB        34.5450  -23.9030    4.7640 C.3   104  PHE104      0.0547
     70  CG        33.6760  -24.5110    3.6730 C.ar  104  PHE104     -0.0202
     71  CD1       34.2180  -24.7920    2.4260 C.ar  104  PHE104     -0.0042
     72  CD2       32.3520  -24.8330    3.9060 C.ar  104  PHE104     -0.0042
     73  CE1       33.4630  -25.3840    1.4340 C.ar  104  PHE104     -0.0003
     74  CE2       31.5730  -25.4240    2.9370 C.ar  104  PHE104     -0.0003
     75  CZ        32.1200  -25.7030    1.6770 C.ar  104  PHE104     -0.0000
     76  N         32.6720  -22.2950    6.7340 N.am  105  GLN105     -0.1979
     77  CA        31.3280  -22.0560    7.2520 C.3   105  GLN105      0.1601
     78  C         30.9720  -20.5630    7.4260 C.2   105  GLN105      0.2287
     79  O         29.8550  -20.1420    7.1130 O.2   105  GLN105     -0.2864
     80  CB        31.1400  -22.7780    8.5930 C.3   105  GLN105      0.0394
     81  CG        29.6900  -22.7480    9.0750 C.3   105  GLN105      0.0908
     82  CD        29.4710  -23.4720   10.3990 C.2   105  GLN105      0.2608
     83  OE1       30.3940  -24.0520   10.9650 O.2   105  GLN105     -0.2717
     84  NE2       28.2460  -23.4650   10.8780 N.am  105  GLN105     -0.0878
     85  N         28.0770  -29.6620   14.9540 N.3   145  ARG145     -0.1245
     86  CA        29.1760  -29.4110   14.0520 C.3   145  ARG145      0.1563
     87  C         30.2860  -28.6200   14.7490 C.2   145  ARG145      0.2260
     88  O         31.4650  -28.9390   14.5980 O.2   145  ARG145     -0.2867
     89  CB        28.6780  -28.7260   12.7850 C.3   145  ARG145      0.0307
     90  CG        29.6940  -28.6980   11.6530 C.3   145  ARG145      0.0489
     91  CD        30.1830  -27.3140   11.4550 C.3   145  ARG145      0.2205
     92  NE        31.0380  -27.1400   10.2670 N.pl3 145  ARG145     -0.0865
     93  CZ        30.5940  -26.8590    9.0410 C.cat 145  ARG145      0.5346
     94  NH1       29.2970  -26.8010    8.7730 N.pl3 145  ARG145      0.1354
     95  NH2       31.4560  -26.6360    8.0670 N.pl3 145  ARG145      0.1354
@<TRIPOS>BOND
     1    60    59    2
     2    49    48    2
     3    59    58    1
     4    48    47    1
     5    10    11    1
     6    47    46    1
     7    47    50    1
     8    57    58    1
     9    58    61    1
    10    11    14    1
    11    11    12    1
    12    17    19   ar
    13    17    15   ar
    14    19    20   ar
    15    13    12    2
    16    14    15    1
    17    61    62    1
    18    50    52    1
    19    50    51    1
    20    62    63    1
    21    62    64    1
    22    15    16   ar
    23    55    56    2
    24    55    54    1
    25    53    54    1
    26    20    21    1
    27    20    18   ar
    28    73    75   ar
    29    73    71   ar
    30    75    74   ar
    31    16    18   ar
    32    71    70   ar
    33    74    72   ar
    34    70    72   ar
    35    70    69    1
    36     4     3    2
    37    22    23    1
    38     5     6    1
    39     5     2    1
    40     3     2    1
    41     6     7    1
    42    26    23    1
    43    26    27    1
    44    68    67    2
    45    29    27   ar
    46     8     7   ar
    47    69    66    1
    48    23    24    1
    49     2     1    1
    50    27    28   ar
    51    66    67    1
    52    66    65    1
    53     7     9   ar
    54    67    76   am
    55    24    25    2
    56    24    30   am
    57    76    77    1
    58    79    78    2
    59    77    78    1
    60    77    80    1
    61    30    31    1
    62    39    40    2
    63    39    38    1
    64    95    93    1
    65    41    38    1
    66    41    42    1
    67    37    38    1
    68    37    32   am
    69    31    32    1
    70    31    34    1
    71    80    81    1
    72    94    93    1
    73    32    33    2
    74    93    92    2
    75    81    82    1
    76    42    43    1
    77    34    36    1
    78    34    35    1
    79    92    91    1
    80    82    84   am
    81    82    83    2
    82    43    44   ar
    83    43    45   ar
    84    91    90    1
    85    90    89    1
    86    89    86    1
    87    86    87    1
    88    86    85    1
    89    88    87    2
