@<TRIPOS>MOLECULE
tmp/3ruoA00.pdb
 179 170 0 0 0
SMALL
GASTEIGER

@<TRIPOS>ATOM
      1  N        -11.0990    4.2260   -5.4600 N.3    27  PHE27      -0.1241
      2  CA       -11.9170    5.4300   -5.3650 C.3    27  PHE27       0.1605
      3  C        -11.0690    6.6710   -5.1630 C.2    27  PHE27       0.2264
      4  O         -9.9050    6.5790   -4.7850 O.2    27  PHE27      -0.2867
      5  CB       -12.8610    5.2880   -4.1550 C.3    27  PHE27       0.0534
      6  CG       -13.7620    4.1010   -4.2350 C.ar   27  PHE27      -0.0203
      7  CD1      -15.0040    4.2070   -4.8340 C.ar   27  PHE27      -0.0042
      8  CD2      -13.3610    2.8670   -3.7340 C.ar   27  PHE27      -0.0042
      9  CE1      -15.8400    3.1130   -4.9250 C.ar   27  PHE27      -0.0003
     10  CE2      -14.1880    1.7600   -3.8290 C.ar   27  PHE27      -0.0003
     11  CZ       -15.4300    1.8830   -4.4190 C.ar   27  PHE27      -0.0000
     12  N        -20.6960    2.9880   -0.8570 N.3    42  HIS42      -0.1241
     13  CA       -20.4920    1.6930   -1.5170 C.3    42  HIS42       0.1621
     14  C        -19.0060    1.3130   -1.6340 C.2    42  HIS42       0.2264
     15  O        -18.6880    0.1920   -2.0150 O.2    42  HIS42      -0.2867
     16  CB       -21.1990    1.6340   -2.8750 C.3    42  HIS42       0.0745
     17  CG       -20.6130    2.5550   -3.8950 C.ar   42  HIS42       0.0817
     18  ND1      -21.1080    3.8200   -4.1310 N.ar   42  HIS42      -0.2268
     19  CD2      -19.5680    2.3930   -4.7380 C.ar   42  HIS42       0.1154
     20  CE1      -20.3940    4.3970   -5.0820 C.ar   42  HIS42       0.1986
     21  NE2      -19.4470    3.5560   -5.4610 N.ar   42  HIS42      -0.2212
     22  N        -17.3870    0.9050    0.9580 N.3    44  LYS44      -0.1245
     23  CA       -17.4170   -0.0850    2.0420 C.3    44  LYS44       0.1561
     24  C        -16.0480   -0.2700    2.7210 C.2    44  LYS44       0.2260
     25  O        -15.5560   -1.3990    2.8340 O.2    44  LYS44      -0.2867
     26  CB       -17.9710   -1.4170    1.5190 C.3    44  LYS44       0.0271
     27  CG       -19.4210   -1.3360    1.0250 C.3    44  LYS44       0.0035
     28  CD       -19.7940   -2.5700    0.2030 C.3    44  LYS44       0.0206
     29  CE       -20.9240   -2.3100   -0.7600 C.3    44  LYS44       0.1093
     30  NZ       -22.2450   -2.1470   -0.0610 N.3    44  LYS44      -0.1314
     31  N        -30.6530    5.9870    3.2160 N.3    71  ASN71      -0.1240
     32  CA       -29.2990    6.1100    2.7020 C.3    71  ASN71       0.1653
     33  C        -28.9750    7.4890    2.1300 C.2    71  ASN71       0.2266
     34  O        -29.7490    8.0270    1.3270 O.2    71  ASN71      -0.2867
     35  CB       -29.0890    5.0630    1.6120 C.3    71  ASN71       0.1155
     36  CG       -27.6750    5.0440    1.0890 C.2    71  ASN71       0.2627
     37  OD1      -26.7160    5.0930    1.8600 O.2    71  ASN71      -0.2716
     38  ND2      -27.5340    4.9860   -0.2390 N.am   71  ASN71      -0.0877
     39  N        -25.5750    7.7050    1.0720 N.3    73  GLU73      -0.1245
     40  CA       -24.5200    7.2120    0.1680 C.3    73  GLU73       0.1567
     41  C        -23.1220    7.7880    0.4260 C.2    73  GLU73       0.2260
     42  O        -22.2850    7.8630   -0.4810 O.2    73  GLU73      -0.2867
     43  CB       -24.9650    7.3190   -1.3170 C.3    73  GLU73       0.0388
     44  CG       -24.1990    6.4310   -2.3050 C.3    73  GLU73       0.1160
     45  CD       -23.9810    5.0070   -1.8210 C.2    73  GLU73       0.3649
     46  OE1      -24.9170    4.4190   -1.2360 O.co2  73  GLU73      -0.2457
     47  OE2      -22.8720    4.4830   -2.0720 O.co2  73  GLU73      -0.2457
     48  N        -33.6090    9.2230   -5.3520 N.3   127  LEU127     -0.1231
     49  CA       -33.2630    8.3060   -6.4310 C.3   127  LEU127      0.1693
     50  C        -33.1130    6.8930   -5.8820 C.2   127  LEU127      0.2592
     51  O        -32.4640    6.6910   -4.8580 O.2   127  LEU127     -0.2718
     52  CB       -31.9480    8.7230   -7.0960 C.3   127  LEU127      0.0284
     53  CG       -31.5280    7.9060   -8.3230 C.3   127  LEU127      0.0019
     54  CD1      -32.4200    8.2330   -9.5270 C.3   127  LEU127      0.0001
     55  CD2      -30.0480    8.1110   -8.6730 C.3   127  LEU127      0.0001
     56  N        -33.6970    5.9110   -6.5560 N.am  128  ASN128     -0.1960
     57  CA       -33.3530    4.5330   -6.2520 C.3   128  ASN128      0.1819
     58  C        -32.0550    4.2110   -6.9910 C.2   128  ASN128      0.2621
     59  O        -32.0390    4.0320   -8.2100 O.2   128  ASN128     -0.2715
     60  CB       -34.4920    3.5760   -6.6240 C.3   128  ASN128      0.1195
     61  CG       -34.3420    2.2210   -5.9720 C.2   128  ASN128      0.2630
     62  OD1      -33.3370    1.5410   -6.1610 O.2   128  ASN128     -0.2716
     63  ND2      -35.3460    1.8140   -5.2030 N.am  128  ASN128     -0.0877
     64  N        -30.9630    4.1800   -6.2380 N.am  129  LEU129     -0.1963
     65  CA       -29.6170    4.0750   -6.8000 C.3   129  LEU129      0.1728
     66  C        -29.0330    2.6960   -6.5280 C.2   129  LEU129      0.2616
     67  O        -28.8760    2.2930   -5.3720 O.2   129  LEU129     -0.2715
     68  CB       -28.7180    5.1670   -6.2100 C.3   129  LEU129      0.0311
     69  CG       -27.2540    5.2030   -6.6680 C.3   129  LEU129      0.0022
     70  CD1      -27.1390    5.5050   -8.1560 C.3   129  LEU129      0.0001
     71  CD2      -26.4990    6.2420   -5.8480 C.3   129  LEU129      0.0001
     72  N        -28.7390    1.9630   -7.5990 N.am  130  GLY130     -0.1955
     73  CA       -28.2580    0.5870   -7.4870 C.3   130  GLY130      0.1869
     74  C        -29.1350   -0.3010   -6.6170 C.2   130  GLY130      0.2309
     75  O        -28.6300   -1.1830   -5.9210 O.2   130  GLY130     -0.2863
     76  N        -30.9590    0.7670   -4.0700 N.3   132  THR132     -0.1218
     77  CA       -31.0440    1.3250   -2.7180 C.3   132  THR132      0.1862
     78  C        -31.7110    2.7070   -2.7360 C.2   132  THR132      0.2287
     79  O        -31.2090    3.6290   -3.3740 O.2   132  THR132     -0.2866
     80  CB       -29.6420    1.4430   -2.0780 C.3   132  THR132      0.1770
     81  OG1      -29.0470    0.1420   -1.9720 O.3   132  THR132     -0.2211
     82  CG2      -29.7180    2.0890   -0.6960 C.3   132  THR132      0.0375
     83  N        -32.2650    6.2810   -1.9630 N.3   134  THR134     -0.1218
     84  CA       -31.2300    7.2360   -1.5750 C.3   134  THR134      0.1862
     85  C        -31.7400    8.6720   -1.7120 C.2   134  THR134      0.2287
     86  O        -32.5300    8.9830   -2.6110 O.2   134  THR134     -0.2866
     87  CB       -29.9540    7.0380   -2.4430 C.3   134  THR134      0.1770
     88  OG1      -29.5130    5.6780   -2.3420 O.3   134  THR134     -0.2211
     89  CG2      -28.8220    7.9580   -2.0070 C.3   134  THR134      0.0375
     90  N        -20.5760    9.6410  -18.2300 N.3   144  THR144     -0.1203
     91  CA       -20.0850    9.0100  -17.0000 C.3   144  THR144      0.1994
     92  C        -19.2590    7.7500  -17.2970 C.2   144  THR144      0.2618
     93  O        -19.4540    7.1050  -18.3330 O.2   144  THR144     -0.2717
     94  CB       -21.2540    8.6020  -16.0690 C.3   144  THR144      0.1784
     95  OG1      -21.9810    7.4970  -16.6400 O.3   144  THR144     -0.2211
     96  CG2      -22.1990    9.7610  -15.8470 C.3   144  THR144      0.0376
     97  N        -18.3310    7.4130  -16.3920 N.am  145  ARG145     -0.1965
     98  CA       -17.5290    6.1840  -16.5180 C.3   145  ARG145      0.1729
     99  C        -17.3230    5.4830  -15.1720 C.2   145  ARG145      0.2616
    100  O        -17.2900    6.1210  -14.1130 O.2   145  ARG145     -0.2715
    101  CB       -16.1570    6.4610  -17.1630 C.3   145  ARG145      0.0348
    102  CG       -16.1820    6.9210  -18.6290 C.3   145  ARG145      0.0492
    103  CD       -16.7720    5.8820  -19.5840 C.3   145  ARG145      0.2205
    104  NE       -16.7620    6.3400  -20.9760 N.pl3 145  ARG145     -0.0865
    105  CZ       -17.7890    6.9110  -21.6070 C.cat 145  ARG145      0.5346
    106  NH1      -18.9400    7.1170  -20.9810 N.pl3 145  ARG145      0.1354
    107  NH2      -17.6630    7.2840  -22.8790 N.pl3 145  ARG145      0.1354
    108  N        -17.1740    4.1600  -15.2300 N.am  146  ALA146     -0.1963
    109  CA       -16.7690    3.3680  -14.0710 C.3   146  ALA146      0.1728
    110  C        -15.4330    3.8880  -13.5420 C.2   146  ALA146      0.2616
    111  O        -14.5690    4.2890  -14.3200 O.2   146  ALA146     -0.2715
    112  CB       -16.6380    1.9050  -14.4540 C.3   146  ALA146      0.0334
    113  N        -15.2720    3.8940  -12.2240 N.am  147  GLY147     -0.1955
    114  CA       -14.0340    4.3790  -11.6200 C.3   147  GLY147      0.1869
    115  C        -14.0090    5.8490  -11.2120 C.2   147  GLY147      0.2309
    116  O        -12.9940    6.3350  -10.7060 O.2   147  GLY147     -0.2863
    117  N        -16.2420    7.1220   -9.0250 N.3   149  CYS149     -0.1235
    118  CA       -16.8630    7.2990   -7.7090 C.3   149  CYS149      0.1677
    119  C        -15.8930    7.8010   -6.6600 C.2   149  CYS149      0.2270
    120  O        -14.7270    7.4030   -6.5980 O.2   149  CYS149     -0.2867
    121  CB       -17.5980    6.0460   -7.2380 C.3   149  CYS149      0.0956
    122  SG       -19.1290    5.7990   -8.1670 S.3   149  CYS149     -0.0801
    123  N        -19.1790   12.1300   -6.1560 N.3   163  HIS163     -0.1226
    124  CA       -19.8070   11.3180   -7.1900 C.3   163  HIS163      0.1752
    125  C        -20.0510    9.8910   -6.7160 C.2   163  HIS163      0.2596
    126  O        -19.1370    9.2380   -6.2360 O.2   163  HIS163     -0.2718
    127  CB       -18.9400   11.3080   -8.4530 C.3   163  HIS163      0.0759
    128  CG       -19.6050   10.6370   -9.6120 C.ar  163  HIS163      0.0818
    129  ND1      -20.5160   11.2770  -10.4260 N.ar  163  HIS163     -0.2268
    130  CD2      -19.5260    9.3600  -10.0640 C.ar  163  HIS163      0.1154
    131  CE1      -20.9550   10.4310  -11.3400 C.ar  163  HIS163      0.1986
    132  NE2      -20.3720    9.2610  -11.1430 N.ar  163  HIS163     -0.2212
    133  N        -21.2830    9.4090   -6.8550 N.am  164  VAL164     -0.1966
    134  CA       -21.6240    8.0740   -6.3390 C.3   164  VAL164      0.1727
    135  C        -22.3250    7.1530   -7.3340 C.2   164  VAL164      0.2617
    136  O        -22.4440    5.9580   -7.0870 O.2   164  VAL164     -0.2715
    137  CB       -22.4700    8.1490   -5.0290 C.3   164  VAL164      0.0290
    138  CG1      -21.6860    8.8300   -3.8790 C.3   164  VAL164      0.0023
    139  CG2      -23.8090    8.8570   -5.2730 C.3   164  VAL164      0.0023
    140  N        -22.7940    7.6880   -8.4530 N.am  165  GLY165     -0.1940
    141  CA       -23.5590    6.8570   -9.3610 C.3   165  GLY165      0.2014
    142  C        -23.9350    7.5390  -10.6460 C.2   165  GLY165      0.2639
    143  O        -23.6270    8.7130  -10.8600 O.2   165  GLY165     -0.2714
    144  N        -24.6110    6.7790  -11.4970 N.am  166  GLY166     -0.1939
    145  CA       -25.0530    7.2800  -12.7860 C.3   166  GLY166      0.2014
    146  C        -25.2130    6.1610  -13.7910 C.2   166  GLY166      0.2639
    147  O        -25.0330    4.9740  -13.4800 O.2   166  GLY166     -0.2714
    148  N        -25.5780    6.5530  -15.0030 N.am  167  ASN167     -0.1958
    149  CA       -25.7770    5.6350  -16.1070 C.3   167  ASN167      0.1819
    150  C        -25.7170    6.4840  -17.3620 C.2   167  ASN167      0.2621
    151  O        -26.3130    7.5650  -17.4060 O.2   167  ASN167     -0.2715
    152  CB       -27.1390    4.9440  -15.9910 C.3   167  ASN167      0.1195
    153  CG       -27.3980    3.9570  -17.1170 C.2   167  ASN167      0.2630
    154  OD1      -26.6080    3.0430  -17.3570 O.2   167  ASN167     -0.2716
    155  ND2      -28.5180    4.1330  -17.8040 N.am  167  ASN167     -0.0877
    156  N        -24.9680    6.0190  -18.3580 N.am  168  GLY168     -0.1954
    157  CA       -24.8870    6.7160  -19.6450 C.3   168  GLY168      0.1869
    158  C        -24.3650    8.1300  -19.5050 C.2   168  GLY168      0.2309
    159  O        -23.2290    8.3330  -19.0770 O.2   168  GLY168     -0.2863
    160  N        -25.6940   10.5720  -17.5190 N.3   170  GLN170     -0.1245
    161  CA       -26.2390   11.1870  -16.3180 C.3   170  GLN170      0.1566
    162  C        -25.4470   10.7500  -15.0920 C.2   170  GLN170      0.2260
    163  O        -25.2700    9.5590  -14.8590 O.2   170  GLN170     -0.2867
    164  CB       -27.6990   10.7980  -16.1500 C.3   170  GLN170      0.0367
    165  CG       -28.4290   11.5450  -15.0690 C.3   170  GLN170      0.0905
    166  CD       -29.8790   11.1280  -14.9700 C.2   170  GLN170      0.2608
    167  OE1      -30.2090    9.9400  -14.9770 O.2   170  GLN170     -0.2717
    168  NE2      -30.7540   12.1060  -14.8560 N.am  170  GLN170     -0.0878
    169  N        -24.6160   11.3600  -10.7440 N.3   172  PHE172     -0.1241
    170  CA       -25.1930   11.7860   -9.4600 C.3   172  PHE172      0.1605
    171  C        -24.1550   11.8750   -8.3690 C.2   172  PHE172      0.2264
    172  O        -23.3460   10.9590   -8.2080 O.2   172  PHE172     -0.2867
    173  CB       -26.2690   10.8040   -8.9730 C.3   172  PHE172      0.0534
    174  CG       -27.4620   10.7130   -9.8740 C.ar  172  PHE172     -0.0203
    175  CD1      -28.5200   11.6190   -9.7600 C.ar  172  PHE172     -0.0042
    176  CD2      -27.5190    9.7320  -10.8480 C.ar  172  PHE172     -0.0042
    177  CE1      -29.6300   11.5260  -10.6160 C.ar  172  PHE172     -0.0003
    178  CE2      -28.6110    9.6280  -11.7040 C.ar  172  PHE172     -0.0003
    179  CZ       -29.6700   10.5340  -11.5950 C.ar  172  PHE172     -0.0000
@<TRIPOS>BOND
     1   107   105    1
     2   105   106    1
     3   105   104    2
     4   104   103    1
     5   157   158    1
     6   157   156    1
     7   103   102    1
     8   158   159    2
     9   102   101    1
    10   156   150   am
    11    93    92    2
    12    90    91    1
    13   155   153   am
    14   160   161    1
    15   151   150    2
    16   150   149    1
    17   154   153    2
    18    92    91    1
    19    92    97   am
    20   101    98    1
    21   153   152    1
    22    91    94    1
    23    95    94    1
    24    98    97    1
    25    98    99    1
    26   161   164    1
    27   161   162    1
    28   164   165    1
    29   149   152    1
    30   149   148    1
    31    94    96    1
    32   108    99   am
    33   108   109    1
    34    99   100    2
    35   162   163    2
    36   165   166    1
    37   148   146   am
    38   167   166    2
    39   166   168   am
    40   112   109    1
    41   111   110    2
    42   109   110    1
    43   146   147    2
    44   146   145    1
    45   110   113   am
    46   145   144    1
    47   113   114    1
    48   178   179   ar
    49   178   176   ar
    50   114   115    1
    51   179   177   ar
    52   144   142   am
    53   131   132   ar
    54   131   129   ar
    55   115   116    2
    56   132   130   ar
    57   143   142    2
    58   176   174   ar
    59   169   170    1
    60   142   141    1
    61   177   175   ar
    62   129   128   ar
    63   130   128   ar
    64   174   175   ar
    65   174   173    1
    66   128   127    1
    67    54    53    1
    68   170   173    1
    69   170   171    1
    70   141   140    1
    71   117   118    1
    72    55    53    1
    73   140   135   am
    74   127   124    1
    75   171   172    2
    76    53    52    1
    77    59    58    2
    78   122   121    1
    79    70    69    1
    80   118   121    1
    81   118   119    1
    82    72    73    1
    83    72    66   am
    84    73    74    1
    85   135   136    2
    86   135   134    1
    87   124   125    1
    88   124   123    1
    89    52    49    1
    90    58    57    1
    91    58    64   am
    92   133   125   am
    93   133   134    1
    94    65    66    1
    95    65    64    1
    96    65    68    1
    97   125   126    2
    98    69    68    1
    99    69    71    1
   100   119   120    2
   101    60    57    1
   102    60    61    1
   103    74    75    2
   104    56    57    1
   105    56    50   am
   106    66    67    2
   107    49    50    1
   108    49    48    1
   109   134   137    1
   110    62    61    2
   111    61    63   am
   112    50    51    2
   113    21    20   ar
   114    21    19   ar
   115     1     2    1
   116     2     3    1
   117     2     5    1
   118   139   137    1
   119     3     4    2
   120    20    18   ar
   121   137   138    1
   122     9     7   ar
   123     9    11   ar
   124     7     6   ar
   125    19    17   ar
   126    11    10   ar
   127     6     5    1
   128     6     8   ar
   129    18    17   ar
   130    76    77    1
   131    17    16    1
   132    10     8   ar
   133    79    78    2
   134    16    13    1
   135    78    77    1
   136    77    80    1
   137    86    85    2
   138    87    88    1
   139    87    89    1
   140    87    84    1
   141    44    45    1
   142    44    43    1
   143    80    81    1
   144    80    82    1
   145    47    45   ar
   146    15    14    2
   147    83    84    1
   148    45    46   ar
   149    85    84    1
   150    14    13    1
   151    13    12    1
   152    43    40    1
   153    29    30    1
   154    29    28    1
   155    42    41    2
   156    38    36   am
   157    40    41    1
   158    40    39    1
   159    28    27    1
   160    22    23    1
   161    27    26    1
   162    36    35    1
   163    36    37    2
   164    34    33    2
   165    26    23    1
   166    35    32    1
   167    23    24    1
   168    33    32    1
   169    32    31    1
   170    24    25    2
