@<TRIPOS>MOLECULE
tmp/3ruoB00.pdb
 199 193 0 0 0
SMALL
GASTEIGER

@<TRIPOS>ATOM
      1  N         -5.5650    2.2850  -35.5880 N.3    23  TYR23      -0.1227
      2  CA        -4.5400    2.3670  -34.5530 C.3    23  TYR23       0.1736
      3  C         -5.0180    2.9910  -33.2400 C.2    23  TYR23       0.2596
      4  O         -4.2250    3.2180  -32.3190 O.2    23  TYR23      -0.2718
      5  CB        -3.2370    2.9640  -35.1270 C.3    23  TYR23       0.0548
      6  CG        -2.4200    1.8790  -35.7930 C.ar   23  TYR23      -0.0200
      7  CD1       -1.2910    1.3480  -35.1710 C.ar   23  TYR23      -0.0009
      8  CD2       -2.8150    1.3310  -37.0200 C.ar   23  TYR23      -0.0009
      9  CE1       -0.5600    0.3140  -35.7660 C.ar   23  TYR23       0.0417
     10  CE2       -2.0950    0.3000  -37.6210 C.ar   23  TYR23       0.0417
     11  CZ        -0.9710   -0.2030  -36.9900 C.ar   23  TYR23       0.1957
     12  OH        -0.2620   -1.2230  -37.5810 O.3    23  TYR23      -0.2866
     13  N         -6.3280    3.2200  -33.1500 N.am   24  GLY24      -0.1942
     14  CA        -6.9740    3.5450  -31.8870 C.3    24  GLY24       0.2014
     15  C         -7.8530    4.7740  -31.9730 C.2    24  GLY24       0.2639
     16  O         -8.2310    5.2210  -33.0620 O.2    24  GLY24      -0.2714
     17  N         -8.1750    5.2970  -30.7990 N.am   25  GLU25      -0.1963
     18  CA        -9.0360    6.4450  -30.6640 C.3    25  GLU25       0.1733
     19  C         -8.1850    7.6340  -30.2430 C.2    25  GLU25       0.2616
     20  O         -7.3460    7.5270  -29.3400 O.2    25  GLU25      -0.2715
     21  CB       -10.0890    6.1400  -29.6140 C.3    25  GLU25       0.0429
     22  CG       -11.2920    7.0070  -29.6720 C.3    25  GLU25       0.1163
     23  CD       -12.2760    6.7000  -28.5570 C.2    25  GLU25       0.3649
     24  OE1      -11.9250    5.9630  -27.6050 O.co2  25  GLU25      -0.2457
     25  OE2      -13.4010    7.2060  -28.6360 O.co2  25  GLU25      -0.2457
     26  N         -8.4140    8.7640  -30.9090 N.am   26  PHE26      -0.1974
     27  CA        -7.5960    9.9580  -30.7700 C.3    26  PHE26       0.1639
     28  C         -8.4620   11.1820  -30.5540 C.2    26  PHE26       0.2290
     29  O         -9.6170   11.2240  -30.9740 O.2    26  PHE26      -0.2864
     30  CB        -6.7590   10.1780  -32.0430 C.3    26  PHE26       0.0560
     31  CG        -5.7940    9.0680  -32.3250 C.ar   26  PHE26      -0.0200
     32  CD1       -4.4930    9.1060  -31.8170 C.ar   26  PHE26      -0.0042
     33  CD2       -6.1860    7.9720  -33.0920 C.ar   26  PHE26      -0.0042
     34  CE1       -3.6070    8.0600  -32.0540 C.ar   26  PHE26      -0.0003
     35  CE2       -5.3070    6.9130  -33.3330 C.ar   26  PHE26      -0.0003
     36  CZ        -4.0180    6.9600  -32.8150 C.ar   26  PHE26      -0.0000
     37  N          1.0450   11.3990  -36.0880 N.3    40  ARG40      -0.1231
     38  CA         1.3670   10.5960  -37.2740 C.3    40  ARG40       0.1694
     39  C          1.0180    9.1130  -37.0840 C.2    40  ARG40       0.2592
     40  O          0.5060    8.4770  -38.0090 O.2    40  ARG40      -0.2718
     41  CB         2.8430   10.7680  -37.6500 C.3    40  ARG40       0.0321
     42  CG         3.2540   10.0780  -38.9530 C.3    40  ARG40       0.0489
     43  CD         4.7770    9.8570  -39.0150 C.3    40  ARG40       0.2205
     44  NE         5.2810    9.1960  -37.8100 N.pl3  40  ARG40      -0.0865
     45  CZ         5.0880    7.9120  -37.5100 C.cat  40  ARG40       0.5346
     46  NH1        4.4160    7.1130  -38.3360 N.pl3  40  ARG40       0.1354
     47  NH2        5.5770    7.4220  -36.3810 N.pl3  40  ARG40       0.1354
     48  N          1.2580    8.5950  -35.8780 N.am   41  HIS41      -0.1976
     49  CA         1.0050    7.1940  -35.4870 C.3    41  HIS41       0.1656
     50  C         -0.4390    6.7500  -35.7180 C.2    41  HIS41       0.2291
     51  O         -0.7340    5.5520  -35.8100 O.2    41  HIS41      -0.2864
     52  CB         1.3730    6.9980  -34.0040 C.3    41  HIS41       0.0771
     53  CG         1.0010    5.6520  -33.4510 C.ar   41  HIS41       0.0820
     54  ND1       -0.0820    5.4630  -32.6190 N.ar   41  HIS41      -0.2267
     55  CD2        1.5650    4.4320  -33.6170 C.ar   41  HIS41       0.1154
     56  CE1       -0.1680    4.1850  -32.2950 C.ar   41  HIS41       0.1986
     57  NE2        0.8200    3.5370  -32.8860 N.ar   41  HIS41      -0.2212
     58  N         11.3040   13.2260  -38.6520 N.3    70  ASN70      -0.1240
     59  CA         9.9160   13.1060  -38.1830 C.3    70  ASN70       0.1653
     60  C          9.5090   14.1800  -37.1790 C.2    70  ASN70       0.2266
     61  O         10.2380   14.4620  -36.2200 O.2    70  ASN70      -0.2867
     62  CB         9.7390   11.7350  -37.5390 C.3    70  ASN70       0.1155
     63  CG         8.3310   11.4940  -37.0310 C.2    70  ASN70       0.2627
     64  OD1        7.3500   11.6810  -37.7560 O.2    70  ASN70      -0.2716
     65  ND2        8.2250   11.0650  -35.7790 N.am   70  ASN70      -0.0877
     66  N          6.1440   13.9040  -36.1140 N.3    72  GLU72      -0.1245
     67  CA         5.0840   13.1140  -35.4510 C.3    72  GLU72       0.1567
     68  C          3.6690   13.7090  -35.5890 C.2    72  GLU72       0.2260
     69  O          2.7860   13.4650  -34.7690 O.2    72  GLU72      -0.2867
     70  CB         5.4710   12.7650  -34.0000 C.3    72  GLU72       0.0388
     71  CG         4.7130   11.5770  -33.4000 C.3    72  GLU72       0.1160
     72  CD         4.6520   10.3590  -34.3100 C.2    72  GLU72       0.3649
     73  OE1        5.6430   10.0550  -35.0160 O.co2  72  GLU72      -0.2457
     74  OE2        3.5930    9.6970  -34.3060 O.co2  72  GLU72      -0.2457
     75  N         14.1290   13.5110  -29.5460 N.3   126  LEU126     -0.1231
     76  CA        13.7870   12.2810  -28.8580 C.3   126  LEU126      0.1693
     77  C         13.6660   11.1320  -29.8460 C.2   126  LEU126      0.2592
     78  O         13.0550   11.2640  -30.9050 O.2   126  LEU126     -0.2718
     79  CB        12.4660   12.4340  -28.1000 C.3   126  LEU126      0.0284
     80  CG        12.0740   11.2790  -27.1810 C.3   126  LEU126      0.0019
     81  CD1       12.9590   11.2910  -25.9410 C.3   126  LEU126      0.0001
     82  CD2       10.6070   11.3650  -26.7960 C.3   126  LEU126      0.0001
     83  N         14.2370    9.9910  -29.4860 N.am  127  ASN127     -0.1960
     84  CA        13.8900    8.7720  -30.1770 C.3   127  ASN127      0.1819
     85  C         12.5780    8.2480  -29.5900 C.2   127  ASN127      0.2621
     86  O         12.5530    7.6940  -28.4880 O.2   127  ASN127     -0.2715
     87  CB        15.0130    7.7410  -30.0840 C.3   127  ASN127      0.1195
     88  CG        14.9090    6.6910  -31.1590 C.2   127  ASN127      0.2630
     89  OD1       13.9580    5.9140  -31.1860 O.2   127  ASN127     -0.2716
     90  ND2       15.8830    6.6650  -32.0610 N.am  127  ASN127     -0.0877
     91  N         11.4910    8.4720  -30.3220 N.am  128  LEU128     -0.1963
     92  CA        10.1370    8.1590  -29.8610 C.3   128  LEU128      0.1728
     93  C          9.5650    6.9780  -30.6300 C.2   128  LEU128      0.2616
     94  O          9.4540    7.0150  -31.8590 O.2   128  LEU128     -0.2715
     95  CB         9.2250    9.3850  -30.0130 C.3   128  LEU128      0.0311
     96  CG         7.7410    9.2350  -29.6560 C.3   128  LEU128      0.0022
     97  CD1        7.5470    9.1370  -28.1480 C.3   128  LEU128      0.0001
     98  CD2        6.9340   10.3940  -30.2230 C.3   128  LEU128      0.0001
     99  N          9.2170    5.9240  -29.8960 N.am  129  GLY129     -0.1955
    100  CA         8.7270    4.6850  -30.4950 C.3   129  GLY129      0.1869
    101  C          9.6630    4.1190  -31.5480 C.2   129  GLY129      0.2309
    102  O          9.2230    3.4390  -32.4730 O.2   129  GLY129     -0.2863
    103  N         11.5230    5.9500  -33.6570 N.3   131  THR131     -0.1218
    104  CA        11.7450    6.9320  -34.7220 C.3   131  THR131      0.1862
    105  C         12.3950    8.2060  -34.1710 C.2   131  THR131      0.2287
    106  O         11.8750    8.8010  -33.2300 O.2   131  THR131     -0.2866
    107  CB        10.4160    7.2990  -35.4470 C.3   131  THR131      0.1770
    108  OG1        9.8870    6.1400  -36.1030 O.3   131  THR131     -0.2211
    109  CG2       10.6360    8.3890  -36.4860 C.3   131  THR131      0.0375
    110  N          1.0850    9.4410  -17.3090 N.3   143  THR143     -0.1203
    111  CA         0.6110    9.2560  -18.6900 C.3   143  THR143      0.1994
    112  C         -0.1920    7.9640  -18.8610 C.2   143  THR143      0.2618
    113  O          0.0210    6.9880  -18.1280 O.2   143  THR143     -0.2717
    114  CB         1.7680    9.2640  -19.7300 C.3   143  THR143      0.1784
    115  OG1        2.5690    8.0750  -19.6010 O.3   143  THR143     -0.2211
    116  CG2        2.6380   10.4730  -19.5580 C.3   143  THR143      0.0376
    117  N         -1.1140    7.9750  -19.8270 N.am  144  ARG144     -0.1965
    118  CA        -1.9640    6.8040  -20.1170 C.3   144  ARG144      0.1729
    119  C         -2.1970    6.5960  -21.6160 C.2   144  ARG144      0.2616
    120  O         -2.2420    7.5470  -22.4020 O.2   144  ARG144     -0.2715
    121  CB        -3.3330    6.9200  -19.4180 C.3   144  ARG144      0.0348
    122  CG        -3.3100    6.9260  -17.8810 C.3   144  ARG144      0.0492
    123  CD        -2.8900    5.5640  -17.3250 C.3   144  ARG144      0.2205
    124  NE        -2.9430    5.4700  -15.8630 N.pl3 144  ARG144     -0.0865
    125  CZ        -1.9440    5.7840  -15.0360 C.cat 144  ARG144      0.5346
    126  NH1       -0.7940    6.2500  -15.5100 N.pl3 144  ARG144      0.1354
    127  NH2       -2.0960    5.6410  -13.7210 N.pl3 144  ARG144      0.1354
    128  N         -2.3810    5.3380  -22.0020 N.am  145  ALA145     -0.1963
    129  CA        -2.8110    5.0070  -23.3560 C.3   145  ALA145      0.1728
    130  C         -4.1570    5.6640  -23.6800 C.2   145  ALA145      0.2616
    131  O         -5.0300    5.7470  -22.8180 O.2   145  ALA145     -0.2715
    132  CB        -2.9370    3.5020  -23.5010 C.3   145  ALA145      0.0334
    133  N         -4.3130    6.1030  -24.9270 N.am  146  GLY146     -0.1955
    134  CA        -5.5390    6.7510  -25.3850 C.3   146  GLY146      0.1869
    135  C         -5.5520    8.2680  -25.2560 C.2   146  GLY146      0.2309
    136  O         -6.5690    8.9070  -25.5360 O.2   146  GLY146     -0.2863
    137  N         -3.2980   10.1930  -26.9000 N.3   148  CYS148     -0.1235
    138  CA        -2.6840   10.8240  -28.0810 C.3   148  CYS148      0.1677
    139  C         -3.6590   11.6980  -28.8500 C.2   148  CYS148      0.2270
    140  O         -4.8530   11.3790  -28.9840 O.2   148  CYS148     -0.2867
    141  CB        -2.0210    9.8130  -29.0090 C.3   148  CYS148      0.0956
    142  SG        -0.4750    9.1940  -28.3060 S.3   148  CYS148     -0.0801
    143  N         -0.3520   15.8850  -27.9700 N.3   162  HIS162     -0.1226
    144  CA         0.2710   14.7640  -27.2640 C.3   162  HIS162      0.1752
    145  C          0.5500   13.5680  -28.1910 C.2   162  HIS162      0.2596
    146  O         -0.3550   13.0960  -28.8900 O.2   162  HIS162     -0.2718
    147  CB        -0.6040   14.3360  -26.0780 C.3   162  HIS162      0.0759
    148  CG         0.0520   13.3130  -25.2040 C.ar  162  HIS162      0.0818
    149  ND1        0.9240   13.6520  -24.1940 N.ar  162  HIS162     -0.2268
    150  CD2       -0.0200   11.9590  -25.2060 C.ar  162  HIS162      0.1154
    151  CE1        1.3650   12.5510  -23.6120 C.ar  162  HIS162      0.1986
    152  NE2        0.8080   11.5090  -24.2050 N.ar  162  HIS162     -0.2212
    153  N          1.7920   13.0850  -28.2050 N.am  163  VAL163     -0.1966
    154  CA         2.1510   11.9950  -29.1290 C.3   163  VAL163      0.1727
    155  C          2.8040   10.7820  -28.4810 C.2   163  VAL163      0.2617
    156  O          2.9390    9.7340  -29.1220 O.2   163  VAL163     -0.2715
    157  CB         3.0290   12.4860  -30.3150 C.3   163  VAL163      0.0290
    158  CG1        2.2790   13.5160  -31.1690 C.3   163  VAL163      0.0023
    159  CG2        4.3620   13.0330  -29.8360 C.3   163  VAL163      0.0023
    160  N          3.2260   10.9080  -27.2280 N.am  164  GLY164     -0.1940
    161  CA         3.8460    9.7620  -26.5890 C.3   164  GLY164      0.2014
    162  C          4.2860   10.0290  -25.1800 C.2   164  GLY164      0.2639
    163  O          4.0070   11.0830  -24.6130 O.2   164  GLY164     -0.2714
    164  N          4.9680    9.0410  -24.6180 N.am  165  GLY165     -0.1939
    165  CA         5.4510    9.1380  -23.2590 C.3   165  GLY165      0.2014
    166  C          5.5840    7.7690  -22.6470 C.2   165  GLY165      0.2639
    167  O          5.3710    6.7440  -23.3070 O.2   165  GLY165     -0.2714
    168  N          5.9780    7.7690  -21.3800 N.am  166  ASN166     -0.1958
    169  CA         6.0920    6.5500  -20.5990 C.3   166  ASN166      0.1819
    170  C          6.1620    6.9100  -19.1260 C.2   166  ASN166      0.2621
    171  O          6.7480    7.9290  -18.7470 O.2   166  ASN166     -0.2715
    172  CB         7.2890    5.6880  -21.0370 C.3   166  ASN166      0.1195
    173  CG         8.6210    6.2450  -20.5740 C.2   166  ASN166      0.2630
    174  OD1        8.8580    7.4510  -20.6300 O.2   166  ASN166     -0.2716
    175  ND2        9.5010    5.3640  -20.1150 N.am  166  ASN166     -0.0877
    176  N          5.5200    6.0850  -18.3020 N.am  167  GLY167     -0.1954
    177  CA         5.4640    6.3250  -16.8650 C.3   167  GLY167      0.1869
    178  C          4.8850    7.6940  -16.5850 C.2   167  GLY167      0.2309
    179  O          3.7390    7.9820  -16.9400 O.2   167  GLY167     -0.2863
    180  N          6.0720   10.6870  -17.6770 N.3   169  GLN169     -0.1245
    181  CA         6.6060   11.6600  -18.6180 C.3   169  GLN169      0.1566
    182  C          5.8030   11.6250  -19.9110 C.2   169  GLN169      0.2260
    183  O          5.6200   10.5620  -20.4970 O.2   169  GLN169     -0.2867
    184  CB         8.0670   11.3320  -18.9040 C.3   169  GLN169      0.0367
    185  CG         8.8100   12.3570  -19.7170 C.3   169  GLN169      0.0905
    186  CD        10.2680   11.9850  -19.9080 C.2   169  GLN169      0.2608
    187  OE1       10.5990   10.8510  -20.2700 O.2   169  GLN169     -0.2717
    188  NE2       11.1490   12.9480  -19.6910 N.am  169  GLN169     -0.0878
    189  N          5.0090   13.6740  -23.8470 N.3   171  PHE171     -0.1241
    190  CA         5.6160   14.4690  -24.9110 C.3   171  PHE171      0.1605
    191  C          4.5730   14.9140  -25.9090 C.2   171  PHE171      0.2264
    192  O          3.7250   14.1230  -26.3170 O.2   171  PHE171     -0.2867
    193  CB         6.6860   13.6590  -25.6570 C.3   171  PHE171      0.0534
    194  CG         7.8790   13.3000  -24.8140 C.ar  171  PHE171     -0.0203
    195  CD1        8.9430   14.1930  -24.6620 C.ar  171  PHE171     -0.0042
    196  CD2        7.9440   12.0680  -24.1730 C.ar  171  PHE171     -0.0042
    197  CE1       10.0530   13.8560  -23.8820 C.ar  171  PHE171     -0.0003
    198  CE2        9.0410   11.7280  -23.3880 C.ar  171  PHE171     -0.0003
    199  CZ        10.0980   12.6190  -23.2430 C.ar  171  PHE171     -0.0000
@<TRIPOS>BOND
     1    43    42    1
     2    43    44    1
     3    42    41    1
     4    58    59    1
     5    46    45    1
     6    59    62    1
     7    59    60    1
     8    40    39    2
     9    44    45    2
    10    64    63    2
    11    41    38    1
    12    10     8   ar
    13    10    11   ar
    14    12    11    1
    15    62    63    1
    16    45    47    1
    17    38    39    1
    18    38    37    1
    19    60    61    2
    20    39    48   am
    21    63    65   am
    22     8     6   ar
    23    11     9   ar
    24   109   107    1
    25    66    67    1
    26   108   107    1
    27    48    49    1
    28    51    50    2
    29     6     7   ar
    30     6     5    1
    31     9     7   ar
    32    50    49    1
    33    68    67    1
    34    68    69    2
    35     1     2    1
    36    49    52    1
    37    67    70    1
    38   107   104    1
    39     5     2    1
    40    73    72   ar
    41   104   105    1
    42   104   103    1
    43     2     3    1
    44    72    74   ar
    45    72    71    1
    46   105   106    2
    47    52    53    1
    48    70    71    1
    49    55    53   ar
    50    55    57   ar
    51    53    54   ar
    52    35    33   ar
    53    35    36   ar
    54     3    13   am
    55     3     4    2
    56    13    14    1
    57    33    31   ar
    58    16    15    2
    59    57    56   ar
    60    36    34   ar
    61    54    56   ar
    62   102   101    2
    63    31    30    1
    64    31    32   ar
    65    90    88   am
    66    34    32   ar
    67    30    27    1
    68    15    14    1
    69    15    17   am
    70    94    93    2
    71   101   100    1
    72    89    88    2
    73   158   157    1
    74    88    87    1
    75    29    28    2
    76    26    27    1
    77    26    19   am
    78    78    77    2
    79    17    18    1
    80    27    28    1
    81    18    19    1
    82    18    21    1
    83    93    99   am
    84    93    92    1
    85   100    99    1
    86    91    92    1
    87    91    85   am
    88   157   159    1
    89   157   154    1
    90    19    20    2
    91    98    96    1
    92    84    87    1
    93    84    85    1
    94    84    83    1
    95    95    92    1
    96    95    96    1
    97    77    83   am
    98    77    76    1
    99    22    21    1
   100    22    23    1
   101    96    97    1
   102    85    86    2
   103    75    76    1
   104   154   155    1
   105   154   153    1
   106   156   155    2
   107   141   142    1
   108   141   138    1
   109   140   139    2
   110   146   145    2
   111    76    79    1
   112   139   138    1
   113    25    23   ar
   114    23    24   ar
   115   155   160   am
   116   153   145   am
   117   145   144    1
   118    79    80    1
   119   138   137    1
   120   143   144    1
   121   144   147    1
   122   160   161    1
   123    80    82    1
   124    80    81    1
   125   161   162    1
   126   192   191    2
   127   147   148    1
   128   191   190    1
   129   193   190    1
   130   193   194    1
   131   136   135    2
   132   134   135    1
   133   134   133    1
   134   150   148   ar
   135   150   152   ar
   136   148   149   ar
   137   162   164   am
   138   162   163    2
   139   133   130   am
   140   190   189    1
   141   194   195   ar
   142   194   196   ar
   143   195   197   ar
   144   164   165    1
   145   152   151   ar
   146   149   151   ar
   147   196   198   ar
   148   197   199   ar
   149   130   129    1
   150   130   131    2
   151   132   129    1
   152   198   199   ar
   153   129   128    1
   154   167   166    2
   155   165   166    1
   156   166   168   am
   157   120   119    2
   158   128   119   am
   159   119   118    1
   160   168   169    1
   161   172   169    1
   162   172   173    1
   163   174   173    2
   164   169   170    1
   165   173   175   am
   166   183   182    2
   167   187   186    2
   168   118   117    1
   169   118   121    1
   170   182   181    1
   171   186   185    1
   172   186   188   am
   173   117   112   am
   174   114   115    1
   175   114   116    1
   176   114   111    1
   177   185   184    1
   178   121   122    1
   179   170   171    2
   180   170   176   am
   181   184   181    1
   182   112   111    1
   183   112   113    2
   184   111   110    1
   185   181   180    1
   186   176   177    1
   187   122   123    1
   188   123   124    1
   189   179   178    2
   190   177   178    1
   191   124   125    2
   192   126   125    1
   193   125   127    1
