@<TRIPOS>MOLECULE
tmp/3rupA00.pdb
 186 175 0 0 0
SMALL
GASTEIGER

@<TRIPOS>ATOM
      1  N         17.2130   -5.9890   39.8350 N.3    61  LEU61      -0.1245
      2  CA        16.1330   -5.1910   40.4120 C.3    61  LEU61       0.1561
      3  C         15.8890   -5.6080   41.8580 C.2    61  LEU61       0.2260
      4  O         14.9060   -5.2010   42.4590 O.2    61  LEU61      -0.2867
      5  CB        14.8410   -5.3430   39.6020 C.3    61  LEU61       0.0270
      6  CG        14.8610   -4.9610   38.1180 C.3    61  LEU61       0.0019
      7  CD1       13.5620   -5.3800   37.4270 C.3    61  LEU61       0.0001
      8  CD2       15.1300   -3.4700   37.9080 C.3    61  LEU61       0.0001
      9  N         22.4630    2.9990   34.0580 N.3    82  TYR82      -0.1227
     10  CA        21.2200    3.3900   33.3940 C.3    82  TYR82       0.1736
     11  C         20.2930    2.1740   33.3340 C.2    82  TYR82       0.2596
     12  O         20.7470    1.0400   33.5000 O.2    82  TYR82      -0.2718
     13  CB        21.4880    4.0030   32.0040 C.3    82  TYR82       0.0548
     14  CG        22.2860    3.1370   31.0460 C.ar   82  TYR82      -0.0200
     15  CD1       21.7620    1.9380   30.5720 C.ar   82  TYR82      -0.0009
     16  CD2       23.5470    3.5390   30.5780 C.ar   82  TYR82      -0.0009
     17  CE1       22.4700    1.1320   29.6960 C.ar   82  TYR82       0.0417
     18  CE2       24.2690    2.7400   29.6860 C.ar   82  TYR82       0.0417
     19  CZ        23.7210    1.5390   29.2550 C.ar   82  TYR82       0.1957
     20  OH        24.3960    0.7200   28.3730 O.3    82  TYR82      -0.2866
     21  N         19.0050    2.3930   33.1750 N.am   83  GLY83      -0.1942
     22  CA        18.0360    1.3310   33.1700 C.3    83  GLY83       0.2014
     23  C         17.9260    0.7990   34.6030 C.2    83  GLY83       0.2638
     24  O         18.3160    1.4640   35.5700 O.2    83  GLY83      -0.2714
     25  N         17.4460   -0.3790   34.7460 N.am   84  PHE84      -0.1973
     26  CA        17.3240   -1.0000   36.0570 C.3    84  PHE84       0.1639
     27  C         16.8090   -0.0410   37.1160 C.2    84  PHE84       0.2290
     28  O         15.7890    0.6090   36.9180 O.2    84  PHE84      -0.2864
     29  CB        18.6340   -1.6640   36.4630 C.3    84  PHE84       0.0560
     30  CG        19.0480   -2.7910   35.5320 C.ar   84  PHE84      -0.0200
     31  CD1       20.2450   -2.7290   34.8390 C.ar   84  PHE84      -0.0042
     32  CD2       18.2370   -3.9090   35.3560 C.ar   84  PHE84      -0.0042
     33  CE1       20.6120   -3.7750   33.9790 C.ar   84  PHE84      -0.0003
     34  CE2       18.6150   -4.9550   34.5180 C.ar   84  PHE84      -0.0003
     35  CZ        19.8120   -4.8930   33.8200 C.ar   84  PHE84      -0.0000
     36  N         16.4470    5.0670   37.8140 N.3    87  GLU87      -0.1245
     37  CA        15.3860    6.0610   37.9430 C.3    87  GLU87       0.1567
     38  C         14.2980    5.6180   38.9350 C.2    87  GLU87       0.2260
     39  O         13.1370    6.0340   38.8320 O.2    87  GLU87      -0.2867
     40  CB        14.8310    6.4090   36.5590 C.3    87  GLU87       0.0388
     41  CG        15.9080    7.0460   35.6860 C.3    87  GLU87       0.1160
     42  CD        15.4260    7.3830   34.3060 C.2    87  GLU87       0.3649
     43  OE1       15.2040    6.4620   33.5050 O.co2  87  GLU87      -0.2457
     44  OE2       15.3000    8.5880   33.9990 O.co2  87  GLU87      -0.2457
     45  N          6.1760    5.5350   33.5070 N.3   162  GLY162     -0.1210
     46  CA         7.4040    4.8630   33.9610 C.3   162  GLY162      0.1956
     47  C          8.1670    4.2130   32.8220 C.2   162  GLY162      0.2612
     48  O          9.0210    3.3590   33.0530 O.2   162  GLY162     -0.2717
     49  N          7.8610    4.6250   31.5920 N.am  163  GLY163     -0.1942
     50  CA         8.4110    3.9750   30.4060 C.3   163  GLY163      0.2014
     51  C          9.8880    4.2400   30.1570 C.2   163  GLY163      0.2639
     52  O         10.4010    5.3150   30.4880 O.2   163  GLY163     -0.2714
     53  N         10.5680    3.2580   29.5680 N.am  164  GLY164     -0.1939
     54  CA        11.9550    3.4250   29.1350 C.3   164  GLY164      0.2014
     55  C         12.2800    2.5970   27.9030 C.2   164  GLY164      0.2639
     56  O         11.5750    1.6380   27.6010 O.2   164  GLY164     -0.2714
     57  N         13.3470    2.9680   27.1940 N.am  165  GLY165     -0.1954
     58  CA        13.7840    2.2510   25.9890 C.3   165  GLY165      0.1869
     59  C         12.7360    2.1690   24.8880 C.2   165  GLY165      0.2309
     60  O         12.7740    1.2570   24.0580 O.2   165  GLY165     -0.2863
     61  N          9.6670    1.3640   25.2120 N.3   167  ARG167     -0.1245
     62  CA         8.6070    0.4160   25.5680 C.3   167  ARG167      0.1563
     63  C          7.4690    1.1490   26.2900 C.2   167  ARG167      0.2260
     64  O          7.7100    2.0730   27.0740 O.2   167  ARG167     -0.2867
     65  CB         9.1580   -0.6990   26.4640 C.3   167  ARG167      0.0307
     66  CG        10.2690   -1.5700   25.8400 C.3   167  ARG167      0.0489
     67  CD        10.8850   -2.5330   26.8730 C.3   167  ARG167      0.2205
     68  NE        11.7880   -1.8450   27.7970 N.pl3 167  ARG167     -0.0865
     69  CZ        12.1190   -2.2710   29.0170 C.cat 167  ARG167      0.5346
     70  NH1       11.6280   -3.4070   29.5080 N.pl3 167  ARG167      0.1354
     71  NH2       12.9500   -1.5440   29.7560 N.pl3 167  ARG167      0.1354
     72  N          6.4210   -4.5180   32.0460 N.3   192  ALA192     -0.1231
     73  CA         7.8170   -4.0760   32.0050 C.3   192  ALA192      0.1694
     74  C          8.2550   -3.2270   33.2040 C.2   192  ALA192      0.2592
     75  O          9.4040   -3.3220   33.6420 O.2   192  ALA192     -0.2718
     76  CB         8.1160   -3.3490   30.6940 C.3   192  ALA192      0.0304
     77  N          7.3520   -2.4120   33.7440 N.am  193  PHE193     -0.1976
     78  CA         7.7650   -1.3970   34.7120 C.3   193  PHE193      0.1639
     79  C          7.0250   -1.4240   36.0420 C.2   193  PHE193      0.2290
     80  O          7.3250   -0.6200   36.9240 O.2   193  PHE193     -0.2864
     81  CB         7.6800    0.0020   34.0800 C.3   193  PHE193      0.0560
     82  CG         8.3180    0.0870   32.7170 C.ar  193  PHE193     -0.0200
     83  CD1        7.5350    0.2270   31.5770 C.ar  193  PHE193     -0.0042
     84  CD2        9.7000   -0.0040   32.5700 C.ar  193  PHE193     -0.0042
     85  CE1        8.1290    0.2910   30.3060 C.ar  193  PHE193     -0.0003
     86  CE2       10.2930    0.0530   31.3140 C.ar  193  PHE193     -0.0003
     87  CZ         9.5030    0.2020   30.1810 C.ar  193  PHE193     -0.0000
     88  N         13.2180    3.8040   20.1150 N.3   237  GLN237     -0.1231
     89  CA        14.5110    3.6770   20.8060 C.3   237  GLN237      0.1698
     90  C         15.6730    4.1310   19.9010 C.2   237  GLN237      0.2592
     91  O         15.7010    3.8110   18.7130 O.2   237  GLN237     -0.2718
     92  CB        14.7430    2.2370   21.2920 C.3   237  GLN237      0.0381
     93  CG        15.9070    2.1350   22.2830 C.3   237  GLN237      0.0905
     94  CD        16.1830    0.7360   22.7910 C.2   237  GLN237      0.2608
     95  OE1       15.7910   -0.2590   22.1800 O.2   237  GLN237     -0.2717
     96  NE2       16.8900    0.6540   23.9150 N.am  237  GLN237     -0.0878
     97  N         16.6260    4.8620   20.4780 N.am  238  LYS238     -0.1980
     98  CA        17.7610    5.4330   19.7330 C.3   238  LYS238      0.1596
     99  C         18.6570    4.3370   19.1830 C.2   238  LYS238      0.2287
    100  O         18.8790    3.3210   19.8460 O.2   238  LYS238     -0.2864
    101  CB        18.5840    6.3610   20.6340 C.3   238  LYS238      0.0298
    102  CG        17.8130    7.5510   21.1350 C.3   238  LYS238      0.0038
    103  CD        18.4310    8.0500   22.4270 C.3   238  LYS238      0.0206
    104  CE        17.7160    9.2750   22.9500 C.3   238  LYS238      0.1093
    105  NZ        18.1160    9.5220   24.3570 N.3   238  LYS238     -0.1314
    106  N         15.6000   15.9860   27.4380 N.3   276  GLU276     -0.1245
    107  CA        15.3360   15.5600   26.0730 C.3   276  GLU276      0.1567
    108  C         14.1830   16.3710   25.4750 C.2   276  GLU276      0.2260
    109  O         13.1600   16.6080   26.1280 O.2   276  GLU276     -0.2867
    110  CB        15.0400   14.0560   26.0270 C.3   276  GLU276      0.0388
    111  CG        16.0580   13.2120   26.8080 C.3   276  GLU276      0.1160
    112  CD        15.9470   11.7130   26.5640 C.2   276  GLU276      0.3649
    113  OE1       15.0370   11.2700   25.8230 O.co2 276  GLU276     -0.2457
    114  OE2       16.7780   10.9550   27.1370 O.co2 276  GLU276     -0.2457
    115  N         11.1770   14.5000   28.2140 N.3   288  GLU288     -0.1245
    116  CA        11.7340   13.6320   29.2590 C.3   288  GLU288      0.1567
    117  C         12.9930   14.2270   29.8810 C.2   288  GLU288      0.2260
    118  O         13.7800   14.8800   29.1930 O.2   288  GLU288     -0.2867
    119  CB        12.0720   12.2600   28.6800 C.3   288  GLU288      0.0388
    120  CG        12.6350   11.2870   29.7090 C.3   288  GLU288      0.1160
    121  CD        12.8420    9.8950   29.1620 C.2   288  GLU288      0.3649
    122  OE1       13.1450    9.7330   27.9730 O.co2 288  GLU288     -0.2457
    123  OE2       12.7140    8.9480   29.9470 O.co2 288  GLU288     -0.2457
    124  N         16.0620   12.3980   31.8970 N.3   290  ASN290     -0.1240
    125  CA        16.7050   11.2660   32.5280 C.3   290  ASN290      0.1653
    126  C         17.5410   11.7410   33.7010 C.2   290  ASN290      0.2266
    127  O         18.4640   12.5490   33.5380 O.2   290  ASN290     -0.2867
    128  CB        17.5310   10.4610   31.5290 C.3   290  ASN290      0.1155
    129  CG        16.6670    9.6590   30.5730 C.2   290  ASN290      0.2627
    130  OD1       15.5410    9.2810   30.8930 O.2   290  ASN290     -0.2716
    131  ND2       17.2080    9.3680   29.4000 N.am  290  ASN290     -0.0877
    132  N         19.9240   10.5230   35.5400 N.3   292  ARG292     -0.1245
    133  CA        20.9190    9.4500   35.5220 C.3   292  ARG292      0.1563
    134  C         21.8880    9.6730   34.3620 C.2   292  ARG292      0.2260
    135  O         21.6760   10.5630   33.5350 O.2   292  ARG292     -0.2867
    136  CB        20.2240    8.0960   35.3130 C.3   292  ARG292      0.0307
    137  CG        19.3700    8.0300   34.0230 C.3   292  ARG292      0.0489
    138  CD        19.1900    6.5950   33.5510 C.3   292  ARG292      0.2205
    139  NE        18.1900    6.4600   32.4870 N.pl3 292  ARG292     -0.0865
    140  CZ        18.4500    6.5030   31.1790 C.cat 292  ARG292      0.5346
    141  NH1       19.6890    6.6860   30.7310 N.pl3 292  ARG292      0.1354
    142  NH2       17.4630    6.3470   30.3110 N.pl3 292  ARG292      0.1354
    143  N         23.4200    8.9170   30.7280 N.3   294  GLN294     -0.1231
    144  CA        22.8410    8.5530   29.4370 C.3   294  GLN294      0.1698
    145  C         23.6720    7.4470   28.7560 C.2   294  GLN294      0.2592
    146  O         24.9030    7.4610   28.8390 O.2   294  GLN294     -0.2718
    147  CB        22.8230    9.8150   28.5530 C.3   294  GLN294      0.0381
    148  CG        21.7270    9.8680   27.4810 C.3   294  GLN294      0.0905
    149  CD        20.3390   10.2490   28.0380 C.2   294  GLN294      0.2608
    150  OE1       20.0540   10.0670   29.2180 O.2   294  GLN294     -0.2717
    151  NE2       19.4720   10.7440   27.1700 N.am  294  GLN294     -0.0878
    152  N         23.0200    6.4960   28.0760 N.am  295  VAL295     -0.1966
    153  CA        23.7590    5.5250   27.2390 C.3   295  VAL295      0.1727
    154  C         24.7980    6.2360   26.3530 C.2   295  VAL295      0.2616
    155  O         25.9750    5.8590   26.3210 O.2   295  VAL295     -0.2715
    156  CB        22.8200    4.6780   26.3370 C.3   295  VAL295      0.0290
    157  CG1       23.6250    3.7990   25.3770 C.3   295  VAL295      0.0023
    158  CG2       21.9170    3.8060   27.1800 C.3   295  VAL295      0.0023
    159  N         24.3490    7.2880   25.6710 N.am  296  GLU296     -0.1977
    160  CA        25.1290    7.9250   24.6300 C.3   296  GLU296      0.1602
    161  C         26.0430    9.0410   25.1190 C.2   296  GLU296      0.2287
    162  O         26.5450    9.8180   24.2970 O.2   296  GLU296     -0.2864
    163  CB        24.2110    8.4500   23.5150 C.3   296  GLU296      0.0415
    164  CG        23.1320    9.4300   23.9490 C.3   296  GLU296      0.1163
    165  CD        21.7950    8.7630   24.2490 C.2   296  GLU296      0.3649
    166  OE1       20.7520    9.3870   23.9610 O.co2 296  GLU296     -0.2457
    167  OE2       21.7760    7.6360   24.7950 O.co2 296  GLU296     -0.2457
    168  N         25.0710    2.2360   18.2130 N.3   338  ARG338     -0.1245
    169  CA        24.7500    1.1500   19.1330 C.3   338  ARG338      0.1563
    170  C         24.9130   -0.1970   18.4380 C.2   338  ARG338      0.2260
    171  O         24.4830   -0.3800   17.2990 O.2   338  ARG338     -0.2867
    172  CB        23.3270    1.2800   19.6950 C.3   338  ARG338      0.0307
    173  CG        23.1130    2.5110   20.5610 C.3   338  ARG338      0.0489
    174  CD        21.7830    2.4750   21.2870 C.3   338  ARG338      0.2205
    175  NE        21.5410    3.7010   22.0680 N.pl3 338  ARG338     -0.0865
    176  CZ        20.6540    3.7920   23.0580 C.cat 338  ARG338      0.5346
    177  NH1       19.9210    2.7360   23.3790 N.pl3 338  ARG338      0.1354
    178  NH2       20.4880    4.9440   23.7230 N.pl3 338  ARG338      0.1354
    179  N         18.6100   -6.6850   27.9760 N.3   382  ASP382     -0.1239
    180  CA        18.5330   -5.8500   26.7720 C.3   382  ASP382      0.1674
    181  C         19.5520   -6.2830   25.7070 C.2   382  ASP382      0.2266
    182  O         20.6220   -6.7970   26.0380 O.2   382  ASP382     -0.2867
    183  CB        18.7930   -4.3950   27.1490 C.3   382  ASP382      0.1410
    184  CG        18.4830   -3.4470   26.0290 C.2   382  ASP382      0.3668
    185  OD1       17.3110   -3.0130   25.9370 O.co2 382  ASP382     -0.2456
    186  OD2       19.4090   -3.1260   25.2490 O.co2 382  ASP382     -0.2456
@<TRIPOS>BOND
     1   171   170    2
     2   168   169    1
     3   170   169    1
     4    91    90    2
     5   169   172    1
     6    99    98    1
     7    99   100    2
     8   172   173    1
     9    98    97    1
    10    98   101    1
    11    90    97   am
    12    90    89    1
    13    88    89    1
    14   173   174    1
    15   101   102    1
    16    89    92    1
    17   102   103    1
    18   174   175    1
    19    92    93    1
    20   175   176    2
    21    95    94    2
    22    93    94    1
    23   103   104    1
    24    94    96   am
    25   104   105    1
    26   176   177    1
    27   176   178    1
    28   163   164    1
    29   163   160    1
    30   164   165    1
    31   166   165   ar
    32    60    59    2
    33   165   167   ar
    34   162   161    2
    35   160   161    1
    36   160   159    1
    37    59    58    1
    38    61    62    1
    39   186   184   ar
    40   157   156    1
    41   108   107    1
    42   108   109    2
    43    62    63    1
    44    62    65    1
    45   159   154   am
    46   181   182    2
    47   181   180    1
    48   113   112   ar
    49    66    65    1
    50    66    67    1
    51   185   184   ar
    52    58    57    1
    53   110   107    1
    54   110   111    1
    55   184   183    1
    56   107   106    1
    57    63    64    2
    58   155   154    2
    59   156   158    1
    60   156   153    1
    61   154   153    1
    62   112   111    1
    63   112   114   ar
    64   180   183    1
    65   180   179    1
    66    67    68    1
    67   151   149   am
    68    57    55   am
    69   153   152    1
    70   148   149    1
    71   148   147    1
    72    56    55    2
    73    68    69    2
    74    55    54    1
    75   122   121   ar
    76   149   150    2
    77   152   145   am
    78   115   116    1
    79    20    19    1
    80   147   144    1
    81   119   116    1
    82   119   120    1
    83   145   146    2
    84   145   144    1
    85    69    70    1
    86    69    71    1
    87    54    53    1
    88   121   120    1
    89   121   123   ar
    90   118   117    2
    91    19    18   ar
    92    19    17   ar
    93   116   117    1
    94   131   129   am
    95   144   143    1
    96    53    51   am
    97    18    16   ar
    98    17    15   ar
    99    51    50    1
   100    51    52    2
   101    87    85   ar
   102    87    86   ar
   103    85    83   ar
   104   142   140    1
   105    50    49    1
   106    15    14   ar
   107   129   130    2
   108   129   128    1
   109    16    14   ar
   110    76    73    1
   111   141   140    1
   112    14    13    1
   113   140   139    2
   114    86    84   ar
   115   128   125    1
   116    83    82   ar
   117    49    47   am
   118   124   125    1
   119    13    10    1
   120    73    72    1
   121    73    74    1
   122   139   138    1
   123   125   126    1
   124    84    82   ar
   125    82    81    1
   126    47    48    2
   127    47    46    1
   128    22    21    1
   129    22    23    1
   130    21    11   am
   131    74    75    2
   132    74    77   am
   133    11    10    1
   134    11    12    2
   135    10     9    1
   136    43    42   ar
   137    45    46    1
   138   135   134    2
   139   127   126    2
   140   138   137    1
   141    77    78    1
   142    35    33   ar
   143    35    34   ar
   144    33    31   ar
   145    44    42   ar
   146   137   136    1
   147    81    78    1
   148    42    41    1
   149   134   133    1
   150    34    32   ar
   151    23    25   am
   152    23    24    2
   153    78    79    1
   154    25    26    1
   155    31    30   ar
   156   136   133    1
   157    32    30   ar
   158   133   132    1
   159    30    29    1
   160    41    40    1
   161    79    80    2
   162    26    29    1
   163    26    27    1
   164    40    37    1
   165    28    27    2
   166     7     6    1
   167    36    37    1
   168     8     6    1
   169    37    38    1
   170     6     5    1
   171    39    38    2
   172     5     2    1
   173     1     2    1
   174     2     3    1
   175     3     4    2
