@<TRIPOS>MOLECULE
tmp/3ruuA01.pdb
 251 237 0 0 0
SMALL
GASTEIGER

@<TRIPOS>ATOM
      1  N         37.9590   -5.0010  -10.2130 N.3    20  GLN20      -0.1245
      2  CA        36.5000   -5.0470  -10.1610 C.3    20  GLN20       0.1566
      3  C         35.9190   -3.6660   -9.8910 C.2    20  GLN20       0.2260
      4  O         35.7230   -3.2760   -8.7390 O.2    20  GLN20      -0.2867
      5  CB        36.0340   -6.0340   -9.0880 C.3    20  GLN20       0.0367
      6  CG        34.5550   -6.2980   -9.1610 C.3    20  GLN20       0.0905
      7  CD        34.1830   -7.0920  -10.3950 C.2    20  GLN20       0.2608
      8  OE1       34.7750   -8.1380  -10.7420 O.2    20  GLN20      -0.2717
      9  NE2       33.1870   -6.6000  -11.1300 N.am   20  GLN20      -0.0878
     10  N         32.9740   -2.0270  -11.7220 N.3    22  MET22      -0.1245
     11  CA        31.5070   -1.9570  -11.7120 C.3    22  MET22       0.1570
     12  C         30.9650   -2.5720  -10.4280 C.2    22  MET22       0.2261
     13  O         31.1170   -3.7700  -10.1960 O.2    22  MET22      -0.2867
     14  CB        30.8880   -2.6580  -12.9300 C.3    22  MET22       0.0387
     15  CG        31.1060   -1.9470  -14.2670 C.3    22  MET22       0.0595
     16  SD        30.0710   -0.4860  -14.5430 S.3    22  MET22      -0.1393
     17  CE        28.4420   -1.2160  -14.6890 C.3    22  MET22       0.0692
     18  N         25.1930   -3.3950  -10.7520 N.3    27  THR27      -0.1218
     19  CA        24.9400   -4.3850  -11.7950 C.3    27  THR27       0.1862
     20  C         23.8360   -5.3710  -11.4210 C.2    27  THR27       0.2287
     21  O         23.2530   -6.0080  -12.2950 O.2    27  THR27      -0.2866
     22  CB        26.2220   -5.1490  -12.1910 C.3    27  THR27       0.1770
     23  OG1       26.8290   -5.7230  -11.0250 O.3    27  THR27      -0.2211
     24  CG2       27.2100   -4.2040  -12.8650 C.3    27  THR27       0.0375
     25  N         20.1550   -5.2610  -13.0340 N.3    30  ILE30      -0.1245
     26  CA        19.8770   -5.9670  -14.2700 C.3    30  ILE30       0.1561
     27  C         18.9950   -7.1700  -13.9780 C.2    30  ILE30       0.2260
     28  O         18.1030   -7.5100  -14.7590 O.2    30  ILE30      -0.2867
     29  CB        21.1870   -6.4230  -14.9370 C.3    30  ILE30       0.0252
     30  CG1       22.0480   -5.2040  -15.2840 C.3    30  ILE30       0.0019
     31  CG2       20.9090   -7.2730  -16.1690 C.3    30  ILE30       0.0019
     32  CD1       23.4050   -5.5620  -15.8710 C.3    30  ILE30       0.0001
     33  N         15.3610    0.8870  -20.0200 N.3    41  PHE41      -0.1241
     34  CA        16.1620    2.0220  -20.4590 C.3    41  PHE41       0.1605
     35  C         16.9190    2.6650  -19.3020 C.2    41  PHE41       0.2264
     36  O         18.0820    3.0340  -19.4430 O.2    41  PHE41      -0.2867
     37  CB        15.3020    3.0780  -21.1500 C.3    41  PHE41       0.0534
     38  CG        16.0740    4.2970  -21.5430 C.ar   41  PHE41      -0.0203
     39  CD1       16.1230    5.4060  -20.7070 C.ar   41  PHE41      -0.0042
     40  CD2       16.7940    4.3180  -22.7300 C.ar   41  PHE41      -0.0042
     41  CE1       16.8570    6.5220  -21.0590 C.ar   41  PHE41      -0.0003
     42  CE2       17.5300    5.4330  -23.0900 C.ar   41  PHE41      -0.0003
     43  CZ        17.5620    6.5360  -22.2530 C.ar   41  PHE41      -0.0000
     44  N         19.9130    0.4170  -18.1670 N.3    44  LEU44      -0.1231
     45  CA        20.9890    0.4440  -19.1540 C.3    44  LEU44       0.1693
     46  C         21.7680    1.7620  -19.1100 C.2    44  LEU44       0.2592
     47  O         22.9790    1.7870  -19.3350 O.2    44  LEU44      -0.2718
     48  CB        20.4280    0.2040  -20.5590 C.3    44  LEU44       0.0284
     49  CG        19.8760   -1.2010  -20.8080 C.3    44  LEU44       0.0019
     50  CD1       19.2500   -1.3160  -22.2000 C.3    44  LEU44       0.0001
     51  CD2       20.9770   -2.2350  -20.6020 C.3    44  LEU44       0.0001
     52  N         21.0570    2.8520  -18.8310 N.am   45  THR45      -0.1953
     53  CA        21.6670    4.1710  -18.7010 C.3    45  THR45       0.1897
     54  C         22.5940    4.2150  -17.4890 C.2    45  THR45       0.2313
     55  O         23.7010    4.7470  -17.5540 O.2    45  THR45      -0.2863
     56  CB        20.5990    5.2790  -18.5690 C.3    45  THR45       0.1794
     57  OG1       19.9190    5.4460  -19.8190 O.3    45  THR45      -0.2208
     58  CG2       21.2390    6.5900  -18.1780 C.3    45  THR45       0.0378
     59  N         24.0740    1.5890  -16.1460 N.3    47  MET47      -0.1230
     60  CA        25.2400    0.7580  -16.4330 C.3    47  MET47       0.1702
     61  C         26.2500    1.5450  -17.2610 C.2    47  MET47       0.2592
     62  O         27.4350    1.6110  -16.9260 O.2    47  MET47      -0.2718
     63  CB        24.8450   -0.5170  -17.1790 C.3    47  MET47       0.0401
     64  CG        23.8090   -1.3670  -16.4700 C.3    47  MET47       0.0596
     65  SD        24.3660   -1.9540  -14.8640 S.3    47  MET47      -0.1393
     66  CE        23.0210   -1.4160  -13.8220 C.3    47  MET47       0.0692
     67  N         25.7750    2.1480  -18.3460 N.am   48  ALA48      -0.1980
     68  CA        26.6500    2.8990  -19.2440 C.3    48  ALA48       0.1597
     69  C         27.3740    4.0570  -18.5400 C.2    48  ALA48       0.2287
     70  O         28.5760    4.2420  -18.7130 O.2    48  ALA48      -0.2864
     71  CB        25.8680    3.4020  -20.4390 C.3    48  ALA48       0.0319
     72  N         29.8880    2.6100  -16.3340 N.3    51  HIS51      -0.1241
     73  CA        30.9470    2.0030  -17.1320 C.3    51  HIS51       0.1621
     74  C         31.9320    3.0450  -17.6570 C.2    51  HIS51       0.2264
     75  O         33.1370    2.7880  -17.7170 O.2    51  HIS51      -0.2867
     76  CB        30.3670    1.1960  -18.2960 C.3    51  HIS51       0.0745
     77  CG        31.3950    0.4060  -19.0470 C.ar   51  HIS51       0.0817
     78  ND1       32.1510   -0.5830  -18.4540 N.ar   51  HIS51      -0.2268
     79  CD2       31.8040    0.4710  -20.3360 C.ar   51  HIS51       0.1154
     80  CE1       32.9760   -1.0990  -19.3480 C.ar   51  HIS51       0.1986
     81  NE2       32.7850   -0.4770  -20.4970 N.ar   51  HIS51      -0.2212
     82  N         31.8560    4.2620  -26.8640 N.3    82  VAL82      -0.1245
     83  CA        30.8670    3.3210  -27.3760 C.3    82  VAL82       0.1561
     84  C         31.4880    1.9690  -27.7170 C.2    82  VAL82       0.2260
     85  O         30.9660    0.9190  -27.3360 O.2    82  VAL82      -0.2867
     86  CB        30.1660    3.8840  -28.6270 C.3    82  VAL82       0.0252
     87  CG1       29.4000    2.7920  -29.3540 C.3    82  VAL82       0.0019
     88  CG2       29.2410    5.0160  -28.2420 C.3    82  VAL82       0.0019
     89  N         32.2280   -0.0700  -24.6840 N.3    85  MET85      -0.1230
     90  CA        31.0280   -0.6460  -24.0780 C.3    85  MET85       0.1702
     91  C         30.5490   -1.8760  -24.8430 C.2    85  MET85       0.2592
     92  O         30.1050   -2.8550  -24.2420 O.2    85  MET85      -0.2718
     93  CB        29.9050    0.3850  -23.9980 C.3    85  MET85       0.0401
     94  CG        30.2320    1.5940  -23.1450 C.3    85  MET85       0.0596
     95  SD        28.8830    2.7870  -23.0970 S.3    85  MET85      -0.1393
     96  CE        29.7190    4.1820  -22.3370 C.3    85  MET85       0.0692
     97  N         30.6320   -1.8220  -26.1690 N.am   86  PHE86      -0.1976
     98  CA        30.2580   -2.9660  -26.9940 C.3    86  PHE86       0.1639
     99  C         31.1810   -4.1430  -26.7270 C.2    86  PHE86       0.2290
    100  O         30.7570   -5.2970  -26.7860 O.2    86  PHE86      -0.2864
    101  CB        30.2920   -2.6190  -28.4800 C.3    86  PHE86       0.0560
    102  CG        28.9590   -2.2300  -29.0450 C.ar   86  PHE86      -0.0200
    103  CD1       28.6140   -0.8940  -29.1890 C.ar   86  PHE86      -0.0042
    104  CD2       28.0520   -3.1990  -29.4410 C.ar   86  PHE86      -0.0042
    105  CE1       27.3810   -0.5290  -29.7170 C.ar   86  PHE86      -0.0003
    106  CE2       26.8190   -2.8430  -29.9670 C.ar   86  PHE86      -0.0003
    107  CZ        26.4830   -1.5050  -30.1080 C.ar   86  PHE86      -0.0000
    108  N         32.8290   -4.7510  -23.7980 N.3    88  ARG88      -0.1231
    109  CA        32.5300   -5.2660  -22.4680 C.3    88  ARG88       0.1694
    110  C         31.1980   -6.0130  -22.4410 C.2    88  ARG88       0.2592
    111  O         31.1050   -7.1110  -21.8880 O.2    88  ARG88      -0.2718
    112  CB        32.5450   -4.1400  -21.4430 C.3    88  ARG88       0.0321
    113  CG        32.3350   -4.6060  -20.0200 C.3    88  ARG88       0.0489
    114  CD        33.3450   -5.6630  -19.6310 C.3    88  ARG88       0.2205
    115  NE        33.2770   -5.9580  -18.2000 N.pl3  88  ARG88      -0.0865
    116  CZ        34.0620   -6.8270  -17.5730 C.cat  88  ARG88       0.5346
    117  NH1       34.9840   -7.5030  -18.2490 N.pl3  88  ARG88       0.1354
    118  NH2       33.9250   -7.0210  -16.2690 N.pl3  88  ARG88       0.1354
    119  N         30.1690   -5.4270  -23.0460 N.am   89  SER89      -0.1952
    120  CA        28.8920   -6.1220  -23.1730 C.3    89  SER89       0.1924
    121  C         29.0520   -7.4430  -23.9350 C.2    89  SER89       0.2314
    122  O         28.5240   -8.4770  -23.5200 O.2    89  SER89      -0.2863
    123  CB        27.8400   -5.2330  -23.8410 C.3    89  SER89       0.2116
    124  OG        28.0390   -5.1630  -25.2360 O.3    89  SER89      -0.2180
    125  N         30.3860   -9.9760  -21.7190 N.3    92  ILE92      -0.1245
    126  CA        29.2910  -10.4600  -20.8820 C.3    92  ILE92       0.1561
    127  C         28.5480  -11.5930  -21.5870 C.2    92  ILE92       0.2260
    128  O         28.4510  -12.7000  -21.0680 O.2    92  ILE92      -0.2867
    129  CB        28.2660   -9.3510  -20.5580 C.3    92  ILE92       0.0252
    130  CG1       28.8940   -8.2410  -19.7080 C.3    92  ILE92       0.0019
    131  CG2       27.0380   -9.9450  -19.8700 C.3    92  ILE92       0.0019
    132  CD1       29.4270   -8.7120  -18.3860 C.3    92  ILE92       0.0001
    133  N         28.5980  -11.2680  -13.1110 N.3    99  SER99      -0.1202
    134  CA        28.2530   -9.8700  -12.8580 C.3    99  SER99       0.2020
    135  C         27.3480   -9.2560  -13.9300 C.2    99  SER99       0.2619
    136  O         26.6600   -8.2620  -13.6790 O.2    99  SER99      -0.2717
    137  CB        29.5270   -9.0260  -12.7340 C.3    99  SER99       0.2103
    138  OG        30.2220   -8.9020  -13.9280 O.3    99  SER99      -0.2182
    139  N         27.3630   -9.8370  -15.1250 N.am  100  GLY100     -0.1956
    140  CA        26.6360   -9.2810  -16.2500 C.3   100  GLY100      0.1869
    141  C         25.1970   -9.7510  -16.3850 C.2   100  GLY100      0.2309
    142  O         24.3620   -9.0390  -16.9480 O.2   100  GLY100     -0.2863
    143  N         20.2370   -9.1470  -19.1690 N.3   105  LEU105     -0.1245
    144  CA        20.8100   -7.9800  -19.8200 C.3   105  LEU105      0.1561
    145  C         20.2970   -7.9170  -21.2580 C.2   105  LEU105      0.2260
    146  O         19.9570   -6.8460  -21.7680 O.2   105  LEU105     -0.2867
    147  CB        22.3430   -8.0350  -19.7990 C.3   105  LEU105      0.0270
    148  CG        23.0320   -6.8210  -20.4490 C.3   105  LEU105      0.0019
    149  CD1       22.5510   -5.5210  -19.8260 C.3   105  LEU105      0.0001
    150  CD2       24.5520   -6.9050  -20.3890 C.3   105  LEU105      0.0001
    151  N         18.0530   -4.9230  -23.1320 N.3   109  ILE109     -0.1245
    152  CA        18.4920   -4.2940  -24.3690 C.3   109  ILE109      0.1561
    153  C         17.4510   -4.4680  -25.4830 C.2   109  ILE109      0.2260
    154  O         17.1810   -3.5370  -26.2440 O.2   109  ILE109     -0.2867
    155  CB        19.8550   -4.8560  -24.8140 C.3   109  ILE109      0.0252
    156  CG1       20.9360   -4.4610  -23.8030 C.3   109  ILE109      0.0019
    157  CG2       20.2050   -4.3750  -26.2150 C.3   109  ILE109      0.0019
    158  CD1       22.2920   -5.0540  -24.0990 C.3   109  ILE109      0.0001
    159  N         15.0130    0.3640  -28.6970 N.3   114  ILE114     -0.1245
    160  CA        15.9770    0.2750  -29.7860 C.3   114  ILE114      0.1561
    161  C         15.3510   -0.4000  -31.0060 C.2   114  ILE114      0.2260
    162  O         14.8560   -1.5230  -30.9230 O.2   114  ILE114     -0.2867
    163  CB        17.2430   -0.4930  -29.3700 C.3   114  ILE114      0.0252
    164  CG1       17.8520    0.1140  -28.1040 C.3   114  ILE114      0.0019
    165  CG2       18.2580   -0.5090  -30.5070 C.3   114  ILE114      0.0019
    166  CD1       19.1110   -0.6030  -27.6240 C.3   114  ILE114      0.0001
    167  N         23.4570   -5.5920  -33.9270 N.3   122  MET122     -0.1245
    168  CA        24.0970   -5.5880  -32.6160 C.3   122  MET122      0.1570
    169  C         24.4010   -6.9960  -32.1270 C.2   122  MET122      0.2261
    170  O         25.5300   -7.3010  -31.7450 O.2   122  MET122     -0.2867
    171  CB        23.2080   -4.8640  -31.6030 C.3   122  MET122      0.0387
    172  CG        23.7230   -4.8930  -30.1780 C.3   122  MET122      0.0595
    173  SD        22.6680   -3.9530  -29.0510 S.3   122  MET122     -0.1393
    174  CE        22.4590   -2.4300  -29.9760 C.3   122  MET122      0.0692
    175  N         27.7190   -9.6330  -31.5710 N.3   126  TYR126     -0.1241
    176  CA        27.9270  -10.4000  -30.3430 C.3   126  TYR126      0.1605
    177  C         28.1870  -11.8800  -30.5900 C.2   126  TYR126      0.2264
    178  O         29.0550  -12.4800  -29.9510 O.2   126  TYR126     -0.2867
    179  CB        26.7090  -10.2770  -29.4320 C.3   126  TYR126      0.0534
    180  CG        26.5440   -8.9310  -28.7770 C.ar  126  TYR126     -0.0201
    181  CD1       27.6470   -8.2000  -28.3450 C.ar  126  TYR126     -0.0009
    182  CD2       25.2800   -8.3940  -28.5810 C.ar  126  TYR126     -0.0009
    183  CE1       27.4890   -6.9680  -27.7310 C.ar  126  TYR126      0.0417
    184  CE2       25.1120   -7.1660  -27.9720 C.ar  126  TYR126      0.0417
    185  CZ        26.2150   -6.4580  -27.5470 C.ar  126  TYR126      0.1957
    186  OH        26.0310   -5.2370  -26.9450 O.3   126  TYR126     -0.2866
    187  N         24.7180    3.9700  -33.0030 N.3   204  HIS204     -0.1241
    188  CA        24.5240    4.5370  -31.6770 C.3   204  HIS204      0.1621
    189  C         24.0330    5.9840  -31.7350 C.2   204  HIS204      0.2264
    190  O         23.1990    6.3940  -30.9300 O.2   204  HIS204     -0.2867
    191  CB        25.8040    4.4240  -30.8470 C.3   204  HIS204      0.0745
    192  CG        25.5960    4.6870  -29.3910 C.ar  204  HIS204      0.0817
    193  ND1       25.8040    5.9250  -28.8210 N.ar  204  HIS204     -0.2268
    194  CD2       25.1790    3.8780  -28.3890 C.ar  204  HIS204      0.1154
    195  CE1       25.5290    5.8650  -27.5320 C.ar  204  HIS204      0.1986
    196  NE2       25.1520    4.6320  -27.2430 N.ar  204  HIS204     -0.2212
    197  N         20.4220    5.7200  -32.4240 N.3   207  MET207     -0.1245
    198  CA        19.7090    5.2220  -31.2500 C.3   207  MET207      0.1570
    199  C         19.4810    6.3720  -30.2680 C.2   207  MET207      0.2261
    200  O         18.4080    6.4960  -29.6780 O.2   207  MET207     -0.2867
    201  CB        20.4780    4.0800  -30.5850 C.3   207  MET207      0.0387
    202  CG        20.5690    2.8070  -31.4270 C.3   207  MET207      0.0595
    203  SD        21.8860    1.6770  -30.8960 S.3   207  MET207     -0.1393
    204  CE        21.4270    1.3910  -29.1930 C.3   207  MET207      0.0692
    205  N         15.8480    7.8640  -28.8960 N.3   211  TRP211     -0.1241
    206  CA        15.6020    7.9840  -27.4660 C.3   211  TRP211      0.1605
    207  C         15.2630    9.4280  -27.1230 C.2   211  TRP211      0.2264
    208  O         14.2650    9.6970  -26.4590 O.2   211  TRP211     -0.2867
    209  CB        16.8200    7.5140  -26.6660 C.3   211  TRP211      0.0550
    210  CG        16.8840    6.0260  -26.4810 C.ar  211  TRP211      0.0003
    211  CD1       15.8320    5.1790  -26.2910 C.ar  211  TRP211      0.0946
    212  CD2       18.0620    5.2070  -26.4860 C.ar  211  TRP211      0.0152
    213  NE1       16.2800    3.8850  -26.1610 N.ar  211  TRP211     -0.2442
    214  CE2       17.6460    3.8740  -26.2790 C.ar  211  TRP211      0.0810
    215  CE3       19.4290    5.4700  -26.6370 C.ar  211  TRP211      0.0012
    216  CZ2       18.5440    2.8080  -26.2180 C.ar  211  TRP211      0.0191
    217  CZ3       20.3250    4.4080  -26.5770 C.ar  211  TRP211      0.0001
    218  CH2       19.8780    3.0950  -26.3710 C.ar  211  TRP211      0.0015
    219  N         19.5780   11.1490  -20.5000 N.3   218  PHE218     -0.1241
    220  CA        20.7910   10.4630  -20.0880 C.3   218  PHE218      0.1605
    221  C         21.4230   11.2310  -18.9370 C.2   218  PHE218      0.2264
    222  O         20.8450   12.1930  -18.4350 O.2   218  PHE218     -0.2867
    223  CB        21.7470   10.3280  -21.2730 C.3   218  PHE218      0.0534
    224  CG        21.1100    9.6880  -22.4770 C.ar  218  PHE218     -0.0203
    225  CD1       20.4430   10.4580  -23.4160 C.ar  218  PHE218     -0.0042
    226  CD2       21.1430    8.3130  -22.6490 C.ar  218  PHE218     -0.0042
    227  CE1       19.8390    9.8710  -24.5140 C.ar  218  PHE218     -0.0003
    228  CE2       20.5380    7.7190  -23.7460 C.ar  218  PHE218     -0.0003
    229  CZ        19.8900    8.5000  -24.6810 C.ar  218  PHE218     -0.0000
    230  N         27.2480   11.0590  -19.6040 N.3   222  LEU222     -0.1245
    231  CA        27.0110   10.5210  -20.9460 C.3   222  LEU222      0.1561
    232  C         26.6940   11.6250  -21.9600 C.2   222  LEU222      0.2260
    233  O         27.1050   11.5510  -23.1150 O.2   222  LEU222     -0.2867
    234  CB        25.8760    9.4900  -20.9240 C.3   222  LEU222      0.0270
    235  CG        26.1280    8.2420  -20.0750 C.3   222  LEU222      0.0019
    236  CD1       24.8790    7.3880  -19.9650 C.3   222  LEU222      0.0001
    237  CD2       27.2890    7.4320  -20.6360 C.3   222  LEU222      0.0001
    238  N         29.1950   11.8590  -25.1110 N.3   226  TRP226     -0.1241
    239  CA        28.4930   11.5420  -26.3530 C.3   226  TRP226      0.1605
    240  C         28.0120   12.7850  -27.0860 C.2   226  TRP226      0.2264
    241  O         27.4500   12.6880  -28.1730 O.2   226  TRP226     -0.2867
    242  CB        27.3190   10.5960  -26.0870 C.3   226  TRP226      0.0550
    243  CG        27.7580    9.1830  -25.8580 C.ar  226  TRP226      0.0003
    244  CD1       28.9580    8.6300  -26.2120 C.ar  226  TRP226      0.0946
    245  CD2       27.0130    8.1440  -25.2110 C.ar  226  TRP226      0.0152
    246  NE1       29.0010    7.3090  -25.8340 N.ar  226  TRP226     -0.2442
    247  CE2       27.8220    6.9860  -25.2170 C.ar  226  TRP226      0.0810
    248  CE3       25.7430    8.0790  -24.6290 C.ar  226  TRP226      0.0012
    249  CZ2       27.3980    5.7770  -24.6660 C.ar  226  TRP226      0.0191
    250  CZ3       25.3230    6.8790  -24.0850 C.ar  226  TRP226      0.0001
    251  CH2       26.1490    5.7420  -24.1080 C.ar  226  TRP226      0.0015
@<TRIPOS>BOND
     1   167   168    1
     2   187   188    1
     3   168   169    1
     4   168   171    1
     5   197   198    1
     6   169   170    2
     7   189   188    1
     8   189   190    2
     9   188   191    1
    10   171   172    1
    11   175   176    1
    12   202   203    1
    13   202   201    1
    14   198   201    1
    15   198   199    1
    16   161   162    2
    17   161   160    1
    18   203   204    1
    19   191   192    1
    20   177   176    1
    21   177   178    2
    22   165   163    1
    23   176   179    1
    24   199   200    2
    25   172   173    1
    26   107   106   ar
    27   107   105   ar
    28   174   173    1
    29   106   104   ar
    30   160   163    1
    31   160   159    1
    32   105   103   ar
    33   104   102   ar
    34   179   180    1
    35   192   193   ar
    36   192   194   ar
    37   163   164    1
    38    87    86    1
    39   103   102   ar
    40   102   101    1
    41   205   206    1
    42   193   195   ar
    43   180   182   ar
    44   180   181   ar
    45    86    88    1
    46    86    83    1
    47   182   184   ar
    48   101    98    1
    49   194   196   ar
    50   181   183   ar
    51   241   240    2
    52   164   166    1
    53   184   185   ar
    54   183   185   ar
    55    84    83    1
    56    84    85    2
    57   185   186    1
    58   195   196   ar
    59   206   207    1
    60   206   209    1
    61    83    82    1
    62   207   208    2
    63   240   239    1
    64    98    99    1
    65    98    97    1
    66   100    99    2
    67   209   210    1
    68   215   217   ar
    69   215   212   ar
    70   217   218   ar
    71   212   210   ar
    72   212   214   ar
    73   210   211   ar
    74   218   216   ar
    75   239   242    1
    76   239   238    1
    77   211   213   ar
    78   214   216   ar
    79   214   213   ar
    80   154   153    2
    81   157   155    1
    82   244   243   ar
    83   244   246   ar
    84    97    91   am
    85   242   243    1
    86   243   245   ar
    87   246   247   ar
    88   153   152    1
    89   124   123    1
    90   247   245   ar
    91   247   249   ar
    92   245   248   ar
    93    91    92    2
    94    91    90    1
    95   155   152    1
    96   155   156    1
    97    89    90    1
    98   229   227   ar
    99   229   228   ar
   100   249   251   ar
   101   248   250   ar
   102   227   225   ar
   103   152   151    1
   104   251   250   ar
   105   158   156    1
   106    90    93    1
   107    93    94    1
   108   121   122    2
   109   121   120    1
   110   123   120    1
   111   108   109    1
   112   228   226   ar
   113   225   224   ar
   114   120   119    1
   115    94    95    1
   116   233   232    2
   117    95    96    1
   118    42    40   ar
   119    42    43   ar
   120   119   110   am
   121    40    38   ar
   122   226   224   ar
   123   224   223    1
   124   109   110    1
   125   109   112    1
   126   110   111    2
   127    43    41   ar
   128    50    49    1
   129   232   231    1
   130   146   145    2
   131   125   126    1
   132   127   128    2
   133   127   126    1
   134    38    37    1
   135    38    39   ar
   136   112   113    1
   137   223   220    1
   138   145   144    1
   139    37    34    1
   140    41    39   ar
   141   231   234    1
   142   231   230    1
   143   234   235    1
   144   126   129    1
   145    49    51    1
   146    49    48    1
   147   237   235    1
   148    48    45    1
   149   129   131    1
   150   129   130    1
   151   219   220    1
   152    81    79   ar
   153    81    80   ar
   154    34    33    1
   155    34    35    1
   156   148   150    1
   157   148   149    1
   158   148   147    1
   159    71    68    1
   160    79    77   ar
   161   220   221    1
   162   235   236    1
   163   113   114    1
   164   144   147    1
   165   144   143    1
   166    57    56    1
   167   130   132    1
   168   114   115    1
   169    36    35    2
   170    80    78   ar
   171    47    46    2
   172    68    69    1
   173    68    67    1
   174    45    46    1
   175    45    44    1
   176    46    52   am
   177    77    78   ar
   178    77    76    1
   179   221   222    2
   180    52    53    1
   181    70    69    2
   182    53    56    1
   183    53    54    1
   184    56    58    1
   185    67    61   am
   186    76    73    1
   187   117   116    1
   188   115   116    2
   189    75    74    2
   190    74    73    1
   191   116   118    1
   192    55    54    2
   193    61    62    2
   194    61    60    1
   195    63    64    1
   196    63    60    1
   197    73    72    1
   198   142   141    2
   199    64    65    1
   200    60    59    1
   201   141   140    1
   202   140   139    1
   203    31    29    1
   204    32    30    1
   205    30    29    1
   206   139   135   am
   207    29    26    1
   208    65    66    1
   209    28    27    2
   210    17    16    1
   211    16    15    1
   212    26    27    1
   213    26    25    1
   214    15    14    1
   215   135   136    2
   216   135   134    1
   217   138   137    1
   218   133   134    1
   219    14    11    1
   220    24    22    1
   221   134   137    1
   222    21    20    2
   223    22    19    1
   224    22    23    1
   225    19    20    1
   226    19    18    1
   227    10    11    1
   228    11    12    1
   229     9     7   am
   230     8     7    2
   231    12    13    2
   232     7     6    1
   233     1     2    1
   234     2     3    1
   235     2     5    1
   236     3     4    2
   237     6     5    1
