@<TRIPOS>MOLECULE
tmp/3rv5A01.pdb
 86 79 0 0 0
SMALL
GASTEIGER

@<TRIPOS>ATOM
      1  N         27.8000   14.3500   -5.2290 N.3    22  PHE22      -0.1241
      2  CA        26.4860   13.8760   -5.5970 C.3    22  PHE22       0.1605
      3  C         25.7210   13.2790   -4.4120 C.2    22  PHE22       0.2264
      4  O         24.5200   13.4930   -4.2990 O.2    22  PHE22      -0.2867
      5  CB        26.5780   12.9220   -6.7820 C.3    22  PHE22       0.0534
      6  CG        25.2440   12.5200   -7.3270 C.ar   22  PHE22      -0.0203
      7  CD1       24.6120   11.3560   -6.8780 C.ar   22  PHE22      -0.0042
      8  CD2       24.5850   13.3410   -8.2570 C.ar   22  PHE22      -0.0042
      9  CE1       23.3280   10.9900   -7.3740 C.ar   22  PHE22      -0.0003
     10  CE2       23.3060   12.9660   -8.7790 C.ar   22  PHE22      -0.0003
     11  CZ        22.6790   11.8000   -8.3280 C.ar   22  PHE22      -0.0000
     12  N         24.3670   16.2480   -2.6140 N.3    25  PHE25      -0.1241
     13  CA        23.2280   16.6790   -3.4270 C.3    25  PHE25       0.1605
     14  C         21.9200   15.9330   -3.0800 C.2    25  PHE25       0.2264
     15  O         20.9020   16.5660   -2.7990 O.2    25  PHE25      -0.2867
     16  CB        23.5820   16.5920   -4.9270 C.3    25  PHE25       0.0534
     17  CG        22.5400   17.1350   -5.8340 C.ar   25  PHE25      -0.0203
     18  CD1       21.8470   18.2980   -5.5110 C.ar   25  PHE25      -0.0042
     19  CD2       22.2180   16.4630   -7.0090 C.ar   25  PHE25      -0.0042
     20  CE1       20.8790   18.7880   -6.3320 C.ar   25  PHE25      -0.0003
     21  CE2       21.2260   16.9650   -7.8570 C.ar   25  PHE25      -0.0003
     22  CZ        20.5530   18.1060   -7.5000 C.ar   25  PHE25      -0.0000
     23  N         23.3430   23.6780   -2.6010 N.3    39  LEU39      -0.1245
     24  CA        24.0390   23.7220   -3.8460 C.3    39  LEU39       0.1561
     25  C         25.4690   24.2790   -3.6790 C.2    39  LEU39       0.2260
     26  O         26.3380   23.8710   -4.4130 O.2    39  LEU39      -0.2867
     27  CB        23.2860   24.5420   -4.9260 C.3    39  LEU39       0.0270
     28  CG        21.9370   24.0110   -5.4080 C.3    39  LEU39       0.0019
     29  CD1       21.2660   24.9970   -6.3950 C.3    39  LEU39       0.0001
     30  CD2       22.1680   22.6520   -6.0130 C.3    39  LEU39       0.0001
     31  N         27.6710   21.2260   -2.4690 N.3    42  VAL42      -0.1245
     32  CA        27.9710   20.3930   -3.6580 C.3    42  VAL42       0.1561
     33  C         29.1140   21.0310   -4.4820 C.2    42  VAL42       0.2260
     34  O         30.1250   20.3860   -4.7490 O.2    42  VAL42      -0.2867
     35  CB        26.6790   20.2500   -4.5070 C.3    42  VAL42       0.0252
     36  CG1       26.9350   19.5360   -5.8390 C.3    42  VAL42       0.0019
     37  CG2       25.6560   19.5320   -3.7250 C.3    42  VAL42       0.0019
     38  N         33.1800   19.8940   -5.2410 N.3    44  LEU44      -0.1245
     39  CA        33.6890   19.8340   -6.6040 C.3    44  LEU44       0.1561
     40  C         34.9560   20.6900   -6.7890 C.2    44  LEU44       0.2260
     41  O         35.6050   20.5810   -7.8350 O.2    44  LEU44      -0.2867
     42  CB        32.6270   20.2080   -7.6340 C.3    44  LEU44       0.0270
     43  CG        31.4560   19.2200   -7.6640 C.3    44  LEU44       0.0019
     44  CD1       30.3850   19.6930   -8.6450 C.3    44  LEU44       0.0001
     45  CD2       31.9560   17.8000   -8.0150 C.3    44  LEU44       0.0001
     46  N         35.0570   24.1540   -6.2910 N.3    46  GLN46      -0.1245
     47  CA        34.7000   25.4610   -6.7980 C.3    46  GLN46       0.1566
     48  C         34.2860   26.3450   -5.6410 C.2    46  GLN46       0.2260
     49  O         33.8560   25.8520   -4.5940 O.2    46  GLN46      -0.2867
     50  CB        33.4740   25.3660   -7.7000 C.3    46  GLN46       0.0367
     51  CG        33.4390   24.2400   -8.6250 C.3    46  GLN46       0.0905
     52  CD        32.2870   24.4040   -9.6020 C.2    46  GLN46       0.2608
     53  OE1       31.1490   24.6920   -9.1960 O.2    46  GLN46      -0.2717
     54  NE2       32.5730   24.2420  -10.8930 N.am   46  GLN46      -0.0878
     55  N         28.8460   30.2600   -5.7460 N.3    49  THR49      -0.1218
     56  CA        28.3600   31.5180   -6.2690 C.3    49  THR49       0.1862
     57  C         26.9300   31.7390   -5.7380 C.2    49  THR49       0.2287
     58  O         25.9740   31.5730   -6.4970 O.2    49  THR49      -0.2866
     59  CB        28.4110   31.5250   -7.8080 C.3    49  THR49       0.1770
     60  OG1       27.7290   30.3690   -8.3030 O.3    49  THR49      -0.2211
     61  CG2       29.9040   31.5220   -8.3310 C.3    49  THR49       0.0375
     62  N         23.1430   31.3560   -7.7650 N.3    53  LEU53      -0.1245
     63  CA        22.2750   30.2510   -7.3760 C.3    53  LEU53       0.1561
     64  C         20.8830   30.7380   -6.9140 C.2    53  LEU53       0.2260
     65  O         19.8600   30.2660   -7.4230 O.2    53  LEU53      -0.2867
     66  CB        22.9550   29.4010   -6.2890 C.3    53  LEU53       0.0270
     67  CG        24.2000   28.6560   -6.8040 C.3    53  LEU53       0.0019
     68  CD1       24.9030   27.9030   -5.6270 C.3    53  LEU53       0.0001
     69  CD2       23.8280   27.7320   -7.9900 C.3    53  LEU53       0.0001
     70  N         12.2170   22.3690   -9.0380 N.3    72  PHE72      -0.1241
     71  CA        13.4610   21.7930   -9.4870 C.3    72  PHE72       0.1605
     72  C         13.3490   21.2490  -10.9580 C.2    72  PHE72       0.2264
     73  O         14.2600   21.4330  -11.7520 O.2    72  PHE72      -0.2867
     74  CB        13.9290   20.7330   -8.5420 C.3    72  PHE72       0.0534
     75  CG        15.1910   20.0190   -9.0180 C.ar   72  PHE72      -0.0203
     76  CD1       16.4590   20.5380   -8.7470 C.ar   72  PHE72      -0.0042
     77  CD2       15.1040   18.8210   -9.7360 C.ar   72  PHE72      -0.0042
     78  CE1       17.5920   19.8740   -9.1810 C.ar   72  PHE72      -0.0003
     79  CE2       16.2090   18.1860  -10.1770 C.ar   72  PHE72      -0.0003
     80  CZ        17.4480   18.6880   -9.9140 C.ar   72  PHE72      -0.0000
     81  N         18.6100   25.0220  -17.0830 N.3    77  CYS77      -0.1235
     82  CA        20.1220   24.9480  -17.1640 C.3    77  CYS77       0.1677
     83  C         20.5970   24.4380  -18.5140 C.2    77  CYS77       0.2270
     84  O         21.6600   24.8800  -19.0260 O.2    77  CYS77      -0.2867
     85  CB        20.8130   24.0770  -16.0410 C.3    77  CYS77       0.0956
     86  SG        22.6640   23.3390  -16.3450 S.3    77  CYS77      -0.0801
@<TRIPOS>BOND
     1    84    83    2
     2    83    82    1
     3    82    81    1
     4    82    85    1
     5    86    85    1
     6    73    72    2
     7    72    71    1
     8    54    52   am
     9    79    80   ar
    10    79    77   ar
    11    80    78   ar
    12    77    75   ar
    13    52    53    2
    14    52    51    1
    15    71    70    1
    16    71    74    1
    17    78    76   ar
    18    75    76   ar
    19    75    74    1
    20    10    11   ar
    21    10     8   ar
    22    44    43    1
    23    51    50    1
    24    61    59    1
    25    11     9   ar
    26    60    59    1
    27     8     6   ar
    28    45    43    1
    29    69    67    1
    30    21    22   ar
    31    21    19   ar
    32    41    40    2
    33    59    56    1
    34    62    63    1
    35    50    47    1
    36    43    42    1
    37    42    39    1
    38    22    20   ar
    39    65    64    2
    40    63    64    1
    41    63    66    1
    42     9     7   ar
    43     6     7   ar
    44     6     5    1
    45    19    17   ar
    46    67    66    1
    47    67    68    1
    48    47    46    1
    49    47    48    1
    50    40    39    1
    51     5     2    1
    52    39    38    1
    53    58    57    2
    54    29    28    1
    55    20    18   ar
    56    56    55    1
    57    56    57    1
    58    30    28    1
    59    36    35    1
    60    17    18   ar
    61    17    16    1
    62    48    49    2
    63     2     1    1
    64     2     3    1
    65    28    27    1
    66    16    13    1
    67    27    24    1
    68    34    33    2
    69    35    37    1
    70    35    32    1
    71    33    32    1
    72    26    25    2
    73     3     4    2
    74    24    25    1
    75    24    23    1
    76    32    31    1
    77    13    14    1
    78    13    12    1
    79    14    15    2
