@<TRIPOS>MOLECULE
tmp/3rv6B00.pdb
 148 136 0 0 0
SMALL
GASTEIGER

@<TRIPOS>ATOM
      1  N         16.0700   74.1420   40.1780 N.3   191  LYS191     -0.1245
      2  CA        15.5770   75.0500   39.1330 C.3   191  LYS191      0.1561
      3  C         16.1230   74.6660   37.7730 C.2   191  LYS191      0.2260
      4  O         17.2610   74.2120   37.6810 O.2   191  LYS191     -0.2867
      5  CB        16.0310   76.4880   39.4730 C.3   191  LYS191      0.0271
      6  CG        15.3950   77.5830   38.6350 C.3   191  LYS191      0.0035
      7  CD        16.0010   78.9180   39.0170 C.3   191  LYS191      0.0206
      8  CE        15.4110   80.0240   38.1900 C.3   191  LYS191      0.1093
      9  NZ        15.3750   81.3030   38.9740 N.3   191  LYS191     -0.1314
     10  N         15.8320   76.2430   33.4910 N.3   193  ILE193     -0.1245
     11  CA        15.2770   77.2090   32.5460 C.3   193  ILE193      0.1561
     12  C         14.8940   76.3860   31.3210 C.2   193  ILE193      0.2260
     13  O         15.7470   75.7150   30.7550 O.2   193  ILE193     -0.2867
     14  CB        16.2750   78.3700   32.2000 C.3   193  ILE193      0.0252
     15  CG1       16.3030   79.4430   33.3090 C.3   193  ILE193      0.0019
     16  CG2       15.9350   79.0300   30.8410 C.3   193  ILE193      0.0019
     17  CD1       16.8430   79.0000   34.7040 C.3   193  ILE193      0.0001
     18  N         19.8540   91.7230   30.0140 N.3   238  GLU238     -0.1231
     19  CA        20.0300   90.9410   31.2510 C.3   238  GLU238      0.1699
     20  C         21.4160   90.8500   31.7850 C.2   238  GLU238      0.2592
     21  O         21.6160   90.9970   32.9950 O.2   238  GLU238     -0.2718
     22  CB        19.4280   89.5200   31.1520 C.3   238  GLU238      0.0402
     23  CG        17.9230   89.4960   30.9970 C.3   238  GLU238      0.1161
     24  CD        17.4560   89.5830   29.5580 C.2   238  GLU238      0.3649
     25  OE1       18.3120   89.5540   28.6480 O.co2 238  GLU238     -0.2457
     26  OE2       16.2310   89.6740   29.3380 O.co2 238  GLU238     -0.2457
     27  N         22.3760   90.5350   30.9140 N.am  239  LEU239     -0.1980
     28  CA        23.7160   90.2730   31.3850 C.3   239  LEU239      0.1596
     29  C         24.7440   90.4320   30.3050 C.2   239  LEU239      0.2287
     30  O         24.5520   89.9400   29.2060 O.2   239  LEU239     -0.2864
     31  CB        23.7620   88.7990   31.8910 C.3   239  LEU239      0.0297
     32  CG        25.0360   88.3170   32.6140 C.3   239  LEU239      0.0022
     33  CD1       25.2610   89.1410   33.8770 C.3   239  LEU239      0.0001
     34  CD2       24.8780   86.8980   33.0230 C.3   239  LEU239      0.0001
     35  N         22.6380   91.8590   35.6260 N.3   254  LEU254     -0.1231
     36  CA        21.9650   90.6780   36.1810 C.3   254  LEU254      0.1693
     37  C         20.4700   90.9550   36.3890 C.2   254  LEU254      0.2592
     38  O         19.8980   90.5450   37.3990 O.2   254  LEU254     -0.2718
     39  CB        22.6280   90.2290   37.5180 C.3   254  LEU254      0.0284
     40  CG        23.9320   89.5060   37.3860 C.3   254  LEU254      0.0019
     41  CD1       24.7770   89.6680   38.6310 C.3   254  LEU254      0.0001
     42  CD2       23.7100   88.0510   36.9730 C.3   254  LEU254      0.0001
     43  N         19.8460   91.6660   35.4500 N.am  255  ALA255     -0.1966
     44  CA        18.4410   92.0480   35.5930 C.3   255  ALA255      0.1728
     45  C         17.4770   91.3270   34.6440 C.2   255  ALA255      0.2616
     46  O         17.4420   91.6400   33.4590 O.2   255  ALA255     -0.2715
     47  CB        18.3030   93.5480   35.4350 C.3   255  ALA255      0.0334
     48  N         16.6710   90.4130   35.1940 N.am  256  GLY256     -0.1955
     49  CA        15.6590   89.6700   34.4510 C.3   256  GLY256      0.1869
     50  C         14.3360   90.4040   34.3320 C.2   256  GLY256      0.2309
     51  O         14.2860   91.6380   34.3650 O.2   256  GLY256     -0.2863
     52  N         13.9690   87.6700   43.0130 N.3   264  GLU264     -0.1245
     53  CA        14.5260   87.2580   41.7560 C.3   264  GLU264      0.1567
     54  C         15.8960   87.8570   41.5390 C.2   264  GLU264      0.2260
     55  O         16.7990   87.1760   41.2030 O.2   264  GLU264     -0.2867
     56  CB        13.5660   87.5580   40.6320 C.3   264  GLU264      0.0388
     57  CG        12.3940   86.6160   40.6800 C.3   264  GLU264      0.1160
     58  CD        11.4820   86.7500   39.5030 C.2   264  GLU264      0.3649
     59  OE1       10.8860   85.7460   39.1460 O.co2 264  GLU264     -0.2457
     60  OE2       11.3600   87.8460   38.9590 O.co2 264  GLU264     -0.2457
     61  N         19.6380   85.8110   41.3590 N.3   268  SER268     -0.1217
     62  CA        20.5500   85.9800   40.2130 C.3   268  SER268      0.1889
     63  C         21.9580   86.3440   40.6890 C.2   268  SER268      0.2288
     64  O         22.9330   85.7500   40.2240 O.2   268  SER268     -0.2866
     65  CB        20.0260   87.0510   39.2610 C.3   268  SER268      0.2089
     66  OG        18.9520   86.5330   38.5010 O.3   268  SER268     -0.2183
     67  N         22.3340   81.5200   35.0340 N.3   324  THR324     -0.1203
     68  CA        21.0400   82.2190   35.0510 C.3   324  THR324      0.1994
     69  C         20.0770   81.7810   33.9230 C.2   324  THR324      0.2617
     70  O         18.8610   82.0140   34.0230 O.2   324  THR324     -0.2717
     71  CB        21.2310   83.7210   35.1420 C.3   324  THR324      0.1784
     72  OG1       21.9540   84.1580   33.9940 O.3   324  THR324     -0.2211
     73  CG2       21.8880   84.1430   36.4600 C.3   324  THR324      0.0376
     74  N         20.6110   81.1290   32.8670 N.am  325  ALA325     -0.1979
     75  CA        19.7740   80.6070   31.7760 C.3   325  ALA325      0.1597
     76  C         19.8520   79.0670   31.7210 C.2   325  ALA325      0.2287
     77  O         19.4710   78.4610   30.7280 O.2   325  ALA325     -0.2864
     78  CB        20.2090   81.2240   30.4540 C.3   325  ALA325      0.0319
     79  N         20.6950   80.6440   21.2090 N.3   348  TYR348     -0.1241
     80  CA        19.7880   80.9070   22.3300 C.3   348  TYR348      0.1605
     81  C         20.4470   80.5570   23.6790 C.2   348  TYR348      0.2264
     82  O         20.7920   79.3950   23.9310 O.2   348  TYR348     -0.2867
     83  CB        18.4620   80.1370   22.1950 C.3   348  TYR348      0.0534
     84  CG        17.5750   80.4020   23.3840 C.ar  348  TYR348     -0.0201
     85  CD1       16.9730   81.6430   23.5630 C.ar  348  TYR348     -0.0009
     86  CD2       17.4130   79.4440   24.3820 C.ar  348  TYR348     -0.0009
     87  CE1       16.2030   81.9140   24.6880 C.ar  348  TYR348      0.0417
     88  CE2       16.6310   79.6960   25.5010 C.ar  348  TYR348      0.0417
     89  CZ        16.0290   80.9330   25.6480 C.ar  348  TYR348      0.1957
     90  OH        15.2630   81.2010   26.7490 O.3   348  TYR348     -0.2866
     91  N         25.0750   87.9540   26.9660 N.3   365  LEU365     -0.1245
     92  CA        24.2110   86.7630   27.0660 C.3   365  LEU365      0.1561
     93  C         23.0030   87.0520   26.2020 C.2   365  LEU365      0.2260
     94  O         22.4110   88.1210   26.3170 O.2   365  LEU365     -0.2867
     95  CB        23.7900   86.4750   28.5320 C.3   365  LEU365      0.0270
     96  CG        22.5810   85.5310   28.7230 C.3   365  LEU365      0.0019
     97  CD1       22.9130   84.0990   28.2730 C.3   365  LEU365      0.0001
     98  CD2       22.0570   85.5980   30.1670 C.3   365  LEU365      0.0001
     99  N         19.2340   86.0260   24.9490 N.3   367  LEU367     -0.1231
    100  CA        18.0270   85.2690   25.2600 C.3   367  LEU367      0.1693
    101  C         16.9000   85.7550   24.3310 C.2   367  LEU367      0.2591
    102  O         16.3670   84.9680   23.5880 O.2   367  LEU367     -0.2718
    103  CB        17.6260   85.4720   26.7620 C.3   367  LEU367      0.0284
    104  CG        18.5950   84.9600   27.8100 C.3   367  LEU367      0.0019
    105  CD1       18.2370   85.4920   29.1770 C.3   367  LEU367      0.0001
    106  CD2       18.6270   83.4610   27.8270 C.3   367  LEU367      0.0001
    107  N         16.6270   87.0640   24.2900 N.am  368  ARG368     -0.1980
    108  CA        15.6000   87.5910   23.3730 C.3   368  ARG368      0.1597
    109  C         16.1060   87.7620   21.9880 C.2   368  ARG368      0.2287
    110  O         16.7450   88.7850   21.6980 O.2   368  ARG368     -0.2864
    111  CB        14.9480   88.8980   23.8740 C.3   368  ARG368      0.0334
    112  CG        13.6690   89.2640   23.0650 C.3   368  ARG368      0.0492
    113  CD        12.3800   88.5090   23.4640 C.3   368  ARG368      0.2205
    114  NE        12.6180   87.0820   23.6620 N.pl3 368  ARG368     -0.0865
    115  CZ        12.9120   86.5300   24.8320 C.cat 368  ARG368      0.5346
    116  NH1       12.9240   87.2680   25.9400 N.pl3 368  ARG368      0.1354
    117  NH2       13.2400   85.2520   24.9000 N.pl3 368  ARG368      0.1354
    118  N         12.0620   81.5550   27.0400 N.3   382  GLY382     -0.1210
    119  CA        11.9430   80.6170   28.1360 C.3   382  GLY382      0.1956
    120  C         11.5780   81.2230   29.4700 C.2   382  GLY382      0.2612
    121  O         11.2090   82.3900   29.5410 O.2   382  GLY382     -0.2717
    122  N         11.6700   80.4160   30.5330 N.am  383  ALA383     -0.1965
    123  CA        11.2860   80.8060   31.8830 C.3   383  ALA383      0.1728
    124  C         12.0150   79.9300   32.8770 C.2   383  ALA383      0.2616
    125  O         12.3280   78.7890   32.5660 O.2   383  ALA383     -0.2715
    126  CB         9.7610   80.6210   32.0410 C.3   383  ALA383      0.0334
    127  N         12.2430   80.4460   34.0760 N.am  384  GLY384     -0.1955
    128  CA        12.8330   79.6760   35.1650 C.3   384  GLY384      0.1869
    129  C         11.7490   78.8150   35.7840 C.2   384  GLY384      0.2309
    130  O         10.6930   79.3180   36.1880 O.2   384  GLY384     -0.2863
    131  N          4.2350   83.3070   30.6600 N.3   397  GLU397     -0.1245
    132  CA         5.4960   84.0200   30.9080 C.3   397  GLU397      0.1567
    133  C          6.3470   84.1030   29.6170 C.2   397  GLU397      0.2260
    134  O          6.9060   85.1590   29.3210 O.2   397  GLU397     -0.2867
    135  CB         6.2760   83.3440   32.0490 C.3   397  GLU397      0.0388
    136  CG         7.6290   83.9710   32.3590 C.3   397  GLU397      0.1160
    137  CD         7.6500   85.2730   33.1350 C.2   397  GLU397      0.3649
    138  OE1        6.5710   85.8660   33.3660 O.co2 397  GLU397     -0.2457
    139  OE2        8.7650   85.7030   33.5100 O.co2 397  GLU397     -0.2457
    140  N          7.6130   87.4060   27.4930 N.3   401  LYS401     -0.1245
    141  CA         8.9910   87.5720   27.0330 C.3   401  LYS401      0.1561
    142  C          9.0480   87.7980   25.5340 C.2   401  LYS401      0.2260
    143  O          9.7500   88.7110   25.1040 O.2   401  LYS401     -0.2867
    144  CB         9.8780   86.3950   27.4620 C.3   401  LYS401      0.0271
    145  CG         9.9940   86.3730   28.9740 C.3   401  LYS401      0.0035
    146  CD        11.0540   85.4950   29.4730 C.3   401  LYS401      0.0206
    147  CE        11.0730   85.5010   30.9760 C.3   401  LYS401      0.1093
    148  NZ        11.8850   84.3940   31.5040 N.3   401  LYS401     -0.1314
@<TRIPOS>BOND
     1    79    80    1
     2   110   109    2
     3   109   108    1
     4    83    80    1
     5    83    84    1
     6    80    81    1
     7   112   113    1
     8   112   111    1
     9   108   111    1
    10   108   107    1
    11    84    85   ar
    12    84    86   ar
    13   113   114    1
    14    85    87   ar
    15   102   101    2
    16   114   115    2
    17    81    82    2
    18   107   101   am
    19   101   100    1
    20    86    88   ar
    21    87    89   ar
    22   115   117    1
    23   115   116    1
    24    99   100    1
    25   143   142    2
    26   100   103    1
    27    88    89   ar
    28   142   141    1
    29    89    90    1
    30    93    94    2
    31    93    92    1
    32   103   104    1
    33    91    92    1
    34   141   144    1
    35   141   140    1
    36   118   119    1
    37    92    95    1
    38   144   145    1
    39   104   106    1
    40   104   105    1
    41   119   120    1
    42    97    96    1
    43    95    96    1
    44    25    24   ar
    45    96    98    1
    46   145   146    1
    47    30    29    2
    48   134   133    2
    49    26    24   ar
    50   120   121    2
    51   120   122   am
    52   146   147    1
    53    24    23    1
    54   133   132    1
    55    18    19    1
    56    29    28    1
    57    78    75    1
    58   122   123    1
    59   131   132    1
    60    77    76    2
    61    13    12    2
    62    16    14    1
    63   132   135    1
    64    27    28    1
    65    27    20   am
    66   147   148    1
    67    23    22    1
    68    22    19    1
    69    19    20    1
    70    12    11    1
    71    28    31    1
    72    76    75    1
    73    75    74    1
    74    20    21    2
    75   123   126    1
    76   123   124    1
    77    31    32    1
    78   135   136    1
    79    14    11    1
    80    14    15    1
    81   136   137    1
    82    11    10    1
    83   125   124    2
    84    32    34    1
    85    32    33    1
    86    74    69   am
    87   124   127   am
    88   137   138   ar
    89   137   139   ar
    90    15    17    1
    91    46    45    2
    92    69    70    2
    93    69    68    1
    94    72    71    1
    95   127   128    1
    96    50    51    2
    97    50    49    1
    98    49    48    1
    99    45    48   am
   100    45    44    1
   101    67    68    1
   102    68    71    1
   103    71    73    1
   104   128   129    1
   105    47    44    1
   106    43    44    1
   107    43    37   am
   108    35    36    1
   109   129   130    2
   110    36    37    1
   111    36    39    1
   112    37    38    2
   113    42    40    1
   114    40    39    1
   115    40    41    1
   116     4     3    2
   117     3     2    1
   118     8     9    1
   119     8     7    1
   120    66    65    1
   121     6     7    1
   122     6     5    1
   123    60    58   ar
   124     2     5    1
   125     2     1    1
   126    59    58   ar
   127    65    62    1
   128    58    57    1
   129    62    63    1
   130    62    61    1
   131    64    63    2
   132    56    57    1
   133    56    53    1
   134    55    54    2
   135    54    53    1
   136    53    52    1
