@<TRIPOS>MOLECULE
tmp/3rv6A02.pdb
 89 85 0 0 0
SMALL
GASTEIGER

@<TRIPOS>ATOM
      1  N         -7.3130   32.4010    4.6960 N.3    22  VAL22      -0.1231
      2  CA        -8.3510   31.9980    3.7340 C.3    22  VAL22       0.1692
      3  C         -9.2800   33.1450    3.3160 C.2    22  VAL22       0.2591
      4  O         -9.5120   33.3130    2.1240 O.2    22  VAL22      -0.2718
      5  CB        -9.1370   30.7240    4.1590 C.3    22  VAL22       0.0266
      6  CG1      -10.2180   30.3620    3.1310 C.3    22  VAL22       0.0020
      7  CG2       -8.1950   29.5450    4.3470 C.3    22  VAL22       0.0020
      8  N         -9.8710   33.8710    4.2700 N.am   23  VAL23      -0.1980
      9  CA       -10.8070   34.9590    3.9140 C.3    23  VAL23       0.1595
     10  C        -10.1500   36.0710    3.0720 C.2    23  VAL23       0.2287
     11  O        -10.8350   36.7930    2.3400 O.2    23  VAL23      -0.2864
     12  CB       -11.6640   35.5040    5.0930 C.3    23  VAL23       0.0276
     13  CG1      -12.4150   34.3860    5.8130 C.3    23  VAL23       0.0022
     14  CG2      -10.8440   36.3240    6.0620 C.3    23  VAL23       0.0022
     15  N         -7.4120   35.3610    0.8730 N.3    25  GLU25      -0.1231
     16  CA        -6.5710   34.7610   -0.1740 C.3    25  GLU25       0.1699
     17  C         -6.8070   35.3730   -1.5680 C.2    25  GLU25       0.2593
     18  O         -5.8680   35.4250   -2.3720 O.2    25  GLU25      -0.2718
     19  CB        -6.6650   33.2310   -0.1750 C.3    25  GLU25       0.0402
     20  CG        -8.0300   32.7220   -0.6030 C.3    25  GLU25       0.1161
     21  CD        -8.2940   31.2350   -0.5330 C.2    25  GLU25       0.3649
     22  OE1       -9.3710   30.8190   -1.0200 O.co2  25  GLU25      -0.2457
     23  OE2       -7.4650   30.4940    0.0460 O.co2  25  GLU25      -0.2457
     24  N         -8.0360   35.8670   -1.8290 N.am   26  SER26      -0.1938
     25  CA        -8.4270   36.5210   -3.1040 C.3    26  SER26       0.2055
     26  C         -8.8270   37.9700   -2.8380 C.2    26  SER26       0.2642
     27  O         -8.3660   38.8540   -3.5390 O.2    26  SER26      -0.2714
     28  CB        -9.5760   35.7750   -3.7740 C.3    26  SER26       0.2130
     29  OG        -9.1810   34.4490   -4.0810 O.3    26  SER26      -0.2179
     30  N         -9.6240   38.2150   -1.7850 N.am   27  VAL27      -0.1977
     31  CA        -9.9910   39.5770   -1.3710 C.3    27  VAL27       0.1596
     32  C         -8.7820   40.0590   -0.5750 C.2    27  VAL27       0.2287
     33  O         -8.5850   39.6720    0.5750 O.2    27  VAL27      -0.2864
     34  CB       -11.3240   39.6740   -0.5790 C.3    27  VAL27       0.0276
     35  CG1      -11.5830   41.1120   -0.1090 C.3    27  VAL27       0.0022
     36  CG2      -12.5020   39.1700   -1.4060 C.3    27  VAL27       0.0022
     37  N        -20.4010   37.5360    5.6010 N.3   140  GLY140     -0.1210
     38  CA       -21.0290   37.2050    4.3290 C.3   140  GLY140      0.1956
     39  C        -20.7900   35.7440    3.9900 C.2   140  GLY140      0.2612
     40  O        -20.2770   34.9940    4.8200 O.2   140  GLY140     -0.2717
     41  N        -21.1480   35.3360    2.7550 N.am  141  ILE141     -0.1965
     42  CA       -20.9710   33.9760    2.2310 C.3   141  ILE141      0.1727
     43  C        -19.4860   33.5890    2.2280 C.2   141  ILE141      0.2616
     44  O        -19.1580   32.4710    2.6030 O.2   141  ILE141     -0.2715
     45  CB       -21.6070   33.8520    0.8000 C.3   141  ILE141      0.0290
     46  CG1      -23.1400   33.9510    0.8690 C.3   141  ILE141      0.0022
     47  CG2      -21.2120   32.5560    0.1010 C.3   141  ILE141      0.0023
     48  CD1      -23.6950   35.1960    0.1890 C.3   141  ILE141      0.0001
     49  N        -18.5970   34.5260    1.8750 N.am  142  ARG142     -0.1963
     50  CA       -17.1390   34.2820    1.8540 C.3   142  ARG142      0.1729
     51  C        -16.6220   33.7050    3.1740 C.2   142  ARG142      0.2616
     52  O        -15.8930   32.7250    3.1800 O.2   142  ARG142     -0.2715
     53  CB       -16.3810   35.5810    1.5090 C.3   142  ARG142      0.0348
     54  CG       -14.8680   35.5230    1.6930 C.3   142  ARG142      0.0492
     55  CD       -14.1670   36.6700    0.9960 C.3   142  ARG142      0.2205
     56  NE       -14.7080   37.9820    1.3640 N.pl3 142  ARG142     -0.0865
     57  CZ       -14.0650   38.8860    2.0920 C.cat 142  ARG142      0.5346
     58  NH1      -12.8490   38.6290    2.5620 N.pl3 142  ARG142      0.1354
     59  NH2      -14.6370   40.0500    2.3680 N.pl3 142  ARG142      0.1354
     60  N        -17.0120   34.3170    4.2790 N.am  143  HIS143     -0.1973
     61  CA       -16.5910   33.9600    5.6450 C.3   143  HIS143      0.1656
     62  C        -17.1800   32.6090    6.0720 C.2   143  HIS143      0.2291
     63  O        -16.4660   31.7650    6.6300 O.2   143  HIS143     -0.2864
     64  CB       -17.0440   35.0670    6.6060 C.3   143  HIS143      0.0771
     65  CG       -16.5740   36.4300    6.1820 C.ar  143  HIS143      0.0820
     66  ND1      -17.4050   37.2990    5.4960 N.ar  143  HIS143     -0.2267
     67  CD2      -15.3440   36.9830    6.2740 C.ar  143  HIS143      0.1154
     68  CE1      -16.6680   38.3630    5.2310 C.ar  143  HIS143      0.1986
     69  NE2      -15.4230   38.2200    5.6990 N.ar  143  HIS143     -0.2212
     70  N        -18.3400   30.1830    4.0980 N.3   145  GLU145     -0.1245
     71  CA       -17.7930   29.1080    3.2630 C.3   145  GLU145      0.1567
     72  C        -16.3570   28.8050    3.6600 C.2   145  GLU145      0.2260
     73  O        -15.9380   27.6570    3.5970 O.2   145  GLU145     -0.2867
     74  CB       -17.8960   29.4700    1.7760 C.3   145  GLU145      0.0388
     75  CG       -19.3280   29.4710    1.2830 C.3   145  GLU145      0.1160
     76  CD       -19.4810   29.3590   -0.2200 C.2   145  GLU145      0.3649
     77  OE1      -18.5140   29.6880   -0.9450 O.co2 145  GLU145     -0.2457
     78  OE2      -20.5780   28.9570   -0.6730 O.co2 145  GLU145     -0.2457
     79  N        -15.3410   25.0160    4.8730 N.3   149  ARG149     -0.1245
     80  CA       -14.2130   24.4120    4.1550 C.3   149  ARG149      0.1563
     81  C        -13.1020   23.9690    5.0930 C.2   149  ARG149      0.2260
     82  O        -12.6090   22.8330    4.9840 O.2   149  ARG149     -0.2867
     83  CB       -13.7130   25.3800    3.0680 C.3   149  ARG149      0.0307
     84  CG       -12.3750   25.0610    2.4200 C.3   149  ARG149      0.0489
     85  CD       -12.0410   26.2050    1.4760 C.3   149  ARG149      0.2205
     86  NE       -10.6010   26.4030    1.3210 N.pl3 149  ARG149     -0.0865
     87  CZ       -10.0530   27.4390    0.6920 C.cat 149  ARG149      0.5346
     88  NH1      -10.8220   28.3860    0.1600 N.pl3 149  ARG149      0.1354
     89  NH2       -8.7320   27.5370    0.5880 N.pl3 149  ARG149      0.1354
@<TRIPOS>BOND
     1    29    28    1
     2    28    25    1
     3    27    26    2
     4    25    26    1
     5    25    24    1
     6    26    30   am
     7    18    17    2
     8    24    17   am
     9    30    31    1
    10    17    16    1
    11    36    34    1
    12    31    34    1
    13    31    32    1
    14    22    21   ar
    15    77    76   ar
    16    78    76   ar
    17    20    21    1
    18    20    19    1
    19    34    35    1
    20    32    33    2
    21    21    23   ar
    22    76    75    1
    23    19    16    1
    24    16    15    1
    25    47    45    1
    26    88    87    1
    27    48    46    1
    28    89    87    1
    29    87    86    2
    30    45    46    1
    31    45    42    1
    32    55    56    1
    33    55    54    1
    34    75    74    1
    35    86    85    1
    36    56    57    2
    37    85    84    1
    38    53    54    1
    39    53    50    1
    40    74    71    1
    41    50    49    1
    42    50    51    1
    43    49    43   am
    44    57    59    1
    45    57    58    1
    46     4     3    2
    47    43    42    1
    48    43    44    2
    49    42    41    1
    50    11    10    2
    51    84    83    1
    52    41    39   am
    53    83    80    1
    54    10     9    1
    55     6     5    1
    56    51    52    2
    57    51    60   am
    58    71    72    1
    59    71    70    1
    60     3     2    1
    61     3     8   am
    62    73    72    2
    63     2     5    1
    64     2     1    1
    65     9     8    1
    66     9    12    1
    67    39    38    1
    68    39    40    2
    69    80    79    1
    70    80    81    1
    71     5     7    1
    72    60    61    1
    73    38    37    1
    74    82    81    2
    75    12    13    1
    76    12    14    1
    77    68    66   ar
    78    68    69   ar
    79    66    65   ar
    80    61    62    1
    81    61    64    1
    82    69    67   ar
    83    62    63    2
    84    65    67   ar
    85    65    64    1
