@<TRIPOS>MOLECULE
tmp/3rv6A00.pdb
 172 162 0 0 0
SMALL
GASTEIGER

@<TRIPOS>ATOM
      1  N         17.8400   52.6320   35.2460 N.3   191  LYS191     -0.1245
      2  CA        17.5770   51.5290   34.3200 C.3   191  LYS191      0.1561
      3  C         17.1210   52.0420   32.9670 C.2   191  LYS191      0.2260
      4  O         16.3750   53.0190   32.9160 O.2   191  LYS191     -0.2867
      5  CB        16.4840   50.6090   34.9270 C.3   191  LYS191      0.0271
      6  CG        16.2970   49.2900   34.1930 C.3   191  LYS191      0.0035
      7  CD        15.1560   48.5460   34.8320 C.3   191  LYS191      0.0206
      8  CE        14.8420   47.3240   34.0340 C.3   191  LYS191      0.1093
      9  NZ        13.7040   46.5550   34.5890 N.3   191  LYS191     -0.1314
     10  N         15.9030   50.1820   28.9720 N.3   193  ILE193     -0.1245
     11  CA        15.7210   48.9950   28.1460 C.3   193  ILE193      0.1561
     12  C         16.2710   49.3580   26.7830 C.2   193  ILE193      0.2260
     13  O         15.8200   50.3290   26.1730 O.2   193  ILE193     -0.2867
     14  CB        14.2290   48.5420   28.0860 C.3   193  ILE193      0.0252
     15  CG1       13.8100   47.7740   29.3480 C.3   193  ILE193      0.0019
     16  CG2       13.9720   47.6750   26.8320 C.3   193  ILE193      0.0019
     17  CD1       13.7750   48.5700   30.6760 C.3   193  ILE193      0.0001
     18  N          3.9710   39.1920   26.2330 N.3   237  PRO237     -0.2116
     19  CA         4.1470   38.6930   27.6150 C.3   237  PRO237      0.1372
     20  C          3.5140   39.6020   28.6820 C.2   237  PRO237      0.2244
     21  O          3.7260   39.3640   29.8690 O.2   237  PRO237     -0.2868
     22  CB         5.6850   38.6740   27.7620 C.3   237  PRO237      0.0268
     23  CG         6.1340   39.8530   26.9630 C.3   237  PRO237      0.0207
     24  CD         5.1530   39.9750   25.7930 C.3   237  PRO237      0.0892
     25  N          4.9970   42.6070   33.8090 N.3   254  LEU254     -0.1231
     26  CA         5.7020   41.3410   33.6780 C.3   254  LEU254      0.1693
     27  C          6.5570   41.0740   34.9180 C.2   254  LEU254      0.2592
     28  O          7.3670   41.9150   35.3030 O.2   254  LEU254     -0.2718
     29  CB         6.5370   41.3780   32.3730 C.3   254  LEU254      0.0284
     30  CG         7.2350   40.0950   31.8980 C.3   254  LEU254      0.0019
     31  CD1        6.3350   38.8470   32.0260 C.3   254  LEU254      0.0001
     32  CD2        7.7580   40.2870   30.4860 C.3   254  LEU254      0.0001
     33  N          6.3060   39.9320   35.5780 N.am  255  ALA255     -0.1966
     34  CA         6.9340   39.5350   36.8450 C.3   255  ALA255      0.1728
     35  C          8.3940   39.1470   36.8130 C.2   255  ALA255      0.2617
     36  O          9.0560   39.1340   37.8630 O.2   255  ALA255     -0.2715
     37  CB         6.1040   38.4820   37.5580 C.3   255  ALA255      0.0334
     38  N          8.8930   38.8770   35.6210 N.am  256  GLY256     -0.1940
     39  CA        10.2760   38.4890   35.4050 C.3   256  GLY256      0.2014
     40  C         10.4180   37.7530   34.0990 C.2   256  GLY256      0.2639
     41  O          9.4730   37.7120   33.3030 O.2   256  GLY256     -0.2714
     42  N         11.5980   37.1790   33.8660 N.am  257  THR257     -0.1950
     43  CA        11.8820   36.4300   32.6450 C.3   257  THR257      0.1897
     44  C         11.4160   34.9760   32.7910 C.2   257  THR257      0.2313
     45  O         11.2890   34.2670   31.7900 O.2   257  THR257     -0.2863
     46  CB        13.3530   36.5910   32.2330 C.3   257  THR257      0.1794
     47  OG1       14.1890   36.1960   33.3180 O.3   257  THR257     -0.2208
     48  CG2       13.6890   38.0170   31.7900 C.3   257  THR257      0.0378
     49  N         15.7030   40.2200   39.5790 N.3   268  GLU268     -0.1245
     50  CA        14.3670   40.2680   38.9750 C.3   268  GLU268      0.1567
     51  C         13.2910   40.7710   39.9420 C.2   268  GLU268      0.2260
     52  O         12.4600   41.5740   39.5380 O.2   268  GLU268     -0.2867
     53  CB        13.9850   38.9290   38.3600 C.3   268  GLU268      0.0388
     54  CG        14.9730   38.5140   37.2930 C.3   268  GLU268      0.1160
     55  CD        14.3660   37.8690   36.0710 C.2   268  GLU268      0.3649
     56  OE1       13.3400   37.1620   36.2100 O.co2 268  GLU268     -0.2457
     57  OE2       14.9310   38.0680   34.9710 O.co2 268  GLU268     -0.2457
     58  N         13.6650   44.5650   40.1830 N.3   271  GLU271     -0.1231
     59  CA        13.1480   45.1680   38.9500 C.3   271  GLU271      0.1699
     60  C         11.6160   45.1630   38.8790 C.2   271  GLU271      0.2592
     61  O         10.9940   46.1540   38.5890 O.2   271  GLU271     -0.2718
     62  CB        13.7620   44.4810   37.7190 C.3   271  GLU271      0.0402
     63  CG        15.2170   44.8240   37.4510 C.3   271  GLU271      0.1161
     64  CD        15.7870   44.1820   36.2210 C.2   271  GLU271      0.3649
     65  OE1       16.4880   43.2040   36.3490 O.co2 271  GLU271     -0.2457
     66  OE2       15.5310   44.6440   35.1310 O.co2 271  GLU271     -0.2457
     67  N         11.0500   44.0250   39.1820 N.am  272  HIS272     -0.1976
     68  CA         9.6200   43.8970   39.2050 C.3   272  HIS272      0.1656
     69  C          8.9810   44.8090   40.2460 C.2   272  HIS272      0.2291
     70  O          8.0910   45.5610   39.9300 O.2   272  HIS272     -0.2864
     71  CB         9.2250   42.4660   39.4090 C.3   272  HIS272      0.0771
     72  CG         7.7620   42.2420   39.3970 C.ar  272  HIS272      0.0820
     73  ND1        6.9420   42.7010   38.4010 N.ar  272  HIS272     -0.2267
     74  CD2        6.9660   41.5950   40.2720 C.ar  272  HIS272      0.1154
     75  CE1        5.7050   42.3370   38.6620 C.ar  272  HIS272      0.1986
     76  NE2        5.6960   41.6590   39.7850 N.ar  272  HIS272     -0.2212
     77  N          8.9510   48.2730   38.9670 N.3   275  SER275     -0.1217
     78  CA         7.9370   48.4010   37.9030 C.3   275  SER275      0.1889
     79  C          6.5410   48.5540   38.4880 C.2   275  SER275      0.2288
     80  O          5.7690   49.4220   38.0440 O.2   275  SER275     -0.2866
     81  CB         7.9670   47.1940   36.9680 C.3   275  SER275      0.2089
     82  OG         9.0690   47.3290   36.0890 O.3   275  SER275     -0.2183
     83  N          8.0690   48.3320   31.8850 N.3   328  THR328     -0.1203
     84  CA         8.7800   47.0870   31.5970 C.3   328  THR328      0.1994
     85  C          9.7520   47.2620   30.4290 C.2   328  THR328      0.2617
     86  O         10.8210   46.6550   30.4350 O.2   328  THR328     -0.2717
     87  CB         7.7470   45.9890   31.2710 C.3   328  THR328      0.1784
     88  OG1        6.9470   45.7990   32.4230 O.3   328  THR328     -0.2211
     89  CG2        8.3750   44.6270   30.8680 C.3   328  THR328      0.0376
     90  N          9.3720   48.1020   29.4420 N.am  329  ALA329     -0.1979
     91  CA        10.1480   48.2570   28.2310 C.3   329  ALA329      0.1597
     92  C         10.7480   49.6600   28.0160 C.2   329  ALA329      0.2287
     93  O         11.2080   49.9740   26.9190 O.2   329  ALA329     -0.2864
     94  CB         9.2820   47.8480   27.0490 C.3   329  ALA329      0.0319
     95  N          7.3410   47.9290   18.0750 N.3   352  TYR352     -0.1241
     96  CA         8.1520   47.3240   19.1480 C.3   352  TYR352      0.1605
     97  C          8.0380   48.1210   20.4340 C.2   352  TYR352      0.2264
     98  O          8.4250   49.3010   20.4750 O.2   352  TYR352     -0.2867
     99  CB         9.6400   47.2070   18.7660 C.3   352  TYR352      0.0534
    100  CG        10.4610   46.6560   19.9310 C.ar  352  TYR352     -0.0201
    101  CD1       10.3440   45.3160   20.3280 C.ar  352  TYR352     -0.0009
    102  CD2       11.2970   47.4850   20.6790 C.ar  352  TYR352     -0.0009
    103  CE1       11.0540   44.8220   21.4300 C.ar  352  TYR352      0.0417
    104  CE2       12.0190   46.9950   21.7730 C.ar  352  TYR352      0.0417
    105  CZ        11.8940   45.6690   22.1460 C.ar  352  TYR352      0.1957
    106  OH        12.6350   45.2150   23.2150 O.3   352  TYR352     -0.2866
    107  N          6.1000   42.8500   22.4210 N.3   371  LEU371     -0.1231
    108  CA         7.4540   42.2660   22.5510 C.3   371  LEU371      0.1693
    109  C          7.2750   40.8560   22.0070 C.2   371  LEU371      0.2591
    110  O          6.1210   40.4090   21.8570 O.2   371  LEU371     -0.2718
    111  CB         7.9250   42.1690   24.0150 C.3   371  LEU371      0.0284
    112  CG         7.9350   43.4190   24.9010 C.3   371  LEU371      0.0019
    113  CD1        8.3400   43.0420   26.3240 C.3   371  LEU371      0.0001
    114  CD2        8.8660   44.4960   24.3670 C.3   371  LEU371      0.0001
    115  N          8.3950   40.1440   21.7070 N.am  372  ARG372     -0.1980
    116  CA         8.3640   38.7660   21.1680 C.3   372  ARG372      0.1597
    117  C          7.5150   38.7210   19.8890 C.2   372  ARG372      0.2287
    118  O          6.6730   37.8280   19.7000 O.2   372  ARG372     -0.2864
    119  CB         7.8680   37.7530   22.2270 C.3   372  ARG372      0.0334
    120  CG         8.5680   37.8960   23.5940 C.3   372  ARG372      0.0492
    121  CD         8.3090   36.6990   24.4920 C.3   372  ARG372      0.2205
    122  NE         9.1640   36.7020   25.6840 N.pl3 372  ARG372     -0.0865
    123  CZ        10.3940   36.1980   25.7330 C.cat 372  ARG372      0.5346
    124  NH1       10.9400   35.6550   24.6520 N.pl3 372  ARG372      0.1354
    125  NH2       11.0930   36.2440   26.8580 N.pl3 372  ARG372      0.1354
    126  N         12.8370   41.8440   16.8280 N.3   384  ARG384     -0.1231
    127  CA        13.4170   42.8430   17.7120 C.3   384  ARG384      0.1694
    128  C         13.3090   42.3310   19.1290 C.2   384  ARG384      0.2592
    129  O         12.2760   41.7810   19.5290 O.2   384  ARG384     -0.2718
    130  CB        12.7300   44.2020   17.5290 C.3   384  ARG384      0.0321
    131  CG        13.4450   45.3350   18.2540 C.3   384  ARG384      0.0489
    132  CD        13.1560   46.6850   17.6140 C.3   384  ARG384      0.2205
    133  NE        13.8510   47.7470   18.3510 N.pl3 384  ARG384     -0.0865
    134  CZ        13.9720   49.0140   17.9570 C.cat 384  ARG384      0.5346
    135  NH1       14.6210   49.8820   18.7070 N.pl3 384  ARG384      0.1354
    136  NH2       13.4460   49.4140   16.8020 N.pl3 384  ARG384      0.1354
    137  N         14.3940   42.4710   19.8910 N.am  385  ALA385     -0.1966
    138  CA        14.4170   42.0250   21.2780 C.3   385  ALA385      0.1728
    139  C         15.3810   42.9060   22.0600 C.2   385  ALA385      0.2617
    140  O         16.3730   43.3790   21.5070 O.2   385  ALA385     -0.2715
    141  CB        14.8230   40.5480   21.3660 C.3   385  ALA385      0.0334
    142  N         15.0480   43.1400   23.3230 N.am  386  GLY386     -0.1940
    143  CA        15.8560   43.9610   24.1990 C.3   386  GLY386      0.2014
    144  C         16.0890   43.3660   25.5700 C.2   386  GLY386      0.2639
    145  O         15.7700   42.2000   25.8250 O.2   386  GLY386     -0.2714
    146  N         16.6740   44.1810   26.4530 N.am  387  ALA387     -0.1963
    147  CA        16.9960   43.7630   27.8130 C.3   387  ALA387      0.1728
    148  C         17.0380   44.9870   28.6930 C.2   387  ALA387      0.2616
    149  O         17.3690   46.0800   28.2180 O.2   387  ALA387     -0.2715
    150  CB        18.3690   43.0750   27.8230 C.3   387  ALA387      0.0334
    151  N         16.7440   44.7920   29.9720 N.am  388  GLY388     -0.1955
    152  CA        16.8280   45.8580   30.9600 C.3   388  GLY388      0.1869
    153  C         18.2850   46.0500   31.3380 C.2   388  GLY388      0.2309
    154  O         18.9510   45.1000   31.7590 O.2   388  GLY388     -0.2863
    155  N         21.2330   37.6500   26.5530 N.3   401  GLU401     -0.1245
    156  CA        19.8490   37.7890   27.0220 C.3   401  GLU401      0.1567
    157  C         18.8880   38.0460   25.8440 C.2   401  GLU401      0.2260
    158  O         17.8140   37.4470   25.7960 O.2   401  GLU401     -0.2867
    159  CB        19.7600   38.9100   28.0810 C.3   401  GLU401      0.0388
    160  CG        18.3670   39.1790   28.6250 C.3   401  GLU401      0.1160
    161  CD        17.8210   38.1960   29.6390 C.2   401  GLU401      0.3649
    162  OE1       18.4470   37.1380   29.8780 O.co2 401  GLU401     -0.2457
    163  OE2       16.7580   38.5040   30.2140 O.co2 401  GLU401     -0.2457
    164  N         15.7140   35.8020   24.4440 N.3   405  LYS405     -0.1245
    165  CA        14.3990   36.3750   24.1500 C.3   405  LYS405      0.1561
    166  C         13.9700   36.0420   22.7240 C.2   405  LYS405      0.2260
    167  O         12.8280   35.6290   22.5120 O.2   405  LYS405     -0.2867
    168  CB        14.3790   37.8760   24.4300 C.3   405  LYS405      0.0271
    169  CG        14.5690   38.1220   25.9320 C.3   405  LYS405      0.0035
    170  CD        14.3000   39.5260   26.3430 C.3   405  LYS405      0.0206
    171  CE        14.5320   39.6880   27.8210 C.3   405  LYS405      0.1093
    172  NZ        13.3590   39.1920   28.5950 N.3   405  LYS405     -0.1314
@<TRIPOS>BOND
     1   136   134    1
     2   126   127    1
     3   130   127    1
     4   130   131    1
     5   132   131    1
     6   132   133    1
     7   127   128    1
     8   134   133    2
     9   134   135    1
    10    95    96    1
    11    99    96    1
    12    99   100    1
    13   128   129    2
    14   128   137   am
    15    96    97    1
    16   118   117    2
    17   117   116    1
    18   137   138    1
    19   100   101   ar
    20   100   102   ar
    21   101   103   ar
    22    97    98    2
    23   102   104   ar
    24   116   115    1
    25   116   119    1
    26   138   141    1
    27   138   139    1
    28   103   105   ar
    29   140   139    2
    30   115   109   am
    31   104   105   ar
    32   110   109    2
    33   109   108    1
    34   139   142   am
    35   105   106    1
    36   119   120    1
    37   107   108    1
    38   167   166    2
    39   108   111    1
    40   166   165    1
    41   142   143    1
    42   120   121    1
    43   111   112    1
    44   165   168    1
    45   165   164    1
    46   143   144    1
    47   114   112    1
    48   168   169    1
    49   121   122    1
    50   124   123    1
    51   112   113    1
    52   144   145    2
    53   144   146   am
    54   122   123    2
    55   123   125    1
    56    24    18    1
    57    24    23    1
    58   158   157    2
    59   157   156    1
    60   169   170    1
    61    13    12    2
    62    18    19    1
    63   170   171    1
    64   146   147    1
    65   155   156    1
    66    12    11    1
    67    16    14    1
    68    93    92    2
    69    23    22    1
    70   156   159    1
    71    94    91    1
    72    19    22    1
    73    19    20    1
    74   147   150    1
    75   147   148    1
    76   171   172    1
    77    92    91    1
    78   159   160    1
    79    14    11    1
    80    14    15    1
    81    11    10    1
    82   149   148    2
    83    91    90    1
    84   160   161    1
    85    20    21    2
    86   148   151   am
    87    15    17    1
    88    90    85   am
    89   161   162   ar
    90   161   163   ar
    91   151   152    1
    92    85    86    2
    93    85    84    1
    94    32    30    1
    95    89    87    1
    96   152   153    1
    97    87    84    1
    98    87    88    1
    99   153   154    2
   100    84    83    1
   101    48    46    1
   102    45    44    2
   103    30    31    1
   104    30    29    1
   105    46    43    1
   106    46    47    1
   107    29    26    1
   108    43    44    1
   109    43    42    1
   110     4     3    2
   111     3     2    1
   112    41    40    2
   113    26    25    1
   114    26    27    1
   115    42    40   am
   116     8     9    1
   117     8     7    1
   118    40    39    1
   119     6     7    1
   120     6     5    1
   121     2     5    1
   122     2     1    1
   123    27    28    2
   124    27    33   am
   125    57    55   ar
   126    66    64   ar
   127    39    38    1
   128    33    34    1
   129    38    35   am
   130    55    56   ar
   131    55    54    1
   132    82    81    1
   133    64    65   ar
   134    64    63    1
   135    35    34    1
   136    35    36    2
   137    34    37    1
   138    81    78    1
   139    54    53    1
   140    63    62    1
   141    62    59    1
   142    78    79    1
   143    78    77    1
   144    80    79    2
   145    53    50    1
   146    73    75   ar
   147    73    72   ar
   148    61    60    2
   149    75    76   ar
   150    60    59    1
   151    60    67   am
   152    59    58    1
   153    50    49    1
   154    50    51    1
   155    67    68    1
   156    68    71    1
   157    68    69    1
   158    72    71    1
   159    72    74   ar
   160    52    51    2
   161    76    74   ar
   162    70    69    2
