@<TRIPOS>MOLECULE
tmp/3rv6A01.pdb
 101 96 0 0 0
SMALL
GASTEIGER

@<TRIPOS>ATOM
      1  N         18.5880   54.9590   36.5610 N.3   190  HIS190     -0.1226
      2  CA        18.9150   53.6540   37.1650 C.3   190  HIS190      0.1752
      3  C         18.7560   52.5000   36.1940 C.2   190  HIS190      0.2595
      4  O         19.3890   51.4650   36.3540 O.2   190  HIS190     -0.2718
      5  CB        18.0060   53.3680   38.3900 C.3   190  HIS190      0.0759
      6  CG        18.1940   54.3550   39.5020 C.ar  190  HIS190      0.0818
      7  ND1       19.1540   54.1650   40.4820 N.ar  190  HIS190     -0.2268
      8  CD2       17.5770   55.5390   39.7150 C.ar  190  HIS190      0.1154
      9  CE1       19.0900   55.2320   41.2640 C.ar  190  HIS190      0.1986
     10  NE2       18.1560   56.0880   40.8470 N.ar  190  HIS190     -0.2212
     11  N         17.8400   52.6320   35.2460 N.am  191  LYS191     -0.1980
     12  CA        17.5770   51.5290   34.3200 C.3   191  LYS191      0.1596
     13  C         17.1210   52.0420   32.9670 C.2   191  LYS191      0.2287
     14  O         16.3750   53.0190   32.9160 O.2   191  LYS191     -0.2864
     15  CB        16.4840   50.6090   34.9270 C.3   191  LYS191      0.0298
     16  CG        16.2970   49.2900   34.1930 C.3   191  LYS191      0.0038
     17  CD        15.1560   48.5460   34.8320 C.3   191  LYS191      0.0206
     18  CE        14.8420   47.3240   34.0340 C.3   191  LYS191      0.1093
     19  NZ        13.7040   46.5550   34.5890 N.3   191  LYS191     -0.1314
     20  N         13.7410   42.8500   42.4750 N.3   270  VAL270     -0.1231
     21  CA        14.0020   44.2950   42.5890 C.3   270  VAL270      0.1692
     22  C         13.3780   45.0210   41.3900 C.2   270  VAL270      0.2591
     23  O         12.6080   45.9440   41.5850 O.2   270  VAL270     -0.2718
     24  CB        15.5230   44.6300   42.7100 C.3   270  VAL270      0.0266
     25  CG1       15.7720   46.1430   42.6660 C.3   270  VAL270      0.0020
     26  CG2       16.1340   44.0210   43.9690 C.3   270  VAL270      0.0020
     27  N         13.6650   44.5650   40.1830 N.am  271  GLU271     -0.1979
     28  CA        13.1480   45.1680   38.9500 C.3   271  GLU271      0.1602
     29  C         11.6160   45.1630   38.8790 C.2   271  GLU271      0.2287
     30  O         10.9940   46.1540   38.5890 O.2   271  GLU271     -0.2864
     31  CB        13.7620   44.4810   37.7190 C.3   271  GLU271      0.0415
     32  CG        15.2170   44.8240   37.4510 C.3   271  GLU271      0.1163
     33  CD        15.7870   44.1820   36.2210 C.2   271  GLU271      0.3649
     34  OE1       16.4880   43.2040   36.3490 O.co2 271  GLU271     -0.2457
     35  OE2       15.5310   44.6440   35.1310 O.co2 271  GLU271     -0.2457
     36  N         10.1030   47.6080   41.4580 N.3   274  ILE274     -0.1245
     37  CA        10.2490   48.9800   40.9380 C.3   274  ILE274      0.1561
     38  C          9.1950   49.2570   39.8620 C.2   274  ILE274      0.2260
     39  O          8.5830   50.3360   39.8810 O.2   274  ILE274     -0.2867
     40  CB        11.7180   49.2520   40.4670 C.3   274  ILE274      0.0252
     41  CG1       12.7370   49.1390   41.6470 C.3   274  ILE274      0.0019
     42  CG2       11.8830   50.5760   39.7480 C.3   274  ILE274      0.0019
     43  CD1       12.4790   49.9940   42.9330 C.3   274  ILE274      0.0001
     44  N          5.8100   49.5770   41.5180 N.3   277  ARG277     -0.1231
     45  CA         5.7410   50.8710   42.1880 C.3   277  ARG277      0.1694
     46  C          5.5230   51.9980   41.1690 C.2   277  ARG277      0.2592
     47  O          4.7000   52.8970   41.4110 O.2   277  ARG277     -0.2718
     48  CB         6.9860   51.1030   43.0460 C.3   277  ARG277      0.0321
     49  CG         6.8690   52.2950   43.9740 C.3   277  ARG277      0.0489
     50  CD         8.1890   53.0140   44.0530 C.3   277  ARG277      0.2205
     51  NE         8.9840   52.5970   45.1920 N.pl3 277  ARG277     -0.0865
     52  CZ        10.3120   52.5760   45.2150 C.cat 277  ARG277      0.5346
     53  NH1       11.0090   52.9060   44.1310 N.pl3 277  ARG277      0.1354
     54  NH2       10.9550   52.2130   46.3140 N.pl3 277  ARG277      0.1354
     55  N          6.2280   51.9340   40.0160 N.am  278  SER278     -0.1952
     56  CA         6.0450   52.9130   38.9350 C.3   278  SER278      0.1924
     57  C          4.6100   52.8570   38.4080 C.2   278  SER278      0.2314
     58  O          3.9750   53.9050   38.2500 O.2   278  SER278     -0.2863
     59  CB         7.0170   52.6550   37.7870 C.3   278  SER278      0.2116
     60  OG         6.7700   53.5690   36.7300 O.3   278  SER278     -0.2180
     61  N          2.1830   54.5920   40.8140 N.3   281  GLU281     -0.1245
     62  CA         2.3380   56.0580   40.8080 C.3   281  GLU281      0.1567
     63  C          1.6740   56.6800   39.6040 C.2   281  GLU281      0.2260
     64  O          1.0150   57.7310   39.7190 O.2   281  GLU281     -0.2867
     65  CB         3.8330   56.4470   40.7920 C.3   281  GLU281      0.0388
     66  CG         4.5890   56.0550   42.0550 C.3   281  GLU281      0.1160
     67  CD         6.0980   56.1800   41.9700 C.2   281  GLU281      0.3649
     68  OE1        6.6080   56.6580   40.9300 O.co2 281  GLU281     -0.2457
     69  OE2        6.7730   55.8050   42.9550 O.co2 281  GLU281     -0.2457
     70  N         13.8350   53.4940   34.2700 N.3   332  ILE332     -0.1231
     71  CA        13.6300   54.1180   35.5850 C.3   332  ILE332      0.1678
     72  C         14.7090   55.1600   35.8740 C.2   332  ILE332      0.2434
     73  O         15.8870   54.8090   35.8720 O.2   332  ILE332     -0.2733
     74  CB        13.5890   53.0280   36.7260 C.3   332  ILE332      0.0265
     75  CG1       12.4310   51.9930   36.5410 C.3   332  ILE332      0.0019
     76  CG2       13.5540   53.6690   38.1270 C.3   332  ILE332      0.0020
     77  CD1       10.9170   52.4620   36.9260 C.3   332  ILE332      0.0001
     78  N         14.3450   56.4160   36.2170 N.am  333  PRO333     -0.2718
     79  CA        12.9900   57.0220   36.1880 C.3   333  PRO333      0.1535
     80  C         12.4900   57.0250   34.7380 C.2   333  PRO333      0.2598
     81  O         13.3010   57.0360   33.8200 O.2   333  PRO333     -0.2715
     82  CB        13.2250   58.4460   36.7220 C.3   333  PRO333      0.0310
     83  CG        14.5720   58.3920   37.4190 C.3   333  PRO333      0.0237
     84  CD        15.3610   57.4260   36.5700 C.3   333  PRO333      0.0939
     85  N         11.1660   56.9320   34.5350 N.am  334  LYS334     -0.1978
     86  CA        10.5810   56.8150   33.1930 C.3   334  LYS334      0.1596
     87  C         11.0140   57.9040   32.2300 C.2   334  LYS334      0.2287
     88  O         11.4030   57.5840   31.1130 O.2   334  LYS334     -0.2864
     89  CB         9.0420   56.7120   33.2570 C.3   334  LYS334      0.0298
     90  CG         8.5860   55.3610   33.7770 C.3   334  LYS334      0.0038
     91  CD         7.0980   55.0930   33.5320 C.3   334  LYS334      0.0206
     92  CE         6.7910   54.6110   32.1280 C.3   334  LYS334      0.1093
     93  NZ         5.4110   54.0390   32.0590 N.3   334  LYS334     -0.1314
     94  N         21.0460   47.7680   33.6810 N.3   390  ILE390     -0.1245
     95  CA        21.2610   48.3070   35.0400 C.3   390  ILE390      0.1561
     96  C         22.7690   48.5660   35.2500 C.2   390  ILE390      0.2260
     97  O         23.5620   48.2310   34.3730 O.2   390  ILE390     -0.2867
     98  CB        20.6160   47.4420   36.1600 C.3   390  ILE390      0.0252
     99  CG1       21.1570   45.9800   36.1480 C.3   390  ILE390      0.0019
    100  CG2       19.0850   47.5000   36.0710 C.3   390  ILE390      0.0019
    101  CD1       20.8100   45.0990   37.3650 C.3   390  ILE390      0.0001
@<TRIPOS>BOND
     1    88    87    2
     2    93    92    1
     3    92    91    1
     4    87    86    1
     5    14    13    2
     6    13    12    1
     7    86    89    1
     8    86    85    1
     9    89    90    1
    10    91    90    1
    11    94    95    1
    12    81    80    2
    13    18    19    1
    14    18    17    1
    15    16    17    1
    16    16    15    1
    17    70    71    1
    18    12    15    1
    19    12    11    1
    20    97    96    2
    21    85    80   am
    22    80    79    1
    23    95    96    1
    24    95    98    1
    25    35    33   ar
    26    11     3   am
    27    71    72    1
    28    71    74    1
    29    73    72    2
    30    72    78   am
    31   100    98    1
    32    99    98    1
    33    99   101    1
    34    79    78    1
    35    79    82    1
    36     3     4    2
    37     3     2    1
    38    78    84    1
    39    33    34   ar
    40    33    32    1
    41    75    74    1
    42    75    77    1
    43     1     2    1
    44    84    83    1
    45    82    83    1
    46    74    76    1
    47    60    59    1
    48     2     5    1
    49    32    31    1
    50    31    28    1
    51    59    56    1
    52    58    57    2
    53     5     6    1
    54    57    56    1
    55    30    29    2
    56    29    28    1
    57    56    55    1
    58    28    27    1
    59     6     8   ar
    60     6     7   ar
    61    63    64    2
    62    63    62    1
    63     8    10   ar
    64    42    40    1
    65    38    39    2
    66    38    37    1
    67    55    46   am
    68    27    22   am
    69    40    37    1
    70    40    41    1
    71     7     9   ar
    72    65    62    1
    73    65    66    1
    74    62    61    1
    75    10     9   ar
    76    68    67   ar
    77    37    36    1
    78    46    47    2
    79    46    45    1
    80    22    23    2
    81    22    21    1
    82    44    45    1
    83    41    43    1
    84    67    66    1
    85    67    69   ar
    86    45    48    1
    87    20    21    1
    88    21    24    1
    89    25    24    1
    90    24    26    1
    91    48    49    1
    92    49    50    1
    93    50    51    1
    94    53    52    1
    95    51    52    2
    96    52    54    1
