@<TRIPOS>MOLECULE
tmp/3rv7A00.pdb
 152 144 0 0 0
SMALL
GASTEIGER

@<TRIPOS>ATOM
      1  N         30.5590    0.6790   38.4200 N.3   193  ILE193     -0.1245
      2  CA        31.4960    1.3190   37.5290 C.3   193  ILE193      0.1561
      3  C         30.8220    1.5850   36.2000 C.2   193  ILE193      0.2260
      4  O         30.2090    0.7250   35.6470 O.2   193  ILE193     -0.2867
      5  CB        32.7830    0.4780   37.3630 C.3   193  ILE193      0.0252
      6  CG1       33.7050    0.6720   38.5560 C.3   193  ILE193      0.0019
      7  CG2       33.5140    0.8280   36.1070 C.3   193  ILE193      0.0019
      8  CD1       33.4110   -0.1840   39.7000 C.3   193  ILE193      0.0001
      9  N         45.7560   -3.0630   34.1300 N.3   237  PRO237     -0.2102
     10  CA        46.0550   -2.7210   35.5010 C.3   237  PRO237      0.1504
     11  C         45.9680   -3.8280   36.5110 C.2   237  PRO237      0.2575
     12  O         46.5780   -3.6910   37.5140 O.2   237  PRO237     -0.2718
     13  CB        45.0510   -1.6460   35.7860 C.3   237  PRO237      0.0282
     14  CG        43.9880   -1.9170   34.9110 C.3   237  PRO237      0.0208
     15  CD        44.5180   -2.4200   33.6990 C.3   237  PRO237      0.0893
     16  N         45.1880   -4.8640   36.2670 N.am  238  GLU238     -0.1980
     17  CA        44.8940   -5.8440   37.2850 C.3   238  GLU238      0.1602
     18  C         44.8790   -7.3010   36.8160 C.2   238  GLU238      0.2287
     19  O         44.5270   -7.5940   35.7210 O.2   238  GLU238     -0.2864
     20  CB        43.5850   -5.4420   37.9530 C.3   238  GLU238      0.0415
     21  CG        42.9190   -6.4670   38.8030 C.3   238  GLU238      0.1163
     22  CD        41.7900   -5.9140   39.6000 C.2   238  GLU238      0.3649
     23  OE1       41.8330   -4.7610   39.9570 O.co2 238  GLU238     -0.2457
     24  OE2       40.8540   -6.6390   39.8840 O.co2 238  GLU238     -0.2457
     25  N         42.6610   -4.5060   43.2120 N.3   254  LEU254     -0.1231
     26  CA        43.2130   -3.2140   43.4710 C.3   254  LEU254      0.1693
     27  C         42.1060   -2.2220   43.6770 C.2   254  LEU254      0.2592
     28  O         41.3470   -1.9950   42.7870 O.2   254  LEU254     -0.2718
     29  CB        43.9420   -2.7690   42.2480 C.3   254  LEU254      0.0284
     30  CG        45.3500   -3.2290   42.0020 C.3   254  LEU254      0.0019
     31  CD1       45.5610   -4.6000   42.4180 C.3   254  LEU254      0.0001
     32  CD2       45.7340   -3.0420   40.6010 C.3   254  LEU254      0.0001
     33  N         42.0290   -1.6130   44.8520 N.am  255  ALA255     -0.1966
     34  CA        41.1310   -0.4850   45.1080 C.3   255  ALA255      0.1728
     35  C         41.9210    0.6020   45.7900 C.2   255  ALA255      0.2617
     36  O         41.7330    0.8650   46.9370 O.2   255  ALA255     -0.2715
     37  CB        39.9650   -0.8860   45.9690 C.3   255  ALA255      0.0334
     38  N         42.8360    1.2100   45.0640 N.am  256  GLY256     -0.1940
     39  CA        43.6310    2.2890   45.5830 C.3   256  GLY256      0.2014
     40  C         43.4120    3.5060   44.7360 C.2   256  GLY256      0.2639
     41  O         42.3330    3.7090   44.2360 O.2   256  GLY256     -0.2714
     42  N         44.4670    4.2950   44.6140 N.am  257  THR257     -0.1950
     43  CA        44.6590    5.3900   43.6590 C.3   257  THR257      0.1897
     44  C         44.1470    6.8010   43.9860 C.2   257  THR257      0.2313
     45  O         42.9430    7.0680   44.0810 O.2   257  THR257     -0.2863
     46  CB        44.4220    4.9900   42.1980 C.3   257  THR257      0.1794
     47  OG1       45.0300    5.9760   41.3670 O.3   257  THR257     -0.2208
     48  CG2       42.9380    4.8930   41.8850 C.3   257  THR257      0.0378
     49  N         48.4190    2.2710   44.0540 N.3   301  HIS301     -0.1241
     50  CA        47.1550    1.6650   44.4500 C.3   301  HIS301      0.1621
     51  C         47.2580    0.8640   45.6920 C.2   301  HIS301      0.2264
     52  O         48.3250    0.5410   46.1490 O.2   301  HIS301     -0.2867
     53  CB        46.6530    0.7280   43.3780 C.3   301  HIS301      0.0745
     54  CG        46.0140    1.4150   42.2230 C.ar  301  HIS301      0.0817
     55  ND1       46.6190    1.5080   40.9940 N.ar  301  HIS301     -0.2268
     56  CD2       44.8110    2.0140   42.1000 C.ar  301  HIS301      0.1154
     57  CE1       45.8200    2.1490   40.1640 C.ar  301  HIS301      0.1986
     58  NE2       44.7140    2.4610   40.8110 N.ar  301  HIS301     -0.2212
     59  N         36.3920   -4.3530   40.2450 N.3   328  THR328     -0.1203
     60  CA        36.9780   -3.1120   39.8510 C.3   328  THR328      0.1994
     61  C         36.2900   -2.5950   38.6270 C.2   328  THR328      0.2617
     62  O         36.3170   -1.4340   38.3530 O.2   328  THR328     -0.2717
     63  CB        38.4220   -3.3540   39.5340 C.3   328  THR328      0.1784
     64  OG1       39.0460   -3.8060   40.7090 O.3   328  THR328     -0.2211
     65  CG2       39.1080   -2.1270   39.0570 C.3   328  THR328      0.0376
     66  N         35.7020   -3.4800   37.8650 N.am  329  ALA329     -0.1979
     67  CA        35.0350   -3.0590   36.6720 C.3   329  ALA329      0.1597
     68  C         33.5410   -3.2900   36.6490 C.2   329  ALA329      0.2287
     69  O         32.9320   -3.1290   35.6460 O.2   329  ALA329     -0.2864
     70  CB        35.6920   -3.6960   35.4890 C.3   329  ALA329      0.0319
     71  N         36.0850   -4.4250   26.7810 N.3   352  TYR352     -0.1241
     72  CA        36.1410   -3.5560   27.9270 C.3   352  TYR352      0.1605
     73  C         35.6280   -4.1780   29.1820 C.2   352  TYR352      0.2264
     74  O         34.4990   -4.5340   29.2650 O.2   352  TYR352     -0.2867
     75  CB        35.3440   -2.2790   27.7070 C.3   352  TYR352      0.0534
     76  CG        35.4520   -1.3190   28.8600 C.ar  352  TYR352     -0.0201
     77  CD1       36.6010   -0.6160   29.0740 C.ar  352  TYR352     -0.0009
     78  CD2       34.4130   -1.1360   29.7430 C.ar  352  TYR352     -0.0009
     79  CE1       36.7110    0.2270   30.0970 C.ar  352  TYR352      0.0417
     80  CE2       34.5330   -0.3190   30.7800 C.ar  352  TYR352      0.0417
     81  CZ        35.6760    0.3790   30.9480 C.ar  352  TYR352      0.1957
     82  OH        35.8040    1.2310   31.9750 O.3   352  TYR352     -0.2866
     83  N         42.7400   -8.1650   33.4640 N.3   369  LEU369     -0.1245
     84  CA        41.6150   -7.2610   33.3180 C.3   369  LEU369      0.1561
     85  C         41.8050   -6.1980   32.2930 C.2   369  LEU369      0.2260
     86  O         42.7000   -5.4450   32.3790 O.2   369  LEU369     -0.2867
     87  CB        41.3410   -6.5830   34.6450 C.3   369  LEU369      0.0270
     88  CG        40.0850   -5.7640   34.8280 C.3   369  LEU369      0.0019
     89  CD1       38.8950   -6.5080   34.5080 C.3   369  LEU369      0.0001
     90  CD2       40.0080   -5.1870   36.1710 C.3   369  LEU369      0.0001
     91  N         41.3530   -2.9030   30.8430 N.3   371  LEU371     -0.1231
     92  CA        41.0920   -1.4900   30.9110 C.3   371  LEU371      0.1693
     93  C         42.2830   -0.8420   30.2900 C.2   371  LEU371      0.2591
     94  O         43.2890   -1.4690   30.1410 O.2   371  LEU371     -0.2718
     95  CB        40.9160   -0.9980   32.3380 C.3   371  LEU371      0.0284
     96  CG        39.8560   -1.6860   33.1660 C.3   371  LEU371      0.0019
     97  CD1       40.0310   -1.5230   34.6180 C.3   371  LEU371      0.0001
     98  CD2       38.4730   -1.4120   32.7320 C.3   371  LEU371      0.0001
     99  N         42.1380    0.4180   29.9310 N.am  372  ARG372     -0.1980
    100  CA        43.1500    1.2080   29.2590 C.3   372  ARG372      0.1597
    101  C         43.5500    0.6460   27.9330 C.2   372  ARG372      0.2287
    102  O         44.7050    0.4970   27.6460 O.2   372  ARG372     -0.2864
    103  CB        44.3760    1.3960   30.1110 C.3   372  ARG372      0.0334
    104  CG        44.1090    2.0180   31.3920 C.3   372  ARG372      0.0492
    105  CD        44.7270    1.1840   32.3770 C.3   372  ARG372      0.2205
    106  NE        44.4110    1.5210   33.7420 N.pl3 372  ARG372     -0.0865
    107  CZ        44.6990    2.6790   34.3090 C.cat 372  ARG372      0.5346
    108  NH1       45.2620    3.6470   33.6080 N.pl3 372  ARG372      0.1354
    109  NH2       44.4020    2.8730   35.5840 N.pl3 372  ARG372      0.1354
    110  N         37.8650    3.4800   25.7310 N.3   384  ARG384     -0.1231
    111  CA        36.8700    3.4260   26.7630 C.3   384  ARG384      0.1694
    112  C         37.4830    3.5420   28.1570 C.2   384  ARG384      0.2592
    113  O         38.4310    2.8800   28.4770 O.2   384  ARG384     -0.2718
    114  CB        35.9910    2.1810   26.5920 C.3   384  ARG384      0.0321
    115  CG        34.6460    2.2360   27.2150 C.3   384  ARG384      0.0489
    116  CD        33.7700    1.1690   26.6970 C.3   384  ARG384      0.2205
    117  NE        32.5900    0.9960   27.5010 N.pl3 384  ARG384     -0.0865
    118  CZ        31.4870    0.3930   27.1220 C.cat 384  ARG384      0.5346
    119  NH1       31.3750   -0.1260   25.9440 N.pl3 384  ARG384      0.1354
    120  NH2       30.4840    0.3200   27.9370 N.pl3 384  ARG384      0.1354
    121  N         36.9260    4.4120   28.9700 N.am  385  ALA385     -0.1966
    122  CA        37.3850    4.6140   30.3190 C.3   385  ALA385      0.1728
    123  C         36.2170    4.8620   31.2380 C.2   385  ALA385      0.2617
    124  O         35.2310    5.3790   30.8380 O.2   385  ALA385     -0.2715
    125  CB        38.3060    5.7400   30.3530 C.3   385  ALA385      0.0334
    126  N         36.3430    4.4710   32.4740 N.am  386  GLY386     -0.1940
    127  CA        35.2360    4.4590   33.3840 C.3   386  GLY386      0.2014
    128  C         35.6440    4.8850   34.7570 C.2   386  GLY386      0.2638
    129  O         36.7900    5.0880   35.0000 O.2   386  GLY386     -0.2714
    130  N         34.6860    4.9990   35.6570 N.am  387  ALA387     -0.1977
    131  CA        34.9490    5.3960   37.0180 C.3   387  ALA387      0.1597
    132  C         34.0470    4.7150   38.0070 C.2   387  ALA387      0.2287
    133  O         32.9750    4.3240   37.6860 O.2   387  ALA387     -0.2864
    134  CB        34.8100    6.8660   37.1360 C.3   387  ALA387      0.0319
    135  N         37.8530   12.2160   35.9760 N.3   401  GLU401     -0.1245
    136  CA        38.5510   11.0020   36.3220 C.3   401  GLU401      0.1567
    137  C         38.6620   10.0700   35.1350 C.2   401  GLU401      0.2260
    138  O         39.6330    9.3800   35.0140 O.2   401  GLU401     -0.2867
    139  CB        37.9250   10.3080   37.5110 C.3   401  GLU401      0.0388
    140  CG        38.6710    9.0860   37.9530 C.3   401  GLU401      0.1160
    141  CD        37.9480    8.2630   38.9980 C.2   401  GLU401      0.3649
    142  OE1       37.1470    8.8130   39.7380 O.co2 401  GLU401     -0.2457
    143  OE2       38.1780    7.0660   39.1060 O.co2 401  GLU401     -0.2457
    144  N         42.0370    8.8190   33.1740 N.3   405  LYS405     -0.1245
    145  CA        42.2660    7.4510   32.8330 C.3   405  LYS405      0.1561
    146  C         42.5620    7.2930   31.3650 C.2   405  LYS405      0.2260
    147  O         43.2740    6.4020   30.9840 O.2   405  LYS405     -0.2867
    148  CB        41.0820    6.6180   33.2620 C.3   405  LYS405      0.0271
    149  CG        41.2950    5.9510   34.5520 C.3   405  LYS405      0.0035
    150  CD        40.1270    6.0530   35.3800 C.3   405  LYS405      0.0206
    151  CE        40.1810    5.0390   36.4360 C.3   405  LYS405      0.1093
    152  NZ        38.9510    4.9790   37.1990 N.3   405  LYS405     -0.1314
@<TRIPOS>BOND
     1   110   111    1
     2   119   118    1
     3   114   111    1
     4   114   115    1
     5   116   115    1
     6   116   117    1
     7   111   112    1
     8    71    72    1
     9   118   117    2
    10   118   120    1
    11   102   101    2
    12    75    72    1
    13    75    76    1
    14    72    73    1
    15   101   100    1
    16   112   113    2
    17   112   121   am
    18    76    77   ar
    19    76    78   ar
    20   121   122    1
    21    77    79   ar
    22    73    74    2
    23   100    99    1
    24   100   103    1
    25    78    80   ar
    26    99    93   am
    27    79    81   ar
    28   103   104    1
    29    94    93    2
    30    93    92    1
    31   122   125    1
    32   122   123    1
    33    80    81   ar
    34   124   123    2
    35    91    92    1
    36    92    95    1
    37    81    82    1
    38   147   146    2
    39   123   126   am
    40   146   145    1
    41   104   105    1
    42    85    86    2
    43    85    84    1
    44    95    96    1
    45   105   106    1
    46   126   127    1
    47    98    96    1
    48   145   144    1
    49   145   148    1
    50    96    97    1
    51   148   149    1
    52    84    83    1
    53    84    87    1
    54   127   128    1
    55   108   107    1
    56    15     9    1
    57    15    14    1
    58   106   107    2
    59     9    10    1
    60   107   109    1
    61    89    88    1
    62   149   150    1
    63    87    88    1
    64   128   129    2
    65   128   130   am
    66    88    90    1
    67    14    13    1
    68   138   137    2
    69   137   136    1
    70   150   151    1
    71    70    67    1
    72    10    13    1
    73    10    11    1
    74    69    68    2
    75     4     3    2
    76   130   131    1
    77    19    18    2
    78   135   136    1
    79     7     5    1
    80     3     2    1
    81    16    11   am
    82    16    17    1
    83   136   139    1
    84   151   152    1
    85    11    12    2
    86    68    67    1
    87    67    66    1
    88    18    17    1
    89   131   134    1
    90   131   132    1
    91    17    20    1
    92     5     2    1
    93     5     6    1
    94   139   140    1
    95     2     1    1
    96   133   132    2
    97    66    61   am
    98    20    21    1
    99   140   141    1
   100    62    61    2
   101     6     8    1
   102    61    60    1
   103    21    22    1
   104   141   143   ar
   105   141   142   ar
   106    65    63    1
   107    63    60    1
   108    63    64    1
   109    22    24   ar
   110    22    23   ar
   111    60    59    1
   112    57    58   ar
   113    57    55   ar
   114    32    30    1
   115    58    56   ar
   116    55    54   ar
   117    47    46    1
   118    48    46    1
   119    30    29    1
   120    30    31    1
   121    56    54   ar
   122    46    43    1
   123    54    53    1
   124    29    26    1
   125    28    27    2
   126    25    26    1
   127    53    50    1
   128    26    27    1
   129    43    44    1
   130    43    42    1
   131    27    33   am
   132    44    45    2
   133    49    50    1
   134    41    40    2
   135    50    51    1
   136    42    40   am
   137    40    39    1
   138    33    34    1
   139    38    39    1
   140    38    35   am
   141    34    35    1
   142    34    37    1
   143    51    52    2
   144    35    36    2
