@<TRIPOS>MOLECULE
tmp/3rv8C00.pdb
 146 138 0 0 0
SMALL
GASTEIGER

@<TRIPOS>ATOM
      1  N         58.3080  -11.3700  -44.8350 N.3   191  LYS191     -0.1245
      2  CA        57.4360  -10.8790  -43.7970 C.3   191  LYS191      0.1561
      3  C         57.7520  -11.5080  -42.4550 C.2   191  LYS191      0.2260
      4  O         58.1540  -12.6200  -42.3850 O.2   191  LYS191     -0.2867
      5  CB        55.9990  -11.1930  -44.1890 C.3   191  LYS191      0.0271
      6  CG        54.9450  -10.3200  -43.6160 C.3   191  LYS191      0.0035
      7  CD        53.6340  -11.0350  -43.4830 C.3   191  LYS191      0.0206
      8  CE        52.4670  -10.0740  -43.3510 C.3   191  LYS191      0.1093
      9  NZ        51.1540  -10.6910  -43.2870 N.3   191  LYS191     -0.1314
     10  N         56.0710  -11.2260  -38.1700 N.3   193  ILE193     -0.1245
     11  CA        55.1770  -10.6160  -37.2230 C.3   193  ILE193      0.1561
     12  C         55.9040  -10.3980  -35.9000 C.2   193  ILE193      0.2260
     13  O         56.4600  -11.2860  -35.3500 O.2   193  ILE193     -0.2867
     14  CB        53.8820  -11.4420  -37.0730 C.3   193  ILE193      0.0252
     15  CG1       53.0100  -11.2960  -38.3170 C.3   193  ILE193      0.0019
     16  CG2       53.0970  -11.0310  -35.8470 C.3   193  ILE193      0.0019
     17  CD1       53.3130  -12.1740  -39.4290 C.3   193  ILE193      0.0001
     18  N         41.2590  -15.4160  -33.8860 N.3   237  PRO237     -0.2102
     19  CA        40.8500  -14.9300  -35.1840 C.3   237  PRO237      0.1504
     20  C         41.0370  -15.9050  -36.3210 C.2   237  PRO237      0.2575
     21  O         40.7000  -15.5300  -37.3920 O.2   237  PRO237     -0.2718
     22  CB        41.7350  -13.7230  -35.3720 C.3   237  PRO237      0.0282
     23  CG        42.9140  -14.0370  -34.6590 C.3   237  PRO237      0.0208
     24  CD        42.5430  -14.8360  -33.4970 C.3   237  PRO237      0.0893
     25  N         41.5790  -17.0840  -36.0830 N.am  238  GLU238     -0.1980
     26  CA        41.8790  -18.0570  -37.1150 C.3   238  GLU238      0.1602
     27  C         41.8870  -19.5090  -36.6270 C.2   238  GLU238      0.2287
     28  O         42.3460  -19.7820  -35.5830 O.2   238  GLU238     -0.2864
     29  CB        43.2400  -17.7370  -37.7190 C.3   238  GLU238      0.0415
     30  CG        43.5170  -18.3210  -39.0570 C.3   238  GLU238      0.1163
     31  CD        44.8680  -17.9400  -39.6180 C.2   238  GLU238      0.3649
     32  OE1       44.9780  -16.8900  -40.2070 O.co2 238  GLU238     -0.2457
     33  OE2       45.8150  -18.6870  -39.4640 O.co2 238  GLU238     -0.2457
     34  N         43.6350  -16.9100  -43.2230 N.3   254  LEU254     -0.1231
     35  CA        43.0070  -15.6730  -43.5760 C.3   254  LEU254      0.1693
     36  C         44.0780  -14.6900  -43.9140 C.2   254  LEU254      0.2592
     37  O         45.1480  -14.7530  -43.3800 O.2   254  LEU254     -0.2718
     38  CB        42.1280  -15.1500  -42.4480 C.3   254  LEU254      0.0284
     39  CG        40.7690  -15.8200  -42.2570 C.3   254  LEU254      0.0019
     40  CD1       40.7980  -17.2280  -42.5780 C.3   254  LEU254      0.0001
     41  CD2       40.2320  -15.6280  -40.8950 C.3   254  LEU254      0.0001
     42  N         43.7760  -13.7840  -44.8160 N.am  255  ALA255     -0.1966
     43  CA        44.7300  -12.8000  -45.2460 C.3   255  ALA255      0.1728
     44  C         44.0070  -11.5510  -45.6030 C.2   255  ALA255      0.2617
     45  O         43.0890  -11.5910  -46.3500 O.2   255  ALA255     -0.2715
     46  CB        45.4640  -13.2870  -46.4330 C.3   255  ALA255      0.0334
     47  N         44.4450  -10.4270  -45.0850 N.am  256  GLY256     -0.1940
     48  CA        43.8350   -9.1830  -45.4340 C.3   256  GLY256      0.2014
     49  C         42.7360   -8.7880  -44.5160 C.2   256  GLY256      0.2639
     50  O         42.0860   -9.6030  -43.9370 O.2   256  GLY256     -0.2714
     51  N         42.5460   -7.4940  -44.3970 N.am  257  THR257     -0.1950
     52  CA        41.6080   -6.9380  -43.4590 C.3   257  THR257      0.1897
     53  C         41.3110   -5.4610  -43.7420 C.2   257  THR257      0.2313
     54  O         40.1680   -5.0690  -43.8750 O.2   257  THR257     -0.2863
     55  CB        42.0840   -7.1890  -41.9830 C.3   257  THR257      0.1794
     56  OG1       41.3320   -6.3950  -41.0840 O.3   257  THR257     -0.2208
     57  CG2       43.5360   -6.9080  -41.8030 C.3   257  THR257      0.0378
     58  N         37.8400  -10.3560  -44.3890 N.3   315  HIS315     -0.1241
     59  CA        39.1220  -10.9860  -44.5950 C.3   315  HIS315      0.1621
     60  C         39.0460  -11.7210  -45.8790 C.2   315  HIS315      0.2264
     61  O         38.0040  -12.0650  -46.3170 O.2   315  HIS315     -0.2867
     62  CB        39.3970  -12.0320  -43.5250 C.3   315  HIS315      0.0745
     63  CG        39.7460  -11.4730  -42.1920 C.ar  315  HIS315      0.0817
     64  ND1       40.8360  -10.6670  -41.9860 N.ar  315  HIS315     -0.2268
     65  CD2       39.1420  -11.6010  -40.9970 C.ar  315  HIS315      0.1154
     66  CE1       40.8850  -10.3170  -40.7200 C.ar  315  HIS315      0.1986
     67  NE2       39.8670  -10.8700  -40.1000 N.ar  315  HIS315     -0.2212
     68  N         50.3020  -16.4370  -40.0630 N.3   342  THR342     -0.1203
     69  CA        49.5980  -15.2710  -39.6770 C.3   342  THR342      0.1994
     70  C         50.3150  -14.5890  -38.5450 C.2   342  THR342      0.2617
     71  O         50.3400  -13.3970  -38.4700 O.2   342  THR342     -0.2717
     72  CB        48.1580  -15.6710  -39.2440 C.3   342  THR342      0.1784
     73  OG1       47.4400  -16.1460  -40.3610 O.3   342  THR342     -0.2211
     74  CG2       47.4200  -14.5550  -38.6570 C.3   342  THR342      0.0376
     75  N         50.8620  -15.3600  -37.6350 N.am  343  ALA343     -0.1979
     76  CA        51.6060  -14.7750  -36.5550 C.3   343  ALA343      0.1597
     77  C         53.0780  -15.1390  -36.5360 C.2   343  ALA343      0.2287
     78  O         53.7490  -14.8890  -35.5820 O.2   343  ALA343     -0.2864
     79  CB        50.9610  -15.0640  -35.2520 C.3   343  ALA343      0.0319
     80  N         50.8100  -16.8860  -26.5960 N.3   366  TYR366     -0.1241
     81  CA        50.6170  -15.9870  -27.6920 C.3   366  TYR366      0.1605
     82  C         51.2050  -16.5240  -28.9560 C.2   366  TYR366      0.2264
     83  O         52.3760  -16.8040  -29.0190 O.2   366  TYR366     -0.2867
     84  CB        51.2500  -14.6390  -27.3880 C.3   366  TYR366      0.0534
     85  CG        51.2180  -13.6760  -28.5220 C.ar  366  TYR366     -0.0201
     86  CD1       50.1310  -12.8880  -28.7460 C.ar  366  TYR366     -0.0009
     87  CD2       52.2810  -13.5400  -29.3560 C.ar  366  TYR366     -0.0009
     88  CE1       50.1040  -12.0150  -29.7630 C.ar  366  TYR366      0.0417
     89  CE2       52.2600  -12.6730  -30.3800 C.ar  366  TYR366      0.0417
     90  CZ        51.1740  -11.9050  -30.5850 C.ar  366  TYR366      0.1957
     91  OH        51.1560  -11.0540  -31.6190 O.3   366  TYR366     -0.2866
     92  N         45.5560  -15.2900  -30.5760 N.3   385  LEU385     -0.1231
     93  CA        45.8010  -13.8750  -30.6800 C.3   385  LEU385      0.1693
     94  C         44.6280  -13.1960  -30.0240 C.2   385  LEU385      0.2591
     95  O         43.6070  -13.8060  -29.8280 O.2   385  LEU385     -0.2718
     96  CB        45.9380  -13.4050  -32.1180 C.3   385  LEU385      0.0284
     97  CG        47.0570  -13.9310  -32.9870 C.3   385  LEU385      0.0019
     98  CD1       46.9200  -13.5550  -34.3730 C.3   385  LEU385      0.0001
     99  CD2       48.3610  -13.5560  -32.4700 C.3   385  LEU385      0.0001
    100  N         44.7990  -11.9260  -29.7070 N.am  386  ARG386     -0.1980
    101  CA        43.8150  -11.1380  -29.0180 C.3   386  ARG386      0.1597
    102  C         43.3970  -11.7150  -27.6880 C.2   386  ARG386      0.2287
    103  O         42.2340  -11.8520  -27.3760 O.2   386  ARG386     -0.2864
    104  CB        42.6370  -10.8490  -29.9290 C.3   386  ARG386      0.0334
    105  CG        43.0340  -10.5520  -31.3400 C.3   386  ARG386      0.0492
    106  CD        41.8660  -10.2120  -32.1530 C.3   386  ARG386      0.2205
    107  NE        42.0840  -10.4270  -33.5580 N.pl3 386  ARG386     -0.0865
    108  CZ        42.1460   -9.4570  -34.4580 C.cat 386  ARG386      0.5346
    109  NH1       42.0540   -8.1960  -34.0760 N.pl3 386  ARG386      0.1354
    110  NH2       42.3380   -9.7390  -35.7280 N.pl3 386  ARG386      0.1354
    111  N         50.0760   -7.8540  -28.4680 N.3   399  ALA399     -0.1231
    112  CA        49.6920   -7.7310  -29.8480 C.3   399  ALA399      0.1694
    113  C         50.8360   -7.3760  -30.7590 C.2   399  ALA399      0.2593
    114  O         51.7290   -6.7130  -30.3870 O.2   399  ALA399     -0.2718
    115  CB        48.6200   -6.7360  -29.9970 C.3   399  ALA399      0.0304
    116  N         50.7210   -7.7950  -31.9910 N.am  400  GLY400     -0.1942
    117  CA        51.7350   -7.6570  -32.9910 C.3   400  GLY400      0.2014
    118  C         51.2230   -7.1560  -34.3150 C.2   400  GLY400      0.2639
    119  O         50.0580   -6.9680  -34.4930 O.2   400  GLY400     -0.2714
    120  N         52.1480   -6.9490  -35.2320 N.am  401  ALA401     -0.1963
    121  CA        51.8700   -6.5450  -36.5860 C.3   401  ALA401      0.1728
    122  C         52.7700   -7.2370  -37.6080 C.2   401  ALA401      0.2616
    123  O         53.8860   -7.5760  -37.3350 O.2   401  ALA401     -0.2715
    124  CB        51.9950   -5.0960  -36.6940 C.3   401  ALA401      0.0334
    125  N         52.2480   -7.4370  -38.7970 N.am  402  GLY402     -0.1955
    126  CA        53.0080   -7.9660  -39.8920 C.3   402  GLY402      0.1869
    127  C         53.8300   -6.8740  -40.5100 C.2   402  GLY402      0.2309
    128  O         53.3370   -5.8450  -40.8800 O.2   402  GLY402     -0.2863
    129  N         49.0650    0.1390  -35.3780 N.3   415  GLU415     -0.1245
    130  CA        48.3520   -1.0580  -35.7310 C.3   415  GLU415      0.1567
    131  C         48.1500   -1.9320  -34.5090 C.2   415  GLU415      0.2260
    132  O         47.1100   -2.4920  -34.3240 O.2   415  GLU415     -0.2867
    133  CB        49.0560   -1.8210  -36.8490 C.3   415  GLU415      0.0388
    134  CG        48.3040   -3.0130  -37.3410 C.3   415  GLU415      0.1160
    135  CD        48.9130   -3.6980  -38.5770 C.2   415  GLU415      0.3649
    136  OE1       49.1510   -3.0210  -39.5750 O.co2 415  GLU415     -0.2457
    137  OE2       49.1370   -4.9220  -38.5880 O.co2 415  GLU415     -0.2457
    138  N         44.6530   -3.5580  -32.6120 N.3   419  LYS419     -0.1245
    139  CA        44.4950   -4.9120  -32.2140 C.3   419  LYS419      0.1561
    140  C         44.2560   -5.0500  -30.7420 C.2   419  LYS419      0.2260
    141  O         43.5200   -5.8830  -30.3240 O.2   419  LYS419     -0.2867
    142  CB        45.7090   -5.6870  -32.6340 C.3   419  LYS419      0.0271
    143  CG        46.0440   -5.4750  -34.0400 C.3   419  LYS419      0.0035
    144  CD        46.4010   -6.6900  -34.7180 C.3   419  LYS419      0.0206
    145  CE        46.6720   -6.3930  -36.1260 C.3   419  LYS419      0.1093
    146  NZ        47.8010   -7.1200  -36.6540 N.3   419  LYS419     -0.1314
@<TRIPOS>BOND
     1    46    43    1
     2    45    44    2
     3    61    60    2
     4    60    59    1
     5    44    43    1
     6    44    47   am
     7    48    47    1
     8    48    49    1
     9    43    42    1
    10     1     2    1
    11    42    36   am
    12    59    58    1
    13    59    62    1
    14    49    51   am
    15    49    50    2
    16    51    52    1
    17     5     2    1
    18     5     6    1
    19    36    35    1
    20    36    37    2
    21    54    53    2
    22     2     3    1
    23    53    52    1
    24     6     7    1
    25    35    34    1
    26    35    38    1
    27    62    63    1
    28     7     8    1
    29    52    55    1
    30     8     9    1
    31    40    39    1
    32     3     4    2
    33    38    39    1
    34    39    41    1
    35    63    64   ar
    36    63    65   ar
    37    64    66   ar
    38    55    57    1
    39    55    56    1
    40    65    67   ar
    41   128   127    2
    42    66    67   ar
    43   127   126    1
    44    73    72    1
    45    32    31   ar
    46    68    69    1
    47   126   125    1
    48    69    72    1
    49    69    70    1
    50    31    33   ar
    51    31    30    1
    52   136   135   ar
    53    17    15    1
    54    72    74    1
    55    30    29    1
    56   125   122   am
    57   137   135   ar
    58   135   134    1
    59    70    71    2
    60    70    75   am
    61    15    14    1
    62    10    11    1
    63    29    26    1
    64    75    76    1
    65   122   123    2
    66   122   121    1
    67    21    20    2
    68   134   133    1
    69    11    14    1
    70    11    12    1
    71    26    27    1
    72    26    25    1
    73    14    16    1
    74   133   130    1
    75   124   121    1
    76   146   145    1
    77    27    28    2
    78   121   120    1
    79    76    77    1
    80    76    79    1
    81    77    78    2
    82    20    25   am
    83    20    19    1
    84   145   144    1
    85    12    13    2
    86   130   129    1
    87   130   131    1
    88   110   108    1
    89    22    19    1
    90    22    23    1
    91   120   118   am
    92    19    18    1
    93   144   143    1
    94    23    24    1
    95   131   132    2
    96   119   118    2
    97   108   109    1
    98   108   107    2
    99    98    97    1
   100   118   117    1
   101   143   142    1
   102    18    24    1
   103   107   106    1
   104   117   116    1
   105    97    99    1
   106    97    96    1
   107   142   139    1
   108   138   139    1
   109   139   140    1
   110   106   105    1
   111    96    93    1
   112   116   113   am
   113    91    90    1
   114   105   104    1
   115   113   114    2
   116   113   112    1
   117   140   141    2
   118    93    92    1
   119    93    94    1
   120    90    89   ar
   121    90    88   ar
   122    89    87   ar
   123    94    95    2
   124    94   100   am
   125   115   112    1
   126   104   101    1
   127   112   111    1
   128    88    86   ar
   129   100   101    1
   130    87    85   ar
   131    83    82    2
   132   101   102    1
   133    82    81    1
   134    86    85   ar
   135    85    84    1
   136    81    84    1
   137    81    80    1
   138   102   103    2
