@<TRIPOS>MOLECULE
tmp/3rv9C00.pdb
 141 133 0 0 0
SMALL
GASTEIGER

@<TRIPOS>ATOM
      1  N         53.8170  -58.1490   36.4410 N.3   191  LYS191     -0.1245
      2  CA        52.8870  -58.0450   35.3090 C.3   191  LYS191      0.1561
      3  C         53.5590  -57.4610   34.0550 C.2   191  LYS191      0.2260
      4  O         54.5130  -56.6910   34.1610 O.2   191  LYS191     -0.2867
      5  CB        51.6680  -57.1840   35.7140 C.3   191  LYS191      0.0271
      6  CG        50.4560  -57.2970   34.7940 C.3   191  LYS191      0.0035
      7  CD        49.3270  -56.4040   35.2350 C.3   191  LYS191      0.0206
      8  CE        48.0460  -56.7890   34.5540 C.3   191  LYS191      0.1093
      9  NZ        46.9770  -55.7780   34.7680 N.3   191  LYS191     -0.1314
     10  N         52.1340  -56.4060   29.7460 N.3   193  ILE193     -0.1245
     11  CA        51.0940  -56.4320   28.7260 C.3   193  ILE193      0.1561
     12  C         51.7910  -56.7960   27.4130 C.2   193  ILE193      0.2260
     13  O         52.7470  -56.1210   27.0020 O.2   193  ILE193     -0.2867
     14  CB        50.2410  -55.1250   28.6430 C.3   193  ILE193      0.0252
     15  CG1       49.1850  -55.0520   29.7760 C.3   193  ILE193      0.0019
     16  CG2       49.5240  -55.0130   27.2800 C.3   193  ILE193      0.0019
     17  CD1       49.6630  -54.8280   31.2120 C.3   193  ILE193      0.0001
     18  N         40.3980  -46.1010   25.9720 N.3   237  PRO237     -0.2102
     19  CA        39.6820  -46.5600   27.1830 C.3   237  PRO237      0.1504
     20  C         40.1620  -45.9220   28.4820 C.2   237  PRO237      0.2575
     21  O         39.5830  -46.1970   29.5290 O.2   237  PRO237     -0.2718
     22  CB        39.9600  -48.0690   27.1980 C.3   237  PRO237      0.0282
     23  CG        41.3060  -48.2110   26.5400 C.3   237  PRO237      0.0208
     24  CD        41.5010  -47.0240   25.6090 C.3   237  PRO237      0.0893
     25  N         41.2320  -45.1010   28.4260 N.am  238  GLU238     -0.1980
     26  CA        41.8210  -44.5360   29.6210 C.3   238  GLU238      0.1602
     27  C         42.5180  -43.2020   29.3800 C.2   238  GLU238      0.2287
     28  O         43.1650  -42.9970   28.3530 O.2   238  GLU238     -0.2864
     29  CB        42.8260  -45.5560   30.1870 C.3   238  GLU238      0.0415
     30  CG        43.3460  -45.2610   31.5770 C.3   238  GLU238      0.1163
     31  CD        44.2870  -46.3240   32.0850 C.2   238  GLU238      0.3649
     32  OE1       43.7980  -47.4090   32.4720 O.co2 238  GLU238     -0.2457
     33  OE2       45.5120  -46.0690   32.1040 O.co2 238  GLU238     -0.2457
     34  N         42.2270  -47.6170   35.1650 N.3   254  LEU254     -0.1245
     35  CA        41.0500  -48.4970   35.1570 C.3   254  LEU254      0.1561
     36  C         41.4740  -49.9540   35.2260 C.2   254  LEU254      0.2260
     37  O         42.4910  -50.3140   34.6440 O.2   254  LEU254     -0.2867
     38  CB        40.1990  -48.2610   33.8950 C.3   254  LEU254      0.0270
     39  CG        39.6410  -46.8560   33.5860 C.3   254  LEU254      0.0019
     40  CD1       38.5510  -46.9310   32.5880 C.3   254  LEU254      0.0001
     41  CD2       39.1770  -46.1130   34.8400 C.3   254  LEU254      0.0001
     42  N         33.7810  -51.0610   34.2290 N.3   298  HIS298     -0.1241
     43  CA        34.6360  -50.0000   34.7580 C.3   298  HIS298      0.1621
     44  C         34.8600  -49.9260   36.2720 C.2   298  HIS298      0.2264
     45  O         34.0390  -49.3800   37.0100 O.2   298  HIS298     -0.2867
     46  CB        34.2570  -48.6350   34.1650 C.3   298  HIS298      0.0745
     47  CG        34.5440  -48.5100   32.6980 C.ar  298  HIS298      0.0817
     48  ND1       34.1550  -47.4190   31.9540 N.ar  298  HIS298     -0.2268
     49  CD2       35.1830  -49.3400   31.8390 C.ar  298  HIS298      0.1154
     50  CE1       34.5360  -47.5790   30.6980 C.ar  298  HIS298      0.1986
     51  NE2       35.1630  -48.7350   30.6010 N.ar  298  HIS298     -0.2212
     52  N         48.5950  -49.8430   32.5460 N.3   325  THR325     -0.1203
     53  CA        47.5540  -50.5500   31.7960 C.3   325  THR325      0.1994
     54  C         48.0480  -51.2280   30.5080 C.2   325  THR325      0.2617
     55  O         47.4180  -52.1750   30.0220 O.2   325  THR325     -0.2717
     56  CB        46.4990  -49.5160   31.4510 C.3   325  THR325      0.1784
     57  OG1       46.1510  -48.8240   32.6480 O.3   325  THR325     -0.2211
     58  CG2       45.2700  -50.1130   30.7760 C.3   325  THR325      0.0376
     59  N         49.1110  -50.6960   29.9160 N.am  326  ALA326     -0.1979
     60  CA        49.6130  -51.2190   28.6620 C.3   326  ALA326      0.1597
     61  C         51.1250  -51.5020   28.7100 C.2   326  ALA326      0.2287
     62  O         51.7120  -51.8450   27.6860 O.2   326  ALA326     -0.2864
     63  CB        49.2620  -50.2470   27.5380 C.3   326  ALA326      0.0319
     64  N         50.4260  -47.5250   19.1690 N.3   349  TYR349     -0.1241
     65  CA        49.8390  -48.5000   20.1060 C.3   349  TYR349      0.1605
     66  C         50.4460  -48.4110   21.5020 C.2   349  TYR349      0.2264
     67  O         51.6750  -48.5290   21.6640 O.2   349  TYR349     -0.2867
     68  CB        49.9090  -49.9540   19.5840 C.3   349  TYR349      0.0534
     69  CG        49.3850  -50.9710   20.5900 C.ar  349  TYR349     -0.0201
     70  CD1       48.0150  -51.1400   20.7960 C.ar  349  TYR349     -0.0009
     71  CD2       50.2600  -51.7220   21.3760 C.ar  349  TYR349     -0.0009
     72  CE1       47.5300  -52.0460   21.7410 C.ar  349  TYR349      0.0417
     73  CE2       49.7870  -52.6200   22.3350 C.ar  349  TYR349      0.0417
     74  CZ        48.4210  -52.7780   22.5130 C.ar  349  TYR349      0.1957
     75  OH        47.9690  -53.6800   23.4420 O.3   349  TYR349     -0.2866
     76  N         44.6390  -47.3720   22.6600 N.3   368  LEU368     -0.1231
     77  CA        44.2170  -48.7780   22.6280 C.3   368  LEU368      0.1693
     78  C         42.8990  -48.7520   21.8850 C.2   368  LEU368      0.2591
     79  O         42.2870  -47.6890   21.8040 O.2   368  LEU368     -0.2718
     80  CB        44.0320  -49.4030   24.0460 C.3   368  LEU368      0.0284
     81  CG        45.2290  -49.3840   25.0150 C.3   368  LEU368      0.0019
     82  CD1       44.7960  -49.8010   26.3840 C.3   368  LEU368      0.0001
     83  CD2       46.3440  -50.2940   24.5570 C.3   368  LEU368      0.0001
     84  N         42.4660  -49.9010   21.3200 N.am  369  ARG369     -0.1980
     85  CA        41.2090  -50.0240   20.5600 C.3   369  ARG369      0.1597
     86  C         41.2520  -49.0660   19.3620 C.2   369  ARG369      0.2287
     87  O         40.3310  -48.2880   19.1030 O.2   369  ARG369     -0.2864
     88  CB        39.9640  -49.8210   21.4640 C.3   369  ARG369      0.0334
     89  CG        39.9720  -50.7010   22.7170 C.3   369  ARG369      0.0492
     90  CD        38.8530  -50.3250   23.6560 C.3   369  ARG369      0.2205
     91  NE        39.1720  -50.6750   25.0380 N.pl3 369  ARG369     -0.0865
     92  CZ        38.7630  -51.7790   25.6510 C.cat 369  ARG369      0.5346
     93  NH1       38.0400  -52.6820   24.9960 N.pl3 369  ARG369      0.1354
     94  NH2       39.1040  -52.0090   26.9130 N.pl3 369  ARG369      0.1354
     95  N         45.5120  -53.7360   16.6420 N.3   381  ARG381     -0.1231
     96  CA        46.4390  -54.2320   17.6460 C.3   381  ARG381      0.1694
     97  C         45.7800  -54.3060   19.0010 C.2   381  ARG381      0.2592
     98  O         45.2560  -53.3100   19.4800 O.2   381  ARG381     -0.2718
     99  CB        47.7520  -53.4340   17.6670 C.3   381  ARG381      0.0321
    100  CG        48.8800  -54.1680   18.3740 C.3   381  ARG381      0.0489
    101  CD        50.2050  -53.4630   18.2130 C.3   381  ARG381      0.2205
    102  NE        51.2570  -54.1510   18.9580 N.pl3 381  ARG381     -0.0865
    103  CZ        52.5540  -54.0440   18.6990 C.cat 381  ARG381      0.5346
    104  NH1       52.9790  -53.2630   17.7140 N.pl3 381  ARG381      0.1354
    105  NH2       53.4370  -54.7180   19.4220 N.pl3 381  ARG381      0.1354
    106  N         45.7130  -55.5240   19.5710 N.am  382  ALA382     -0.1966
    107  CA        45.1210  -55.7760   20.8870 C.3   382  ALA382      0.1728
    108  C         46.0530  -56.6150   21.7600 C.2   382  ALA382      0.2617
    109  O         46.7640  -57.4890   21.2570 O.2   382  ALA382     -0.2715
    110  CB        43.7670  -56.4410   20.7540 C.3   382  ALA382      0.0334
    111  N         46.0760  -56.2900   23.0440 N.am  383  GLY383     -0.1940
    112  CA        46.9000  -56.9530   24.0410 C.3   383  GLY383      0.2014
    113  C         46.1450  -57.3230   25.2970 C.2   383  GLY383      0.2639
    114  O         44.9270  -57.1180   25.3900 O.2   383  GLY383     -0.2714
    115  N         46.8730  -57.9050   26.2600 N.am  384  ALA384     -0.1963
    116  CA        46.3160  -58.3570   27.5320 C.3   384  ALA384      0.1728
    117  C         47.3770  -58.3870   28.6300 C.2   384  ALA384      0.2616
    118  O         48.5470  -58.6800   28.3560 O.2   384  ALA384     -0.2715
    119  CB        45.7120  -59.7380   27.3580 C.3   384  ALA384      0.0334
    120  N         46.9550  -58.0860   29.8570 N.am  385  GLY385     -0.1955
    121  CA        47.8110  -58.1270   31.0360 C.3   385  GLY385      0.1869
    122  C         48.1460  -59.5570   31.4120 C.2   385  GLY385      0.2309
    123  O         47.2440  -60.3890   31.5390 O.2   385  GLY385     -0.2863
    124  N         40.9410  -62.9710   25.1830 N.3   398  GLU398     -0.1245
    125  CA        40.8620  -61.6030   25.7020 C.3   398  GLU398      0.1567
    126  C         41.2230  -60.5820   24.5860 C.2   398  GLU398      0.2260
    127  O         40.5380  -59.5650   24.4590 O.2   398  GLU398     -0.2867
    128  CB        41.7800  -61.4420   26.9340 C.3   398  GLU398      0.0388
    129  CG        41.4740  -60.2130   27.7860 C.3   398  GLU398      0.1160
    130  CD        42.4140  -59.9690   28.9570 C.2   398  GLU398      0.3649
    131  OE1       42.7030  -60.9280   29.7110 O.co2 398  GLU398     -0.2457
    132  OE2       42.8370  -58.8040   29.1400 O.co2 398  GLU398     -0.2457
    133  N         38.8040  -57.5860   22.8670 N.3   402  LYS402     -0.1245
    134  CA        39.2800  -56.2120   22.7150 C.3   402  LYS402      0.1561
    135  C         39.2670  -55.7770   21.2540 C.2   402  LYS402      0.2260
    136  O         38.9640  -54.6230   20.9630 O.2   402  LYS402     -0.2867
    137  CB        40.6600  -56.0350   23.3700 C.3   402  LYS402      0.0271
    138  CG        40.5650  -55.9910   24.8840 C.3   402  LYS402      0.0035
    139  CD        41.9110  -56.2050   25.5310 C.3   402  LYS402      0.0206
    140  CE        41.8120  -56.1890   27.0320 C.3   402  LYS402      0.1093
    141  NZ        43.1320  -56.4110   27.6780 N.3   402  LYS402     -0.1314
@<TRIPOS>BOND
     1    95    96    1
     2    96    99    1
     3    96    97    1
     4    99   100    1
     5   104   103    1
     6   101   100    1
     7   101   102    1
     8   103   102    2
     9   103   105    1
    10    97    98    2
    11    97   106   am
    12    87    86    2
    13    64    65    1
    14    86    85    1
    15   106   107    1
    16    68    65    1
    17    68    69    1
    18    65    66    1
    19    85    84    1
    20    85    88    1
    21    69    70   ar
    22    69    71   ar
    23   110   107    1
    24    70    72   ar
    25   107   108    1
    26   136   135    2
    27   135   134    1
    28   109   108    2
    29    84    78   am
    30    71    73   ar
    31    88    89    1
    32    66    67    2
    33    72    74   ar
    34   108   111   am
    35    79    78    2
    36    78    77    1
    37    73    74   ar
    38    74    75    1
    39    77    76    1
    40    77    80    1
    41   134   133    1
    42   134   137    1
    43    89    90    1
    44   111   112    1
    45   137   138    1
    46    90    91    1
    47   112   113    1
    48    80    81    1
    49   127   126    2
    50    83    81    1
    51   126   125    1
    52   138   139    1
    53    93    92    1
    54    81    82    1
    55    91    92    2
    56   124   125    1
    57   113   114    2
    58   113   115   am
    59   139   140    1
    60    24    18    1
    61    24    23    1
    62    92    94    1
    63   125   128    1
    64    18    19    1
    65   115   116    1
    66    23    22    1
    67   128   129    1
    68    13    12    2
    69   140   141    1
    70    19    22    1
    71    19    20    1
    72    16    14    1
    73   119   116    1
    74    12    11    1
    75   116   117    1
    76    63    60    1
    77    62    61    2
    78   129   130    1
    79    28    27    2
    80   118   117    2
    81    25    20   am
    82    25    26    1
    83    20    21    2
    84   117   120   am
    85    14    11    1
    86    14    15    1
    87    60    61    1
    88    60    59    1
    89    11    10    1
    90   130   132   ar
    91   130   131   ar
    92    27    26    1
    93    26    29    1
    94    15    17    1
    95   120   121    1
    96    59    54   am
    97    55    54    2
    98    29    30    1
    99    54    53    1
   100    51    50   ar
   101    51    49   ar
   102    50    48   ar
   103    58    56    1
   104   121   122    1
   105   122   123    2
   106    56    53    1
   107    56    57    1
   108    30    31    1
   109    53    52    1
   110    49    47   ar
   111    48    47   ar
   112    31    33   ar
   113    31    32   ar
   114    40    39    1
   115    47    46    1
   116    39    38    1
   117    39    41    1
   118    38    35    1
   119     3     4    2
   120     3     2    1
   121    46    43    1
   122    42    43    1
   123     8     9    1
   124     8     7    1
   125    37    36    2
   126    43    44    1
   127     6     7    1
   128     6     5    1
   129    35    34    1
   130    35    36    1
   131     2     5    1
   132     2     1    1
   133    44    45    2
