@<TRIPOS>MOLECULE
tmp/3rvbA00.pdb
 138 129 0 0 0
SMALL
GASTEIGER

@<TRIPOS>ATOM
      1  N          6.9830  -32.4620   53.5690 N.3    45  PRO45      -0.2116
      2  CA         7.9010  -31.7020   52.6920 C.3    45  PRO45       0.1372
      3  C          8.2080  -30.2310   53.1020 C.2    45  PRO45       0.2244
      4  O          9.1880  -29.6320   52.5920 O.2    45  PRO45      -0.2868
      5  CB         7.1730  -31.7020   51.3290 C.3    45  PRO45       0.0268
      6  CG         6.0750  -32.7570   51.4310 C.3    45  PRO45       0.0207
      7  CD         5.6910  -32.7090   52.9030 C.3    45  PRO45       0.0892
      8  N          8.9100  -26.9530   55.8340 N.3    47  VAL47      -0.1245
      9  CA         9.4000  -26.4590   57.1200 C.3    47  VAL47       0.1561
     10  C          8.2330  -25.8180   57.8520 C.2    47  VAL47       0.2260
     11  O          7.9800  -26.1080   59.0140 O.2    47  VAL47      -0.2867
     12  CB        10.6240  -25.4610   56.8990 C.3    47  VAL47       0.0252
     13  CG1       10.9570  -24.5850   58.1430 C.3    47  VAL47       0.0019
     14  CG2       11.8510  -26.2320   56.4020 C.3    47  VAL47       0.0019
     15  N         15.9620  -28.3430   58.7280 N.3    70  GLY70      -0.1225
     16  CA        17.3020  -27.9210   58.2610 C.3    70  GLY70       0.1811
     17  C         18.0050  -26.9200   59.1530 C.2    70  GLY70       0.2280
     18  O         19.1510  -27.0970   59.5180 O.2    70  GLY70      -0.2866
     19  N         11.1430  -32.6170   58.5500 N.3    84  THR84      -0.1218
     20  CA        10.9430  -32.5470   57.0990 C.3    84  THR84       0.1862
     21  C         11.5870  -33.8350   56.5510 C.2    84  THR84       0.2287
     22  O         12.3910  -34.5230   57.2750 O.2    84  THR84      -0.2866
     23  CB        11.5980  -31.2780   56.4920 C.3    84  THR84       0.1770
     24  OG1       12.9700  -31.2780   56.8160 O.3    84  THR84      -0.2211
     25  CG2       11.0190  -29.9320   57.1160 C.3    84  THR84       0.0375
     26  N         13.6950  -33.7280   54.1780 N.3    86  GLY86      -0.1210
     27  CA        15.0790  -33.3240   54.0270 C.3    86  GLY86       0.1956
     28  C         15.9070  -33.4240   55.2720 C.2    86  GLY86       0.2611
     29  O         17.0420  -33.8940   55.2450 O.2    86  GLY86      -0.2717
     30  N         15.3810  -32.9460   56.3840 N.am   87  LYS87      -0.1979
     31  CA        16.1100  -33.1360   57.6080 C.3    87  LYS87       0.1596
     32  C         16.2270  -34.6330   57.9330 C.2    87  LYS87       0.2287
     33  O         17.2820  -35.1060   58.3910 O.2    87  LYS87      -0.2864
     34  CB        15.4230  -32.3630   58.6970 C.3    87  LYS87       0.0298
     35  CG        16.0880  -32.3920   60.0540 C.3    87  LYS87       0.0038
     36  CD        17.4920  -31.8280   59.9940 C.3    87  LYS87       0.0206
     37  CE        18.1310  -32.0600   61.3490 C.3    87  LYS87       0.1093
     38  NZ        19.5640  -31.6640   61.3370 N.3    87  LYS87      -0.1314
     39  N         16.5750  -37.0130   55.9060 N.3    89  LEU89      -0.1231
     40  CA        17.6260  -37.5860   55.0640 C.3    89  LEU89       0.1693
     41  C         18.9990  -37.1140   55.5740 C.2    89  LEU89       0.2591
     42  O         19.9580  -37.8940   55.6320 O.2    89  LEU89      -0.2718
     43  CB        17.4140  -37.2220   53.5760 C.3    89  LEU89       0.0284
     44  CG        16.2300  -37.9100   52.8970 C.3    89  LEU89       0.0019
     45  CD1       15.9170  -37.2180   51.5720 C.3    89  LEU89       0.0001
     46  CD2       16.5320  -39.4070   52.6940 C.3    89  LEU89       0.0001
     47  N         19.0530  -35.8550   55.9890 N.am   90  ALA90      -0.1980
     48  CA        20.2880  -35.2900   56.4860 C.3    90  ALA90       0.1597
     49  C         20.7070  -35.9870   57.7370 C.2    90  ALA90       0.2287
     50  O         21.9190  -36.1400   57.9110 O.2    90  ALA90      -0.2864
     51  CB        20.1680  -33.7840   56.7220 C.3    90  ALA90       0.0319
     52  N         11.9450  -33.9910   44.8250 N.3   110  SER110     -0.1202
     53  CA        12.8910  -35.0510   45.0140 C.3   110  SER110      0.2020
     54  C         13.1740  -35.4380   46.4840 C.2   110  SER110      0.2619
     55  O         13.4030  -36.5960   46.7570 O.2   110  SER110     -0.2717
     56  CB        14.1590  -34.7720   44.2520 C.3   110  SER110      0.2103
     57  OG        14.6040  -33.5020   44.5710 O.3   110  SER110     -0.2182
     58  N         13.1860  -34.4760   47.3940 N.am  111  THR111     -0.1952
     59  CA        13.3920  -34.7410   48.8260 C.3   111  THR111      0.1897
     60  C         12.3090  -35.6670   49.3970 C.2   111  THR111      0.2313
     61  O         12.5880  -36.5530   50.1470 O.2   111  THR111     -0.2863
     62  CB        13.4200  -33.4000   49.5910 C.3   111  THR111      0.1794
     63  OG1       14.2640  -32.4790   48.8790 O.3   111  THR111     -0.2208
     64  CG2       14.0170  -33.5440   50.9300 C.3   111  THR111      0.0378
     65  N         12.9320  -39.3270   47.5970 N.3   114  LEU114     -0.1245
     66  CA        14.0710  -39.9790   48.2580 C.3   114  LEU114      0.1561
     67  C         13.7840  -40.3340   49.7260 C.2   114  LEU114      0.2260
     68  O         14.1530  -41.4100   50.1960 O.2   114  LEU114     -0.2867
     69  CB        15.2610  -39.0390   48.2350 C.3   114  LEU114      0.0270
     70  CG        16.6490  -39.5710   47.9170 C.3   114  LEU114      0.0019
     71  CD1       17.6840  -38.7180   48.5950 C.3   114  LEU114      0.0001
     72  CD2       16.8560  -40.9810   48.2170 C.3   114  LEU114      0.0001
     73  N         17.5230  -35.6920   40.0460 N.3   306  GLU306     -0.1231
     74  CA        17.6670  -34.7900   41.1120 C.3   306  GLU306      0.1699
     75  C         17.8900  -35.4780   42.4310 C.2   306  GLU306      0.2592
     76  O         18.6340  -34.9930   43.2910 O.2   306  GLU306     -0.2718
     77  CB        16.4040  -33.9550   41.1760 C.3   306  GLU306      0.0402
     78  CG        16.5700  -32.7710   42.0160 C.3   306  GLU306      0.1161
     79  CD        15.4640  -31.7300   41.8100 C.2   306  GLU306      0.3649
     80  OE1       15.7010  -30.6060   42.3230 O.co2 306  GLU306     -0.2457
     81  OE2       14.4000  -32.0260   41.1390 O.co2 306  GLU306     -0.2457
     82  N         17.1870  -36.5800   42.6280 N.am  307  CYS307     -0.1970
     83  CA        17.4500  -37.4590   43.7400 C.3   307  CYS307      0.1712
     84  C         18.9010  -37.9340   43.7770 C.2   307  CYS307      0.2296
     85  O         19.4850  -37.9200   44.8350 O.2   307  CYS307     -0.2864
     86  CB        16.5030  -38.6610   43.7200 C.3   307  CYS307      0.0983
     87  SG        14.7620  -38.2130   43.9900 S.3   307  CYS307     -0.0798
     88  N         21.1560  -34.9970   44.6190 N.3   310  ALA310     -0.1245
     89  CA        21.1300  -34.6240   46.0260 C.3   310  ALA310      0.1562
     90  C         21.7970  -35.6650   46.8960 C.2   310  ALA310      0.2260
     91  O         22.4130  -35.3290   47.8930 O.2   310  ALA310     -0.2867
     92  CB        19.6860  -34.4070   46.4840 C.3   310  ALA310      0.0290
     93  N         24.4380  -33.8420   49.1310 N.3   314  TRP314     -0.1227
     94  CA        23.9760  -33.4580   50.4250 C.3   314  TRP314      0.1737
     95  C         24.0770  -34.5600   51.4180 C.2   314  TRP314      0.2595
     96  O         24.2800  -34.3010   52.5470 O.2   314  TRP314     -0.2718
     97  CB        22.5110  -33.0010   50.3280 C.3   314  TRP314      0.0564
     98  CG        22.3290  -31.6380   49.7780 C.ar  314  TRP314      0.0003
     99  CD1       21.8500  -31.3110   48.5460 C.ar  314  TRP314      0.0946
    100  CD2       22.6290  -30.3910   50.4440 C.ar  314  TRP314      0.0152
    101  NE1       21.8330  -29.9200   48.3960 N.ar  314  TRP314     -0.2442
    102  CE2       22.2920  -29.3410   49.5460 C.ar  314  TRP314      0.0810
    103  CE3       23.1420  -30.0590   51.7180 C.ar  314  TRP314      0.0012
    104  CZ2       22.4490  -27.9770   49.8780 C.ar  314  TRP314      0.0191
    105  CZ3       23.3180  -28.6770   52.0470 C.ar  314  TRP314      0.0001
    106  CH2       22.9810  -27.6660   51.1240 C.ar  314  TRP314      0.0015
    107  N         23.9300  -35.8020   50.9770 N.am  315  TYR315     -0.1976
    108  CA        23.6300  -36.9130   51.8730 C.3   315  TYR315      0.1639
    109  C         24.6320  -38.0300   51.8480 C.2   315  TYR315      0.2290
    110  O         24.3850  -39.0560   52.4580 O.2   315  TYR315     -0.2864
    111  CB        22.2330  -37.4760   51.6030 C.3   315  TYR315      0.0560
    112  CG        21.1200  -36.4540   51.6440 C.ar  315  TYR315     -0.0198
    113  CD1       20.9390  -35.6190   52.7570 C.ar  315  TYR315     -0.0009
    114  CD2       20.2390  -36.3250   50.5730 C.ar  315  TYR315     -0.0009
    115  CE1       19.9140  -34.7020   52.8100 C.ar  315  TYR315      0.0417
    116  CE2       19.1910  -35.3970   50.6080 C.ar  315  TYR315      0.0417
    117  CZ        19.0300  -34.5890   51.7260 C.ar  315  TYR315      0.1957
    118  OH        17.9890  -33.6600   51.7420 O.3   315  TYR315     -0.2866
    119  N         25.8900  -25.5730   46.3470 N.3   364  LYS364     -0.1245
    120  CA        24.9800  -25.9470   47.4420 C.3   364  LYS364      0.1561
    121  C         24.5020  -24.7390   48.2050 C.2   364  LYS364      0.2260
    122  O         23.2940  -24.6220   48.4880 O.2   364  LYS364     -0.2867
    123  CB        25.6650  -26.8780   48.4240 C.3   364  LYS364      0.0271
    124  CG        25.9230  -28.2490   47.8860 C.3   364  LYS364      0.0035
    125  CD        26.8060  -29.1100   48.8230 C.3   364  LYS364      0.0206
    126  CE        26.1230  -29.4740   50.1240 C.3   364  LYS364      0.1093
    127  NZ        27.0330  -30.3100   51.0060 N.3   364  LYS364     -0.1314
    128  N         22.1730  -22.3100   46.3870 N.3   367  GLY367     -0.1225
    129  CA        20.8620  -22.9190   46.2440 C.3   367  GLY367      0.1811
    130  C         20.3650  -23.2220   44.8280 C.2   367  GLY367      0.2280
    131  O         19.2060  -23.5700   44.6750 O.2   367  GLY367     -0.2866
    132  N         22.7680  -29.1480   42.2690 N.3   371  PRO371     -0.2116
    133  CA        24.0660  -28.6590   42.7030 C.3   371  PRO371      0.1372
    134  C         25.2320  -29.5370   42.2150 C.2   371  PRO371      0.2244
    135  O         26.2660  -29.0060   41.8090 O.2   371  PRO371     -0.2868
    136  CB        23.9400  -28.6620   44.2370 C.3   371  PRO371      0.0268
    137  CG        22.8240  -29.6430   44.5480 C.3   371  PRO371      0.0207
    138  CD        21.8510  -29.3360   43.4130 C.3   371  PRO371      0.0892
@<TRIPOS>BOND
     1    73    74    1
     2    74    77    1
     3    74    75    1
     4    81    79   ar
     5    77    78    1
     6   135   134    2
     7    79    78    1
     8    79    80   ar
     9   134   133    1
    10   132   133    1
    11   132   138    1
    12    75    82   am
    13    75    76    2
    14    82    83    1
    15   133   136    1
    16   138   137    1
    17    86    83    1
    18    86    87    1
    19    83    84    1
    20    84    85    2
    21   136   137    1
    22    56    57    1
    23    56    53    1
    24    88    89    1
    25   131   130    2
    26    52    53    1
    27   130   129    1
    28    53    54    1
    29    89    92    1
    30    89    90    1
    31   129   128    1
    32   119   120    1
    33    54    55    2
    34    54    58   am
    35    90    91    2
    36    58    59    1
    37   120   121    1
    38   120   123    1
    39    65    66    1
    40   124   123    1
    41   124   125    1
    42    70    72    1
    43    70    69    1
    44    70    71    1
    45   121   122    2
    46    69    66    1
    47    66    67    1
    48   101    99   ar
    49   101   102   ar
    50    99    98   ar
    51   125   126    1
    52    59    60    1
    53    59    62    1
    54    63    62    1
    55    93    94    1
    56    60    61    2
    57   102   104   ar
    58   102   100   ar
    59    62    64    1
    60    67    68    2
    61    98    97    1
    62    98   100   ar
    63   104   106   ar
    64   126   127    1
    65    97    94    1
    66    94    95    1
    67   100   103   ar
    68   114   116   ar
    69   114   112   ar
    70   116   117   ar
    71   107    95   am
    72   107   108    1
    73   106   105   ar
    74     5     6    1
    75     5     2    1
    76    95    96    2
    77     6     7    1
    78    45    44    1
    79   111   112    1
    80   111   108    1
    81   112   113   ar
    82   103   105   ar
    83   117   118    1
    84   117   115   ar
    85   109   108    1
    86   109   110    2
    87     4     3    2
    88     2     3    1
    89     2     1    1
    90    46    44    1
    91   113   115   ar
    92    44    43    1
    93     7     1    1
    94    43    40    1
    95    27    26    1
    96    27    28    1
    97    40    41    1
    98    40    39    1
    99    29    28    2
   100    28    30   am
   101    41    42    2
   102    41    47   am
   103     8     9    1
   104    47    48    1
   105    30    31    1
   106    14    12    1
   107    48    51    1
   108    48    49    1
   109    23    24    1
   110    23    20    1
   111    23    25    1
   112    21    20    1
   113    21    22    2
   114    12     9    1
   115    12    13    1
   116    20    19    1
   117     9    10    1
   118    31    32    1
   119    31    34    1
   120    49    50    2
   121    10    11    2
   122    32    33    2
   123    16    15    1
   124    16    17    1
   125    34    35    1
   126    17    18    2
   127    36    35    1
   128    36    37    1
   129    38    37    1
