@<TRIPOS>MOLECULE
tmp/3rvgA00.pdb
 174 166 0 0 0
SMALL
GASTEIGER

@<TRIPOS>ATOM
      1  N        -20.3830  -41.9940   13.3240 N.3    13  GLN13      -0.1245
      2  CA       -20.4510  -40.6380   13.8570 C.3    13  GLN13       0.1566
      3  C        -21.8650  -40.0930   13.7050 C.2    13  GLN13       0.2260
      4  O        -22.7110  -40.7340   13.0910 O.2    13  GLN13      -0.2867
      5  CB       -19.4630  -39.7160   13.1510 C.3    13  GLN13       0.0367
      6  CG       -19.8280  -39.3660   11.7200 C.3    13  GLN13       0.0905
      7  CD       -18.9700  -38.2370   11.1710 C.2    13  GLN13       0.2608
      8  OE1      -17.7920  -38.4270   10.8810 O.2    13  GLN13      -0.2717
      9  NE2      -19.5540  -37.0580   11.0340 N.am   13  GLN13      -0.0878
     10  N        -24.1940  -37.1380   12.0700 N.3    15  LEU15      -0.1231
     11  CA       -24.1350  -36.2640   10.9100 C.3    15  LEU15       0.1693
     12  C        -24.8770  -34.9500   11.1590 C.2    15  LEU15       0.2593
     13  O        -24.5390  -33.9260   10.5800 O.2    15  LEU15      -0.2718
     14  CB       -24.7020  -36.9620    9.6740 C.3    15  LEU15       0.0284
     15  CG       -23.9920  -38.2400    9.2260 C.3    15  LEU15       0.0019
     16  CD1      -24.6170  -38.7310    7.9400 C.3    15  LEU15       0.0001
     17  CD2      -22.4980  -38.0230    9.0490 C.3    15  LEU15       0.0001
     18  N        -25.8950  -34.9770   12.0110 N.am   16  GLY16      -0.1942
     19  CA       -26.6630  -33.7760   12.2650 C.3    16  GLY16       0.2014
     20  C        -28.0060  -34.0150   12.9160 C.2    16  GLY16       0.2639
     21  O        -28.3760  -35.1520   13.1920 O.2    16  GLY16      -0.2714
     22  N        -28.7260  -32.9290   13.1770 N.am   17  LYS17      -0.1963
     23  CA       -30.0400  -32.9940   13.8110 C.3    17  LYS17       0.1728
     24  C        -31.0330  -32.1110   13.0630 C.2    17  LYS17       0.2616
     25  O        -30.8060  -30.9190   12.8940 O.2    17  LYS17      -0.2715
     26  CB       -29.9680  -32.5580   15.2750 C.3    17  LYS17       0.0311
     27  CG       -29.1260  -33.4680   16.1710 C.3    17  LYS17       0.0038
     28  CD       -29.0790  -32.9610   17.6300 C.3    17  LYS17       0.0206
     29  CE       -28.5110  -31.5280   17.7350 C.3    17  LYS17       0.1093
     30  NZ       -27.8960  -31.2330   19.0790 N.3    17  LYS17      -0.1314
     31  N        -32.1270  -32.7110   12.6080 N.am   18  GLY18      -0.1955
     32  CA       -33.1820  -31.9950   11.9130 C.3    18  GLY18       0.1869
     33  C        -34.3120  -31.6440   12.8550 C.2    18  GLY18       0.2309
     34  O        -34.1370  -31.6680   14.0710 O.2    18  GLY18      -0.2863
     35  N        -29.5470  -37.6000   12.7230 N.3    23  VAL23      -0.1245
     36  CA       -28.9300  -38.3510   11.6230 C.3    23  VAL23       0.1561
     37  C        -27.5130  -38.8560   11.9080 C.2    23  VAL23       0.2260
     38  O        -26.6100  -38.0900   12.2440 O.2    23  VAL23      -0.2867
     39  CB       -28.9410  -37.5640   10.2890 C.3    23  VAL23       0.0252
     40  CG1      -28.5790  -38.4740    9.1480 C.3    23  VAL23       0.0019
     41  CG2      -30.3060  -36.9720   10.0430 C.3    23  VAL23       0.0019
     42  N        -24.1420  -41.5420   10.7680 N.3    25  MET25      -0.1245
     43  CA       -23.4190  -42.3160    9.7920 C.3    25  MET25       0.1570
     44  C        -23.1840  -43.6800   10.4080 C.2    25  MET25       0.2261
     45  O        -22.5570  -43.7850   11.4560 O.2    25  MET25      -0.2867
     46  CB       -22.0870  -41.6350    9.5250 C.3    25  MET25       0.0387
     47  CG       -21.2810  -42.2360    8.4210 C.3    25  MET25       0.0595
     48  SD       -19.6690  -41.4650    8.3730 S.3    25  MET25      -0.1393
     49  CE       -19.2300  -41.7350    6.6630 C.3    25  MET25       0.0692
     50  N        -26.7590  -43.9560    5.7300 N.3    40  ALA40      -0.1245
     51  CA       -27.2070  -42.8780    6.6190 C.3    40  ALA40       0.1562
     52  C        -28.4800  -43.2950    7.3480 C.2    40  ALA40       0.2260
     53  O        -29.4010  -43.8590    6.7500 O.2    40  ALA40      -0.2867
     54  CB       -27.4230  -41.5940    5.8460 C.3    40  ALA40       0.0290
     55  N        -32.6940  -38.4130   -2.5020 N.3    71  VAL71      -0.1245
     56  CA       -31.8190  -39.3610   -1.8150 C.3    71  VAL71       0.1561
     57  C        -32.5060  -40.7030   -1.7750 C.2    71  VAL71       0.2260
     58  O        -33.7270  -40.7620   -1.6840 O.2    71  VAL71      -0.2867
     59  CB       -31.5390  -38.8870   -0.3910 C.3    71  VAL71       0.0252
     60  CG1      -32.8100  -38.9560    0.4420 C.3    71  VAL71       0.0019
     61  CG2      -30.4510  -39.6950    0.2410 C.3    71  VAL71       0.0019
     62  N        -30.8860  -44.9230    4.7110 N.3    89  MET89      -0.1230
     63  CA       -30.7420  -44.2390    3.4490 C.3    89  MET89       0.1702
     64  C        -29.3400  -44.3560    2.8680 C.2    89  MET89       0.2592
     65  O        -28.3550  -44.6160    3.5750 O.2    89  MET89      -0.2718
     66  CB       -31.1290  -42.7600    3.6220 C.3    89  MET89       0.0401
     67  CG       -32.5900  -42.5780    3.9270 C.3    89  MET89       0.0596
     68  SD       -33.0370  -40.9100    4.3890 S.3    89  MET89      -0.1393
     69  CE       -31.9850  -40.7380    5.8400 C.3    89  MET89       0.0692
     70  N        -29.2550  -44.1410    1.5600 N.am   90  GLU90      -0.1966
     71  CA       -27.9640  -44.1620    0.9140 C.3    90  GLU90       0.1733
     72  C        -27.1570  -43.0370    1.5230 C.2    90  GLU90       0.2616
     73  O        -27.6800  -41.9530    1.7830 O.2    90  GLU90      -0.2715
     74  CB       -28.0970  -43.9600   -0.5870 C.3    90  GLU90       0.0429
     75  CG       -28.1760  -42.5020   -1.0180 C.3    90  GLU90       0.1163
     76  CD       -28.2740  -42.3560   -2.5210 C.2    90  GLU90       0.3649
     77  OE1      -29.1280  -41.5770   -2.9900 O.co2  90  GLU90      -0.2457
     78  OE2      -27.5000  -43.0290   -3.2320 O.co2  90  GLU90      -0.2457
     79  N        -25.8790  -43.2950    1.7460 N.am   91  TYR91      -0.1960
     80  CA       -24.9930  -42.2650    2.2450 C.3    91  TYR91       0.1771
     81  C        -24.3850  -41.4220    1.1160 C.2    91  TYR91       0.2619
     82  O        -23.8030  -41.9500    0.1750 O.2    91  TYR91      -0.2715
     83  CB       -23.8960  -42.8830    3.0880 C.3    91  TYR91       0.0574
     84  CG       -22.9320  -41.8620    3.6100 C.ar   91  TYR91      -0.0198
     85  CD1      -23.3510  -40.8890    4.5230 C.ar   91  TYR91      -0.0009
     86  CD2      -21.5980  -41.8500    3.1910 C.ar   91  TYR91      -0.0009
     87  CE1      -22.4700  -39.9350    5.0140 C.ar   91  TYR91       0.0417
     88  CE2      -20.7070  -40.8990    3.6890 C.ar   91  TYR91       0.0417
     89  CZ       -21.1540  -39.9510    4.6020 C.ar   91  TYR91       0.1957
     90  OH       -20.2850  -39.0160    5.0950 O.3    91  TYR91      -0.2866
     91  N        -24.5450  -40.1080    1.2160 N.am   92  LEU92      -0.1964
     92  CA       -23.9210  -39.1830    0.2830 C.3    92  LEU92       0.1713
     93  C        -22.7890  -38.5120    1.0340 C.2    92  LEU92       0.2458
     94  O        -22.9880  -37.9730    2.1260 O.2    92  LEU92      -0.2730
     95  CB       -24.9350  -38.1720   -0.2450 C.3    92  LEU92       0.0310
     96  CG       -26.1430  -38.8090   -0.9540 C.3    92  LEU92       0.0022
     97  CD1      -27.2060  -37.7850   -1.2630 C.3    92  LEU92       0.0001
     98  CD2      -25.7370  -39.5580   -2.2370 C.3    92  LEU92       0.0001
     99  N        -21.5830  -38.5640    0.4570 N.am   93  PRO93      -0.2716
    100  CA       -20.3430  -38.3420    1.2080 C.3    93  PRO93       0.1536
    101  C        -19.9820  -36.8690    1.4620 C.2    93  PRO93       0.2599
    102  O        -19.1010  -36.6040    2.2730 O.2    93  PRO93      -0.2715
    103  CB       -19.2760  -39.0280    0.3320 C.3    93  PRO93       0.0310
    104  CG       -20.0300  -39.7040   -0.7870 C.3    93  PRO93       0.0237
    105  CD       -21.3180  -38.9620   -0.9270 C.3    93  PRO93       0.0939
    106  N        -20.6590  -35.9340    0.8070 N.am   94  TYR94      -0.1960
    107  CA       -20.3270  -34.5160    0.9420 C.3    94  TYR94       0.1771
    108  C        -21.1890  -33.6850    1.9090 C.2    94  TYR94       0.2620
    109  O        -20.9510  -32.4850    2.0460 O.2    94  TYR94      -0.2715
    110  CB       -20.4030  -33.8280   -0.4200 C.3    94  TYR94       0.0574
    111  CG       -19.3370  -34.2190   -1.4160 C.ar   94  TYR94      -0.0198
    112  CD1      -19.5760  -35.1970   -2.3600 C.ar   94  TYR94      -0.0009
    113  CD2      -18.1030  -33.5770   -1.4270 C.ar   94  TYR94      -0.0009
    114  CE1      -18.6190  -35.5390   -3.2700 C.ar   94  TYR94       0.0417
    115  CE2      -17.1390  -33.9070   -2.3410 C.ar   94  TYR94       0.0417
    116  CZ       -17.4010  -34.8850   -3.2630 C.ar   94  TYR94       0.1957
    117  OH       -16.4450  -35.2190   -4.1870 O.3    94  TYR94      -0.2866
    118  N        -22.1880  -34.2840    2.5550 N.am   95  GLY95      -0.1940
    119  CA       -23.0270  -33.5250    3.4640 C.3    95  GLY95       0.2014
    120  C        -23.9840  -32.6260    2.6950 C.2    95  GLY95       0.2639
    121  O        -24.3470  -32.9120    1.5470 O.2    95  GLY95      -0.2714
    122  N        -24.3930  -31.5250    3.3120 N.am   96  SER96      -0.1949
    123  CA       -25.3730  -30.6620    2.6760 C.3    96  SER96       0.1924
    124  C        -24.7490  -29.6500    1.7030 C.2    96  SER96       0.2314
    125  O        -23.5940  -29.2540    1.8240 O.2    96  SER96      -0.2863
    126  CB       -26.2450  -29.9500    3.7190 C.3    96  SER96       0.2116
    127  OG       -25.6970  -28.6830    4.0800 O.3    96  SER96      -0.2180
    128  N        -23.0230  -26.6000    3.3820 N.3    99  ASP99      -0.1239
    129  CA       -21.6480  -26.7280    3.8430 C.3    99  ASP99       0.1674
    130  C        -20.6590  -27.0180    2.7120 C.2    99  ASP99       0.2266
    131  O        -19.5270  -26.5410    2.7280 O.2    99  ASP99      -0.2867
    132  CB       -21.5600  -27.8130    4.9170 C.3    99  ASP99       0.1410
    133  CG       -22.3870  -27.4850    6.1380 C.2    99  ASP99       0.3668
    134  OD1      -22.9220  -28.4090    6.7870 O.co2  99  ASP99      -0.2456
    135  OD2      -22.5140  -26.2890    6.4430 O.co2  99  ASP99      -0.2456
    136  N        -29.7030  -26.4710    3.3220 N.3   140  ARG140     -0.1231
    137  CA       -29.2640  -27.2900    4.4390 C.3   140  ARG140      0.1694
    138  C        -29.9090  -28.6570    4.3270 C.2   140  ARG140      0.2592
    139  O        -29.4180  -29.6270    4.8900 O.2   140  ARG140     -0.2718
    140  CB       -29.6300  -26.6470    5.7730 C.3   140  ARG140      0.0321
    141  CG       -31.0410  -26.9340    6.2240 C.3   140  ARG140      0.0489
    142  CD       -31.4220  -26.1220    7.4340 C.3   140  ARG140      0.2205
    143  NE       -32.4920  -25.2030    7.0720 N.pl3 140  ARG140     -0.0865
    144  CZ       -33.7900  -25.4610    7.2030 C.cat 140  ARG140      0.5346
    145  NH1      -34.1970  -26.6220    7.7250 N.pl3 140  ARG140      0.1354
    146  NH2      -34.6790  -24.5430    6.8250 N.pl3 140  ARG140      0.1354
    147  N        -31.0100  -28.7250    3.5840 N.am  141  ASN141     -0.1974
    148  CA       -31.7130  -29.9790    3.3570 C.3   141  ASN141      0.1688
    149  C        -31.3410  -30.6450    2.0410 C.2   141  ASN141      0.2292
    150  O        -31.7610  -31.7690    1.7880 O.2   141  ASN141     -0.2864
    151  CB       -33.2330  -29.7750    3.3740 C.3   141  ASN141      0.1181
    152  CG       -33.7470  -29.4140    4.7210 C.2   141  ASN141      0.2629
    153  OD1      -33.2190  -29.8500    5.7420 O.2   141  ASN141     -0.2716
    154  ND2      -34.7840  -28.5960    4.7480 N.am  141  ASN141     -0.0877
    155  N        -28.6320  -32.3530   -0.4340 N.3   143  LEU143     -0.1245
    156  CA       -27.3770  -33.0750   -0.2260 C.3   143  LEU143      0.1561
    157  C        -26.5480  -33.2560   -1.4920 C.2   143  LEU143      0.2260
    158  O        -27.0740  -33.3800   -2.6010 O.2   143  LEU143     -0.2867
    159  CB       -27.6430  -34.4370    0.3980 C.3   143  LEU143      0.0270
    160  CG       -28.3260  -34.4860    1.7470 C.3   143  LEU143      0.0019
    161  CD1      -28.7090  -35.9200    1.9930 C.3   143  LEU143      0.0001
    162  CD2      -27.4120  -33.9640    2.8470 C.3   143  LEU143      0.0001
    163  N        -32.7260  -34.2360    0.4010 N.3   153  GLY153     -0.1210
    164  CA       -32.2160  -35.2040    1.3490 C.3   153  GLY153      0.1956
    165  C        -33.0290  -35.3730    2.6110 C.2   153  GLY153      0.2611
    166  O        -32.6810  -36.1670    3.4640 O.2   153  GLY153     -0.2717
    167  N        -34.1170  -34.6250    2.7330 N.am  154  ASP154     -0.1973
    168  CA       -34.9780  -34.7430    3.8940 C.3   154  ASP154      0.1709
    169  C        -36.3900  -34.4080    3.5080 C.2   154  ASP154      0.2293
    170  O        -36.6220  -33.5700    2.6480 O.2   154  ASP154     -0.2864
    171  CB       -34.5010  -33.8630    5.0600 C.3   154  ASP154      0.1436
    172  CG       -35.1700  -34.2260    6.3620 C.2   154  ASP154      0.3671
    173  OD1      -34.6920  -35.1380    7.0750 O.co2 154  ASP154     -0.2456
    174  OD2      -36.1970  -33.6120    6.6860 O.co2 154  ASP154     -0.2456
@<TRIPOS>BOND
     1   117   116    1
     2   114   116   ar
     3   114   112   ar
     4   116   115   ar
     5    78    76   ar
     6    77    76   ar
     7   158   157    2
     8    76    75    1
     9    55    56    1
    10   112   111   ar
    11   115   113   ar
    12    98    96    1
    13    56    57    1
    14    56    59    1
    15    57    58    2
    16   157   156    1
    17   113   111   ar
    18   111   110    1
    19    97    96    1
    20    75    74    1
    21    96    95    1
    22   105   104    1
    23   105    99    1
    24   104   103    1
    25    74    71    1
    26   155   156    1
    27   110   107    1
    28    59    61    1
    29    59    60    1
    30    95    92    1
    31   156   159    1
    32    82    81    2
    33    92    93    1
    34    92    91    1
    35   103   100    1
    36   159   160    1
    37   163   164    1
    38    99    93   am
    39    99   100    1
    40   106   107    1
    41   106   101   am
    42    71    72    1
    43    71    70    1
    44   107   108    1
    45    93    94    2
    46    81    91   am
    47    81    80    1
    48   100   101    1
    49   164   165    1
    50   101   102    2
    51    72    79   am
    52    72    73    2
    53   121   120    2
    54    70    64   am
    55   124   125    2
    56   124   123    1
    57    79    80    1
    58   160   161    1
    59   160   162    1
    60   150   149    2
    61   108   109    2
    62   108   118   am
    63   149   148    1
    64    80    83    1
    65   118   119    1
    66   165   167   am
    67   165   166    2
    68   170   169    2
    69   123   122    1
    70   123   126    1
    71   120   122   am
    72   120   119    1
    73   130   131    2
    74   130   129    1
    75   167   168    1
    76    64    63    1
    77    64    65    2
    78    83    84    1
    79    86    84   ar
    80    86    88   ar
    81   136   137    1
    82   148   151    1
    83   148   147    1
    84   151   152    1
    85   128   129    1
    86    63    66    1
    87    63    62    1
    88   169   168    1
    89   147   138   am
    90    84    85   ar
    91    66    67    1
    92    88    89   ar
    93   126   127    1
    94   129   132    1
    95   168   171    1
    96    67    68    1
    97   138   137    1
    98   138   139    2
    99    68    69    1
   100   137   140    1
   101    85    87   ar
   102    89    87   ar
   103    89    90    1
   104   152   154   am
   105   152   153    2
   106   132   133    1
   107   171   172    1
   108    50    51    1
   109   140   141    1
   110    54    51    1
   111   133   135   ar
   112   133   134   ar
   113   141   142    1
   114   172   174   ar
   115   172   173   ar
   116    51    52    1
   117    49    48    1
   118    53    52    2
   119   146   144    1
   120   143   144    2
   121   143   142    1
   122   144   145    1
   123    16    15    1
   124    48    47    1
   125    47    46    1
   126    17    15    1
   127    40    39    1
   128    15    14    1
   129    46    43    1
   130    14    11    1
   131    43    44    1
   132    43    42    1
   133    41    39    1
   134    39    36    1
   135    44    45    2
   136    13    12    2
   137     8     7    2
   138    11    12    1
   139    11    10    1
   140     9     7   am
   141    12    18   am
   142     7     6    1
   143    36    37    1
   144    36    35    1
   145     6     5    1
   146    37    38    2
   147    32    31    1
   148    32    33    1
   149    18    19    1
   150    19    20    1
   151    31    24   am
   152    33    34    2
   153    25    24    2
   154    20    22   am
   155    20    21    2
   156    24    23    1
   157     4     3    2
   158     5     2    1
   159    22    23    1
   160     1     2    1
   161     3     2    1
   162    23    26    1
   163    26    27    1
   164    27    28    1
   165    28    29    1
   166    29    30    1
