@<TRIPOS>MOLECULE
tmp/3rvhA00.pdb
 172 163 0 0 0
SMALL
GASTEIGER

@<TRIPOS>ATOM
      1  N        -13.4970  -16.4840  -22.4170 N.3    69  ILE69      -0.1245
      2  CA       -13.2570  -17.0190  -21.0950 C.3    69  ILE69       0.1561
      3  C        -12.6260  -18.3880  -21.2240 C.2    69  ILE69       0.2260
      4  O        -13.0420  -19.2010  -22.0420 O.2    69  ILE69      -0.2867
      5  CB       -14.5530  -17.0990  -20.2630 C.3    69  ILE69       0.0252
      6  CG1      -15.5730  -17.9740  -20.9780 C.3    69  ILE69       0.0019
      7  CG2      -15.1180  -15.7010  -20.0170 C.3    69  ILE69       0.0019
      8  CD1      -16.9570  -17.9740  -20.3460 C.3    69  ILE69       0.0001
      9  N        -12.1210  -21.9290  -19.5830 N.3    71  GLN71      -0.1245
     10  CA       -12.9620  -22.6600  -18.6310 C.3    71  GLN71       0.1566
     11  C        -12.1530  -23.6680  -17.8530 C.2    71  GLN71       0.2260
     12  O        -11.7810  -24.7170  -18.3870 O.2    71  GLN71      -0.2867
     13  CB       -14.1290  -23.3490  -19.3450 C.3    71  GLN71       0.0367
     14  CG       -15.1180  -22.3650  -19.9260 C.3    71  GLN71       0.0905
     15  CD       -16.3050  -23.0220  -20.6070 C.2    71  GLN71       0.2608
     16  OE1      -16.1720  -24.0030  -21.3620 O.2    71  GLN71      -0.2717
     17  NE2      -17.4700  -22.4860  -20.3420 N.am   71  GLN71      -0.0878
     18  N        -14.2070  -19.5270  -14.3240 N.3    84  ASN84      -0.1240
     19  CA       -13.9300  -18.7850  -15.5400 C.3    84  ASN84       0.1653
     20  C        -12.7040  -17.9190  -15.3900 C.2    84  ASN84       0.2266
     21  O        -12.5000  -17.2780  -14.3600 O.2    84  ASN84      -0.2867
     22  CB       -15.1300  -17.9400  -15.9400 C.3    84  ASN84       0.1155
     23  CG       -16.2990  -18.7830  -16.3700 C.2    84  ASN84       0.2627
     24  OD1      -16.1460  -19.9600  -16.6810 O.2    84  ASN84      -0.2716
     25  ND2      -17.4760  -18.1870  -16.3990 N.am   84  ASN84      -0.0877
     26  N        -13.9630  -20.3060  -24.4620 N.3   130  TYR130     -0.1241
     27  CA       -15.3270  -20.1320  -24.9520 C.3   130  TYR130      0.1605
     28  C        -15.5070  -18.6590  -25.2770 C.2   130  TYR130      0.2264
     29  O        -15.2850  -17.8140  -24.4030 O.2   130  TYR130     -0.2867
     30  CB       -16.3470  -20.4980  -23.8510 C.3   130  TYR130      0.0534
     31  CG       -17.7310  -20.8980  -24.3450 C.ar  130  TYR130     -0.0201
     32  CD1      -17.9770  -21.1030  -25.6850 C.ar  130  TYR130     -0.0009
     33  CD2      -18.8000  -21.0710  -23.4530 C.ar  130  TYR130     -0.0009
     34  CE1      -19.2420  -21.4860  -26.1390 C.ar  130  TYR130      0.0417
     35  CE2      -20.0720  -21.4630  -23.9000 C.ar  130  TYR130      0.0417
     36  CZ       -20.2870  -21.6680  -25.2310 C.ar  130  TYR130      0.1957
     37  OH       -21.5370  -22.0550  -25.6930 O.3   130  TYR130     -0.2866
     38  N        -17.9430  -16.5300  -25.3470 N.3   132  ALA132     -0.1231
     39  CA       -19.3320  -16.4330  -24.9140 C.3   132  ALA132      0.1694
     40  C        -19.7870  -14.9960  -24.6330 C.2   132  ALA132      0.2592
     41  O        -18.9670  -14.0830  -24.4620 O.2   132  ALA132     -0.2718
     42  CB       -19.5480  -17.2950  -23.6890 C.3   132  ALA132      0.0304
     43  N        -21.1070  -14.8120  -24.5910 N.am  133  ASP133     -0.1974
     44  CA       -21.7240  -13.5260  -24.2290 C.3   133  ASP133      0.1709
     45  C        -21.3090  -12.3800  -25.1370 C.2   133  ASP133      0.2293
     46  O        -21.0980  -11.2550  -24.6810 O.2   133  ASP133     -0.2864
     47  CB       -21.4100  -13.1750  -22.7780 C.3   133  ASP133      0.1436
     48  CG       -21.8000  -14.2880  -21.8160 C.2   133  ASP133      0.3671
     49  OD1      -22.4100  -15.2910  -22.2550 O.co2 133  ASP133     -0.2456
     50  OD2      -21.5020  -14.1540  -20.6150 O.co2 133  ASP133     -0.2456
     51  N        -27.2660  -12.6460  -27.6990 N.3   173  TYR173     -0.1241
     52  CA       -25.8910  -13.0140  -27.4260 C.3   173  TYR173      0.1605
     53  C        -25.4290  -13.9830  -28.4940 C.2   173  TYR173      0.2264
     54  O        -26.2130  -14.7840  -29.0090 O.2   173  TYR173     -0.2867
     55  CB       -25.7960  -13.7290  -26.0830 C.3   173  TYR173      0.0534
     56  CG       -25.3880  -12.8800  -24.8890 C.ar  173  TYR173     -0.0201
     57  CD1      -24.9150  -11.5730  -25.0410 C.ar  173  TYR173     -0.0009
     58  CD2      -25.4550  -13.4110  -23.6030 C.ar  173  TYR173     -0.0009
     59  CE1      -24.5460  -10.8220  -23.9310 C.ar  173  TYR173      0.0417
     60  CE2      -25.0940  -12.6720  -22.4920 C.ar  173  TYR173      0.0417
     61  CZ       -24.6440  -11.3910  -22.6540 C.ar  173  TYR173      0.1957
     62  OH       -24.2850  -10.6950  -21.5220 O.3   173  TYR173     -0.2866
     63  N        -22.3930  -16.9330  -29.1520 N.3   175  TYR175     -0.1241
     64  CA       -21.4570  -17.7860  -28.4470 C.3   175  TYR175      0.1605
     65  C        -20.6440  -18.5350  -29.4780 C.2   175  TYR175      0.2264
     66  O        -21.2010  -19.3160  -30.2630 O.2   175  TYR175     -0.2867
     67  CB       -22.1790  -18.8210  -27.5810 C.3   175  TYR175      0.0534
     68  CG       -23.0980  -18.2770  -26.5040 C.ar  175  TYR175     -0.0201
     69  CD1      -24.4270  -17.9940  -26.7760 C.ar  175  TYR175     -0.0009
     70  CD2      -22.6460  -18.0830  -25.2110 C.ar  175  TYR175     -0.0009
     71  CE1      -25.2730  -17.5190  -25.7860 C.ar  175  TYR175      0.0417
     72  CE2      -23.4810  -17.6100  -24.2230 C.ar  175  TYR175      0.0417
     73  CZ       -24.7910  -17.3310  -24.5180 C.ar  175  TYR175      0.1957
     74  OH       -25.6250  -16.8600  -23.5410 O.3   175  TYR175     -0.2866
     75  N        -18.3110  -25.6510  -22.2660 N.3   182  SER182     -0.1202
     76  CA       -19.4550  -26.1400  -21.5080 C.3   182  SER182      0.2020
     77  C        -20.4160  -25.0480  -21.0420 C.2   182  SER182      0.2618
     78  O        -20.0120  -23.9100  -20.7650 O.2   182  SER182     -0.2717
     79  CB       -18.9700  -26.8740  -20.2430 C.3   182  SER182      0.2103
     80  OG       -18.1450  -27.9530  -20.5640 O.3   182  SER182     -0.2182
     81  N        -21.6880  -25.4150  -20.9360 N.am  183  PHE183     -0.1975
     82  CA       -22.6330  -24.6170  -20.1650 C.3   183  PHE183      0.1639
     83  C        -23.1780  -25.4700  -19.0190 C.2   183  PHE183      0.2290
     84  O        -23.6010  -26.6110  -19.2200 O.2   183  PHE183     -0.2864
     85  CB       -23.7300  -23.9450  -21.0330 C.3   183  PHE183      0.0560
     86  CG       -24.5150  -24.8890  -21.9390 C.ar  183  PHE183     -0.0200
     87  CD1      -25.8360  -25.2310  -21.6360 C.ar  183  PHE183     -0.0042
     88  CD2      -23.9570  -25.3790  -23.1210 C.ar  183  PHE183     -0.0042
     89  CE1      -26.5760  -26.0850  -22.4880 C.ar  183  PHE183     -0.0003
     90  CE2      -24.6960  -26.2360  -23.9870 C.ar  183  PHE183     -0.0003
     91  CZ       -26.0040  -26.5840  -23.6670 C.ar  183  PHE183     -0.0000
     92  N        -28.5370  -25.1870  -15.2010 N.3   186  HIS186     -0.1241
     93  CA       -29.3340  -24.0700  -14.7100 C.3   186  HIS186      0.1621
     94  C        -30.6800  -23.9380  -15.4380 C.2   186  HIS186      0.2264
     95  O        -30.9120  -24.5480  -16.4890 O.2   186  HIS186     -0.2867
     96  CB       -28.5740  -22.7620  -14.8880 C.3   186  HIS186      0.0745
     97  CG       -28.4020  -22.3810  -16.3170 C.ar  186  HIS186      0.0817
     98  ND1      -27.6740  -23.1480  -17.2030 N.ar  186  HIS186     -0.2268
     99  CD2      -28.8710  -21.3270  -17.0270 C.ar  186  HIS186      0.1154
    100  CE1      -27.6980  -22.5820  -18.3980 C.ar  186  HIS186      0.1986
    101  NE2      -28.4130  -21.4770  -18.3170 N.ar  186  HIS186     -0.2212
    102  N        -33.1810  -20.6630  -16.9120 N.3   188  GLU188     -0.1245
    103  CA       -32.9510  -19.2720  -17.3150 C.3   188  GLU188      0.1567
    104  C        -33.1870  -18.2640  -16.1950 C.2   188  GLU188      0.2260
    105  O        -33.9550  -18.5300  -15.2640 O.2   188  GLU188     -0.2867
    106  CB       -33.8340  -18.9260  -18.5130 C.3   188  GLU188      0.0388
    107  CG       -33.5690  -19.8180  -19.6860 C.3   188  GLU188      0.1160
    108  CD       -32.1120  -19.7200  -20.1370 C.2   188  GLU188      0.3649
    109  OE1      -31.6770  -18.6430  -20.6160 O.co2 188  GLU188     -0.2457
    110  OE2      -31.4040  -20.7300  -19.9900 O.co2 188  GLU188     -0.2457
    111  N        -35.9250  -19.6270  -23.3140 N.3   194  SER194     -0.1217
    112  CA       -34.9100  -19.1250  -24.2260 C.3   194  SER194      0.1889
    113  C        -35.0170  -19.7960  -25.5760 C.2   194  SER194      0.2288
    114  O        -35.5650  -20.8950  -25.7170 O.2   194  SER194     -0.2866
    115  CB       -33.4940  -19.3020  -23.6660 C.3   194  SER194      0.2089
    116  OG       -33.1590  -20.6730  -23.6280 O.3   194  SER194     -0.2183
    117  N        -32.4250  -20.8260  -28.8600 N.3   196  ASN196     -0.1240
    118  CA       -31.0140  -20.9850  -29.2220 C.3   196  ASN196      0.1653
    119  C        -30.9290  -21.4750  -30.6580 C.2   196  ASN196      0.2266
    120  O        -31.4590  -22.5320  -30.9770 O.2   196  ASN196     -0.2867
    121  CB       -30.3150  -21.9780  -28.2860 C.3   196  ASN196      0.1155
    122  CG       -28.7810  -22.0740  -28.5380 C.2   196  ASN196      0.2627
    123  OD1      -28.3320  -22.5090  -29.6160 O.2   196  ASN196     -0.2716
    124  ND2      -27.9800  -21.7030  -27.5200 N.am  196  ASN196     -0.0877
    125  N        -23.8890  -28.9760  -30.8000 N.3   204  LYS204     -0.1245
    126  CA       -23.9320  -28.6280  -29.3950 C.3   204  LYS204      0.1561
    127  C        -24.8810  -29.6410  -28.7790 C.2   204  LYS204      0.2260
    128  O        -26.0260  -29.7770  -29.2280 O.2   204  LYS204     -0.2867
    129  CB       -24.4970  -27.2240  -29.2130 C.3   204  LYS204      0.0271
    130  CG       -24.6960  -26.8110  -27.7540 C.3   204  LYS204      0.0035
    131  CD       -25.4810  -25.5020  -27.6620 C.3   204  LYS204      0.0206
    132  CE       -24.8380  -24.3960  -28.4990 C.3   204  LYS204      0.1093
    133  NZ       -23.6320  -23.8500  -27.8490 N.3   204  LYS204     -0.1314
    134  N        -27.0550  -31.2230  -25.5840 N.3   206  TRP206     -0.1241
    135  CA       -27.8150  -30.7080  -24.4450 C.3   206  TRP206      0.1605
    136  C        -28.2750  -31.8210  -23.5320 C.2   206  TRP206      0.2264
    137  O        -28.5870  -32.9200  -23.9990 O.2   206  TRP206     -0.2867
    138  CB       -29.0710  -29.9900  -24.9220 C.3   206  TRP206      0.0550
    139  CG       -28.8500  -28.8020  -25.7860 C.ar  206  TRP206      0.0003
    140  CD1      -28.2910  -28.7800  -27.0390 C.ar  206  TRP206      0.0946
    141  CD2      -29.2060  -27.4480  -25.4830 C.ar  206  TRP206      0.0152
    142  NE1      -28.2760  -27.4900  -27.5270 N.ar  206  TRP206     -0.2442
    143  CE2      -28.8280  -26.6560  -26.5890 C.ar  206  TRP206      0.0810
    144  CE3      -29.8010  -26.8260  -24.3760 C.ar  206  TRP206      0.0012
    145  CZ2      -29.0350  -25.2750  -26.6240 C.ar  206  TRP206      0.0191
    146  CZ3      -30.0070  -25.4580  -24.4120 C.ar  206  TRP206      0.0001
    147  CH2      -29.6280  -24.6950  -25.5270 C.ar  206  TRP206      0.0015
    148  N        -24.2070  -20.7910  -12.4640 N.3   239  LYS239     -0.1245
    149  CA       -23.8650  -21.4870  -13.7060 C.3   239  LYS239      0.1561
    150  C        -22.4220  -22.0090  -13.6810 C.2   239  LYS239      0.2260
    151  O        -21.6790  -21.8450  -14.6500 O.2   239  LYS239     -0.2867
    152  CB       -24.1020  -20.5770  -14.9340 C.3   239  LYS239      0.0271
    153  CG       -25.5900  -20.2660  -15.1760 C.3   239  LYS239      0.0035
    154  CD       -25.8490  -19.4780  -16.4670 C.3   239  LYS239      0.0206
    155  CE       -26.0870  -17.9870  -16.2000 C.3   239  LYS239      0.1093
    156  NZ       -27.4340  -17.7040  -15.6010 N.3   239  LYS239     -0.1314
    157  N        -31.0760  -27.2870  -17.6070 N.3   274  HIS274     -0.1241
    158  CA       -30.3670  -27.8200  -18.7580 C.3   274  HIS274      0.1621
    159  C        -28.8820  -27.5300  -18.6190 C.2   274  HIS274      0.2264
    160  O        -28.4620  -26.6940  -17.7990 O.2   274  HIS274     -0.2867
    161  CB       -30.9240  -27.2310  -20.0680 C.3   274  HIS274      0.0745
    162  CG       -30.9100  -25.7340  -20.1070 C.ar  274  HIS274      0.0817
    163  ND1      -31.8700  -24.9620  -19.4800 N.ar  274  HIS274     -0.2268
    164  CD2      -30.0460  -24.8630  -20.6900 C.ar  274  HIS274      0.1154
    165  CE1      -31.5970  -23.6820  -19.6790 C.ar  274  HIS274      0.1986
    166  NE2      -30.4860  -23.5940  -20.3940 N.ar  274  HIS274     -0.2212
    167  N        -28.5480  -16.6170  -29.1060 N.3   286  SER286     -0.1217
    168  CA       -29.6820  -16.8470  -28.2140 C.3   286  SER286      0.1889
    169  C        -30.1490  -15.5860  -27.4960 C.2   286  SER286      0.2288
    170  O        -29.4290  -14.5740  -27.4580 O.2   286  SER286     -0.2866
    171  CB       -29.3360  -17.9140  -27.1650 C.3   286  SER286      0.2089
    172  OG       -28.4620  -17.3730  -26.1930 O.3   286  SER286     -0.2183
@<TRIPOS>BOND
     1   120   119    2
     2   125   126    1
     3   119   118    1
     4    66    65    2
     5   123   122    2
     6    65    64    1
     7   126   129    1
     8   126   127    1
     9   128   127    2
    10   118   117    1
    11   118   121    1
    12   129   130    1
    13    63    64    1
    14   167   168    1
    15    54    53    2
    16   122   121    1
    17   122   124   am
    18   132   133    1
    19   132   131    1
    20    53    52    1
    21    64    67    1
    22   168   169    1
    23   168   171    1
    24   130   131    1
    25    51    52    1
    26    67    68    1
    27   142   140   ar
    28   142   143   ar
    29   169   170    2
    30    52    55    1
    31   171   172    1
    32   140   139   ar
    33    69    68   ar
    34    69    71   ar
    35   145   143   ar
    36   145   147   ar
    37   143   141   ar
    38    68    70   ar
    39    34    32   ar
    40    34    36   ar
    41    55    56    1
    42    71    73   ar
    43   139   141   ar
    44   139   138    1
    45   114   113    2
    46    37    36    1
    47    32    31   ar
    48   134   135    1
    49   113   112    1
    50   147   146   ar
    51   141   144   ar
    52    38    39    1
    53    28    27    1
    54    28    29    2
    55    36    35   ar
    56    70    72   ar
    57    45    46    2
    58    45    44    1
    59    57    56   ar
    60    57    59   ar
    61    27    26    1
    62    27    30    1
    63   138   135    1
    64    39    40    1
    65    39    42    1
    66    56    58   ar
    67    40    43   am
    68    40    41    2
    69    43    44    1
    70    73    72   ar
    71    73    74    1
    72   135   136    1
    73   146   144   ar
    74    31    30    1
    75    31    33   ar
    76    44    47    1
    77   112   115    1
    78   112   111    1
    79   137   136    2
    80    90    91   ar
    81    90    88   ar
    82    59    61   ar
    83    35    33   ar
    84    91    89   ar
    85   115   116    1
    86    58    60   ar
    87    88    86   ar
    88    47    48    1
    89    61    60   ar
    90    61    62    1
    91    89    87   ar
    92     1     2    1
    93    75    76    1
    94    49    48   ar
    95     4     3    2
    96    86    87   ar
    97    86    85    1
    98    48    50   ar
    99    76    77    1
   100    76    79    1
   101    16    15    2
   102     3     2    1
   103     2     5    1
   104    77    81   am
   105    77    78    2
   106    85    82    1
   107     6     8    1
   108     6     5    1
   109    81    82    1
   110   164   166   ar
   111   164   162   ar
   112   109   108   ar
   113    15    17   am
   114    15    14    1
   115    80    79    1
   116   166   165   ar
   117     5     7    1
   118    82    83    1
   119   108   110   ar
   120   108   107    1
   121   162   161    1
   122   162   163   ar
   123   161   158    1
   124    14    13    1
   125   107   106    1
   126   165   163   ar
   127     9    10    1
   128    13    10    1
   129    84    83    2
   130   158   159    1
   131   158   157    1
   132    10    11    1
   133   159   160    2
   134   106   103    1
   135   100   101   ar
   136   100    98   ar
   137    12    11    2
   138   101    99   ar
   139   103   102    1
   140   103   104    1
   141    98    97   ar
   142    99    97   ar
   143    24    23    2
   144    95    94    2
   145   154   155    1
   146   154   153    1
   147    25    23   am
   148    23    22    1
   149    97    96    1
   150   155   156    1
   151   104   105    2
   152    22    19    1
   153    19    20    1
   154    19    18    1
   155    94    93    1
   156    20    21    2
   157    92    93    1
   158   153   152    1
   159   152   149    1
   160    96    93    1
   161   151   150    2
   162   149   150    1
   163   149   148    1
