@<TRIPOS>MOLECULE
tmp/3rviA00.pdb
 214 204 0 0 0
SMALL
GASTEIGER

@<TRIPOS>ATOM
      1  N         67.6480   53.4920    1.7940 N.3    34  ASP34      -0.1239
      2  CA        66.9600   52.5170    2.6520 C.3    34  ASP34       0.1674
      3  C         65.4490   52.7670    2.7420 C.2    34  ASP34       0.2266
      4  O         64.9970   53.6860    3.4310 O.2    34  ASP34      -0.2867
      5  CB        67.6040   52.5080    4.0510 C.3    34  ASP34       0.1410
      6  CG        66.9650   51.5020    5.0050 C.2    34  ASP34       0.3668
      7  OD1       66.3030   50.5420    4.5560 O.co2  34  ASP34      -0.2456
      8  OD2       67.1410   51.6720    6.2260 O.co2  34  ASP34      -0.2456
      9  N         63.4010   50.8170    4.1360 N.3    36  GLY36      -0.1210
     10  CA        62.9230   50.1630    5.3580 C.3    36  GLY36       0.1956
     11  C         63.1220   50.9680    6.6370 C.2    36  GLY36       0.2613
     12  O         62.9080   50.4560    7.7380 O.2    36  GLY36      -0.2717
     13  N         63.5410   52.2230    6.4980 N.am   37  SER37      -0.1938
     14  CA        63.6780   53.1280    7.6330 C.3    37  SER37       0.2055
     15  C         63.2630   54.5170    7.1820 C.2    37  SER37       0.2644
     16  O         63.0650   54.7340    5.9890 O.2    37  SER37      -0.2714
     17  CB        65.1120   53.1210    8.1740 C.3    37  SER37       0.2130
     18  OG        66.0050   53.8120    7.3180 O.3    37  SER37      -0.2179
     19  N         63.1370   55.4490    8.1260 N.am   38  SER38      -0.1935
     20  CA        62.5820   56.7810    7.8410 C.3    38  SER38       0.2055
     21  C         63.4560   57.9610    8.2890 C.2    38  SER38       0.2643
     22  O         63.0930   59.1240    8.0810 O.2    38  SER38      -0.2714
     23  CB        61.1850   56.9130    8.4560 C.3    38  SER38       0.2130
     24  OG        60.3060   55.9260    7.9440 O.3    38  SER38      -0.2179
     25  N         64.6010   57.6710    8.8960 N.am   39  ASN39      -0.1971
     26  CA        65.4950   58.7350    9.3410 C.3    39  ASN39       0.1688
     27  C         66.5900   59.0610    8.3440 C.2    39  ASN39       0.2292
     28  O         67.1280   58.1740    7.6740 O.2    39  ASN39      -0.2864
     29  CB        66.1250   58.3960   10.6930 C.3    39  ASN39       0.1181
     30  CG        65.1980   58.6760   11.8470 C.2    39  ASN39       0.2629
     31  OD1       64.3730   57.8390   12.2130 O.2    39  ASN39      -0.2716
     32  ND2       65.3360   59.8570   12.4400 N.am   39  ASN39      -0.0877
     33  N         68.7820   55.3300   18.9360 N.3    71  VAL71      -0.1231
     34  CA        68.1710   54.3860   17.9820 C.3    71  VAL71       0.1678
     35  C         68.7880   52.9850   18.1160 C.2    71  VAL71       0.2434
     36  O         69.7850   52.6740   17.4550 O.2    71  VAL71      -0.2733
     37  CB        68.2710   54.8900   16.4980 C.3    71  VAL71       0.0265
     38  CG1       67.6790   53.8760   15.5240 C.3    71  VAL71       0.0020
     39  CG2       67.5790   56.2350   16.3260 C.3    71  VAL71       0.0020
     40  N         68.2080   52.1420   18.9920 N.am   72  PRO72      -0.2718
     41  CA        68.6760   50.7580   19.1040 C.3    72  PRO72       0.1535
     42  C         68.1540   49.8710   17.9750 C.2    72  PRO72       0.2598
     43  O         67.0730   50.1260   17.4360 O.2    72  PRO72      -0.2715
     44  CB        68.1030   50.2950   20.4480 C.3    72  PRO72       0.0310
     45  CG        66.9250   51.1610   20.6910 C.3    72  PRO72       0.0237
     46  CD        67.1700   52.4640   19.9920 C.3    72  PRO72       0.0939
     47  N         68.9400   48.8560   17.6220 N.am   73  TYR73      -0.1974
     48  CA        68.5320   47.8110   16.6840 C.3    73  TYR73       0.1639
     49  C         68.8160   46.4470   17.3260 C.2    73  TYR73       0.2290
     50  O         69.4630   46.3930   18.3710 O.2    73  TYR73      -0.2864
     51  CB        69.2600   47.9770   15.3420 C.3    73  TYR73       0.0560
     52  CG        68.8830   46.9550   14.2870 C.ar   73  TYR73      -0.0198
     53  CD1       67.5540   46.7710   13.9060 C.ar   73  TYR73      -0.0009
     54  CD2       69.8600   46.1770   13.6640 C.ar   73  TYR73      -0.0009
     55  CE1       67.2050   45.8310   12.9440 C.ar   73  TYR73       0.0417
     56  CE2       69.5220   45.2350   12.6900 C.ar   73  TYR73       0.0417
     57  CZ        68.1910   45.0700   12.3400 C.ar   73  TYR73       0.1957
     58  OH        67.8440   44.1480   11.3820 O.3    73  TYR73      -0.2866
     59  N         70.9060   43.9800   16.9830 N.3    75  GLN75      -0.1231
     60  CA        72.2780   44.1210   17.4560 C.3    75  GLN75       0.1698
     61  C         72.8000   45.5070   17.0720 C.2    75  GLN75       0.2593
     62  O         72.6050   45.9590   15.9380 O.2    75  GLN75      -0.2718
     63  CB        73.1750   43.0160   16.8980 C.3    75  GLN75       0.0381
     64  CG        74.2630   42.5870   17.8680 C.3    75  GLN75       0.0905
     65  CD        74.9730   41.3190   17.4380 C.2    75  GLN75       0.2608
     66  OE1       75.2840   40.4600   18.2630 O.2    75  GLN75      -0.2717
     67  NE2       75.2330   41.1960   16.1380 N.am   75  GLN75      -0.0878
     68  N         73.4340   46.1840   18.0300 N.am   76  GLY76      -0.1942
     69  CA        74.0150   47.5070   17.7990 C.3    76  GLY76       0.2014
     70  C         73.0370   48.6620   17.9460 C.2    76  GLY76       0.2639
     71  O         71.8540   48.4610   18.2450 O.2    76  GLY76      -0.2714
     72  N         73.5440   49.8760   17.7310 N.am   77  LYS77      -0.1963
     73  CA        72.7470   51.0980   17.8320 C.3    77  LYS77       0.1728
     74  C         73.4660   52.3200   17.2520 C.2    77  LYS77       0.2616
     75  O         74.6730   52.2830   17.0040 O.2    77  LYS77      -0.2715
     76  CB        72.3450   51.3670   19.2910 C.3    77  LYS77       0.0311
     77  CG        73.4980   51.4900   20.2850 C.3    77  LYS77       0.0038
     78  CD        73.8400   52.9380   20.6030 C.3    77  LYS77       0.0206
     79  CE        74.8930   53.0130   21.7070 C.3    77  LYS77       0.1093
     80  NZ        74.9450   54.3620   22.3500 N.3    77  LYS77      -0.1314
     81  N         72.7090   53.3900   17.0180 N.am   78  TRP78      -0.1974
     82  CA        73.2990   54.7100   16.8270 C.3    78  TRP78       0.1640
     83  C         72.5510   55.7630   17.6320 C.2    78  TRP78       0.2290
     84  O         71.3460   55.6500   17.8610 O.2    78  TRP78      -0.2864
     85  CB        73.4630   55.0980   15.3430 C.3    78  TRP78       0.0576
     86  CG        72.1970   55.2940   14.5280 C.ar   78  TRP78       0.0006
     87  CD1       71.6390   54.3990   13.6570 C.ar   78  TRP78       0.0946
     88  CD2       71.3750   56.4720   14.4670 C.ar   78  TRP78       0.0152
     89  NE1       70.5140   54.9330   13.0800 N.ar   78  TRP78      -0.2442
     90  CE2       70.3280   56.2040   13.5580 C.ar   78  TRP78       0.0810
     91  CE3       71.4170   57.7250   15.0980 C.ar   78  TRP78       0.0012
     92  CZ2       69.3280   57.1420   13.2650 C.ar   78  TRP78       0.0191
     93  CZ3       70.4200   58.6570   14.8100 C.ar   78  TRP78       0.0001
     94  CH2       69.3920   58.3580   13.9010 C.ar   78  TRP78       0.0015
     95  N         78.1390   49.0220   15.8860 N.3   109  LYS109     -0.1231
     96  CA        77.7670   48.0790   14.8030 C.3   109  LYS109      0.1693
     97  C         76.8410   48.6660   13.7330 C.2   109  LYS109      0.2592
     98  O         76.0720   47.9460   13.0990 O.2   109  LYS109     -0.2718
     99  CB        77.1960   46.7650   15.3600 C.3   109  LYS109      0.0285
    100  CG        78.1920   45.9600   16.1740 C.3   109  LYS109      0.0035
    101  CD        77.5070   44.9160   17.0270 C.3   109  LYS109      0.0206
    102  CE        78.5440   44.0690   17.7420 C.3   109  LYS109      0.1093
    103  NZ        77.9210   42.9190   18.4440 N.3   109  LYS109     -0.1314
    104  N         76.9320   49.9780   13.5320 N.am  110  PHE110     -0.1976
    105  CA        76.2120   50.6440   12.4530 C.3   110  PHE110      0.1639
    106  C         77.1250   50.8070   11.2430 C.2   110  PHE110      0.2290
    107  O         76.8040   50.3320   10.1580 O.2   110  PHE110     -0.2864
    108  CB        75.6650   51.9960   12.9160 C.3   110  PHE110      0.0560
    109  CG        74.9190   52.7510   11.8500 C.ar  110  PHE110     -0.0200
    110  CD1       73.6880   52.2940   11.3820 C.ar  110  PHE110     -0.0042
    111  CD2       75.4390   53.9300   11.3250 C.ar  110  PHE110     -0.0042
    112  CE1       72.9920   52.9960   10.4010 C.ar  110  PHE110     -0.0003
    113  CE2       74.7480   54.6420   10.3440 C.ar  110  PHE110     -0.0003
    114  CZ        73.5240   54.1730    9.8820 C.ar  110  PHE110     -0.0000
    115  N         72.7410   57.3750    6.1340 N.3   120  ILE120     -0.1245
    116  CA        71.5910   56.5960    5.6950 C.3   120  ILE120      0.1561
    117  C         70.3910   57.4900    5.3650 C.2   120  ILE120      0.2260
    118  O         70.0550   58.4160    6.1170 O.2   120  ILE120     -0.2867
    119  CB        71.2130   55.5150    6.7450 C.3   120  ILE120      0.0252
    120  CG1       70.1330   54.5710    6.2040 C.3   120  ILE120      0.0019
    121  CG2       70.8000   56.1550    8.0850 C.3   120  ILE120      0.0019
    122  CD1       70.1170   53.2260    6.8860 C.3   120  ILE120      0.0001
    123  N         57.3810   55.3580   11.4100 N.3   128  ILE128     -0.1245
    124  CA        58.5250   54.5990   11.9370 C.3   128  ILE128      0.1561
    125  C         59.7950   55.4400   12.1120 C.2   128  ILE128      0.2260
    126  O         60.8790   54.9010   12.3570 O.2   128  ILE128     -0.2867
    127  CB        58.8220   53.3160   11.1150 C.3   128  ILE128      0.0252
    128  CG1       59.1440   53.6620    9.6610 C.3   128  ILE128      0.0019
    129  CG2       57.6470   52.3420   11.2040 C.3   128  ILE128      0.0019
    130  CD1       60.0420   52.6620    8.9820 C.3   128  ILE128      0.0001
    131  N         62.2870   57.8230   14.1450 N.3   130  ARG130     -0.1245
    132  CA        62.6890   58.0260   15.5370 C.3   130  ARG130      0.1563
    133  C         63.0260   59.4980   15.8050 C.2   130  ARG130      0.2260
    134  O         63.6610   60.1450   14.9700 O.2   130  ARG130     -0.2867
    135  CB        63.8590   57.1150   15.9220 C.3   130  ARG130      0.0307
    136  CG        63.4570   55.6690   16.1240 C.3   130  ARG130      0.0489
    137  CD        63.8260   54.8300   14.9200 C.3   130  ARG130      0.2205
    138  NE        62.8450   53.7840   14.6250 N.pl3 130  ARG130     -0.0865
    139  CZ        62.7090   52.6540   15.3110 C.cat 130  ARG130      0.5346
    140  NH1       61.7900   51.7760   14.9450 N.pl3 130  ARG130      0.1354
    141  NH2       63.4790   52.4030   16.3650 N.pl3 130  ARG130      0.1354
    142  N         55.9720   51.3480    6.9160 N.3   189  TYR189     -0.1241
    143  CA        56.8980   50.7210    5.9870 C.3   189  TYR189      0.1605
    144  C         56.2060   50.7460    4.6360 C.2   189  TYR189      0.2264
    145  O         55.0350   51.1240    4.5430 O.2   189  TYR189     -0.2867
    146  CB        57.1490   49.2610    6.3620 C.3   189  TYR189      0.0534
    147  CG        57.8700   49.0580    7.6650 C.ar  189  TYR189     -0.0201
    148  CD1       59.2640   49.0840    7.7230 C.ar  189  TYR189     -0.0009
    149  CD2       57.1590   48.8330    8.8450 C.ar  189  TYR189     -0.0009
    150  CE1       59.9330   48.9060    8.9250 C.ar  189  TYR189      0.0417
    151  CE2       57.8190   48.6530   10.0550 C.ar  189  TYR189      0.0417
    152  CZ        59.2030   48.6880   10.0860 C.ar  189  TYR189      0.1957
    153  OH        59.8560   48.5000   11.2780 O.3   189  TYR189     -0.2866
    154  N         53.9130   41.3100    8.8870 N.3   215  LYS215     -0.1245
    155  CA        54.1650   42.3060    7.8520 C.3   215  LYS215      0.1561
    156  C         54.6420   41.6380    6.5760 C.2   215  LYS215      0.2260
    157  O         55.2020   40.5400    6.6030 O.2   215  LYS215     -0.2867
    158  CB        55.2960   43.2370    8.2940 C.3   215  LYS215      0.0271
    159  CG        54.9050   44.4070    9.1600 C.3   215  LYS215      0.0035
    160  CD        56.1590   45.0590    9.7490 C.3   215  LYS215      0.0206
    161  CE        56.6420   44.3000   10.9780 C.3   215  LYS215      0.1093
    162  NZ        58.0980   44.4420   11.2080 N.3   215  LYS215     -0.1314
    163  N         56.9650   43.6050    3.5000 N.3   217  ILE217     -0.1245
    164  CA        57.4970   44.9080    3.0810 C.3   217  ILE217      0.1561
    165  C         58.4980   44.8390    1.9290 C.2   217  ILE217      0.2260
    166  O         59.0720   43.7830    1.6420 O.2   217  ILE217     -0.2867
    167  CB        58.1140   45.7300    4.2650 C.3   217  ILE217      0.0252
    168  CG1       59.4270   45.1090    4.7580 C.3   217  ILE217      0.0019
    169  CG2       57.1150   45.9140    5.4040 C.3   217  ILE217      0.0019
    170  CD1       60.4230   46.1330    5.2510 C.3   217  ILE217      0.0001
    171  N         62.0150   46.4390    0.8850 N.3   219  ASP219     -0.1239
    172  CA        63.1070   47.0340    1.6570 C.3   219  ASP219      0.1674
    173  C         64.4820   46.9640    0.9950 C.2   219  ASP219      0.2266
    174  O         65.1260   45.9120    0.9900 O.2   219  ASP219     -0.2867
    175  CB        63.1720   46.3810    3.0360 C.3   219  ASP219      0.1410
    176  CG        64.1480   47.0670    3.9640 C.2   219  ASP219      0.3668
    177  OD1       64.6260   48.1780    3.6370 O.co2 219  ASP219     -0.2456
    178  OD2       64.4330   46.4840    5.0290 O.co2 219  ASP219     -0.2456
    179  N         67.0720   48.2110    2.1360 N.3   221  GLY221     -0.1210
    180  CA        68.0590   48.1620    3.2030 C.3   221  GLY221      0.1956
    181  C         68.4280   46.7520    3.6230 C.2   221  GLY221      0.2612
    182  O         69.4430   46.5480    4.2940 O.2   221  GLY221     -0.2717
    183  N         67.6010   45.7830    3.2340 N.am  222  THR222     -0.1952
    184  CA        67.8360   44.3740    3.5570 C.3   222  THR222      0.1897
    185  C         68.3640   43.6320    2.3330 C.2   222  THR222      0.2313
    186  O         67.8840   43.8360    1.2160 O.2   222  THR222     -0.2863
    187  CB        66.5560   43.6880    4.0860 C.3   222  THR222      0.1794
    188  OG1       66.0790   44.3920    5.2350 O.3   222  THR222     -0.2208
    189  CG2       66.8180   42.2460    4.4800 C.3   222  THR222      0.0378
    190  N         63.6740   37.7520    3.1330 N.3   226  ARG226     -0.1245
    191  CA        63.3400   37.2300    4.4570 C.3   226  ARG226      0.1563
    192  C         61.8870   36.7620    4.5080 C.2   226  ARG226      0.2260
    193  O         60.9730   37.5130    4.1680 O.2   226  ARG226     -0.2867
    194  CB        63.6070   38.2780    5.5440 C.3   226  ARG226      0.0307
    195  CG        65.0850   38.4700    5.8910 C.3   226  ARG226      0.0489
    196  CD        65.3000   39.6530    6.8380 C.3   226  ARG226      0.2205
    197  NE        64.9510   39.3560    8.2330 N.pl3 226  ARG226     -0.0865
    198  CZ        64.8640   40.2690    9.2050 C.cat 226  ARG226      0.5346
    199  NH1       65.0920   41.5560    8.9540 N.pl3 226  ARG226      0.1354
    200  NH2       64.5440   39.8970   10.4390 N.pl3 226  ARG226      0.1354
    201  N         59.9140   39.3970   11.8810 N.3   313  THR313     -0.1218
    202  CA        59.4210   40.7120   11.4690 C.3   313  THR313      0.1862
    203  C         58.3930   40.5910   10.3470 C.2   313  THR313      0.2287
    204  O         57.6450   41.5300   10.0910 O.2   313  THR313     -0.2866
    205  CB        60.5680   41.6750   11.0390 C.3   313  THR313      0.1770
    206  OG1       61.6840   40.9240   10.5420 O.3   313  THR313     -0.2211
    207  CG2       61.0230   42.5340   12.2140 C.3   313  THR313      0.0375
    208  N         60.2540   40.1170    4.2860 N.3   316  VAL316     -0.1245
    209  CA        61.0110   41.2830    3.8410 C.3   316  VAL316      0.1561
    210  C         61.5310   41.0420    2.4280 C.2   316  VAL316      0.2260
    211  O         62.4000   40.1990    2.2100 O.2   316  VAL316     -0.2867
    212  CB        62.1630   41.6530    4.8210 C.3   316  VAL316      0.0252
    213  CG1       62.9990   42.8020    4.2730 C.3   316  VAL316      0.0019
    214  CG2       61.6050   42.0240    6.1880 C.3   316  VAL316      0.0019
@<TRIPOS>BOND
     1   171   172    1
     2   174   173    2
     3   173   172    1
     4   186   185    2
     5   166   165    2
     6   172   175    1
     7     1     2    1
     8   165   164    1
     9   179   180    1
    10   211   210    2
    11   185   184    1
    12   210   209    1
    13     2     3    1
    14     2     5    1
    15     3     4    2
    16   175   176    1
    17   164   163    1
    18   164   167    1
    19   190   191    1
    20   180   181    1
    21   183   184    1
    22   183   181   am
    23   184   187    1
    24   181   182    2
    25   177   176   ar
    26   209   208    1
    27   209   212    1
    28   176   178   ar
    29     5     6    1
    30   187   189    1
    31   187   188    1
    32     9    10    1
    33   193   192    2
    34   167   168    1
    35   167   169    1
    36   213   212    1
    37   191   192    1
    38   191   194    1
    39   145   144    2
    40     7     6   ar
    41   144   143    1
    42   168   170    1
    43   212   214    1
    44     6     8   ar
    45    10    11    1
    46   117   116    1
    47   117   118    2
    48   194   195    1
    49   116   115    1
    50   116   119    1
    51   195   196    1
    52   143   146    1
    53   143   142    1
    54    16    15    2
    55   120   119    1
    56   120   122    1
    57   146   147    1
    58    13    11   am
    59    13    14    1
    60   156   157    2
    61   156   155    1
    62    11    12    2
    63   119   121    1
    64   196   197    1
    65    15    14    1
    66    15    19   am
    67    18    17    1
    68    14    17    1
    69   147   148   ar
    70   147   149   ar
    71    28    27    2
    72   148   150   ar
    73    20    19    1
    74    20    21    1
    75    20    23    1
    76   155   158    1
    77   155   154    1
    78    24    23    1
    79    22    21    2
    80   197   198    2
    81    21    25   am
    82   158   159    1
    83    27    26    1
    84   149   151   ar
    85    25    26    1
    86   150   152   ar
    87   199   198    1
    88   130   128    1
    89   159   160    1
    90   198   200    1
    91    26    29    1
    92   128   127    1
    93   160   161    1
    94   114   113   ar
    95   114   112   ar
    96   151   152   ar
    97   152   153    1
    98   204   203    2
    99   107   106    2
   100   113   111   ar
   101   203   202    1
   102   112   110   ar
   103   206   205    1
   104    29    30    1
   105   161   162    1
   106   205   202    1
   107   205   207    1
   108   127   129    1
   109   127   124    1
   110   106   105    1
   111   111   109   ar
   112    58    57    1
   113   110   109   ar
   114   123   124    1
   115   202   201    1
   116    30    31    2
   117    30    32   am
   118   109   108    1
   119   124   125    1
   120   125   126    2
   121    57    56   ar
   122    57    55   ar
   123   105   108    1
   124   105   104    1
   125    56    54   ar
   126    55    53   ar
   127    89    90   ar
   128    89    87   ar
   129    98    97    2
   130    92    90   ar
   131    92    94   ar
   132   104    97   am
   133    90    88   ar
   134    87    86   ar
   135    54    52   ar
   136    97    96    1
   137    94    93   ar
   138    53    52   ar
   139   131   132    1
   140    52    51    1
   141    88    86   ar
   142    88    91   ar
   143    86    85    1
   144   138   137    1
   145   138   139    2
   146    96    99    1
   147    96    95    1
   148    93    91   ar
   149   137   136    1
   150   140   139    1
   151   134   133    2
   152   139   141    1
   153    51    48    1
   154    85    82    1
   155    99   100    1
   156    38    37    1
   157   132   133    1
   158   132   135    1
   159   135   136    1
   160    62    61    2
   161    67    65   am
   162   100   101    1
   163    39    37    1
   164    37    34    1
   165    48    49    1
   166    48    47    1
   167    82    81    1
   168    82    83    1
   169    63    60    1
   170    63    64    1
   171    59    60    1
   172    75    74    2
   173    81    74   am
   174   101   102    1
   175    61    60    1
   176    61    68   am
   177    74    73    1
   178    49    50    2
   179    43    42    2
   180    65    64    1
   181    65    66    2
   182    36    35    2
   183    47    42   am
   184    83    84    2
   185    72    73    1
   186    72    70   am
   187   102   103    1
   188    69    70    1
   189    69    68    1
   190    73    76    1
   191    70    71    2
   192    42    41    1
   193    34    35    1
   194    34    33    1
   195    35    40   am
   196    40    41    1
   197    40    46    1
   198    41    44    1
   199    76    77    1
   200    46    45    1
   201    77    78    1
   202    44    45    1
   203    78    79    1
   204    79    80    1
