@<TRIPOS>MOLECULE
tmp/3rvzB02.pdb
 112 108 0 0 0
SMALL
GASTEIGER

@<TRIPOS>ATOM
      1  N        -54.7330  -47.4690  -63.8970 N.3   134  ILE134     -0.1245
      2  CA       -55.1830  -46.8970  -65.1610 C.3   134  ILE134      0.1561
      3  C        -54.1170  -46.0170  -65.7820 C.2   134  ILE134      0.2260
      4  O        -54.0010  -45.9360  -67.0060 O.2   134  ILE134     -0.2867
      5  CB       -56.4330  -46.0370  -64.9870 C.3   134  ILE134      0.0252
      6  CG1      -57.6520  -46.9310  -64.7650 C.3   134  ILE134      0.0019
      7  CG2      -56.6280  -45.1530  -66.2040 C.3   134  ILE134      0.0019
      8  CD1      -58.9390  -46.1540  -64.4370 C.3   134  ILE134      0.0001
      9  N        -51.1020  -48.3090  -67.1320 N.3   137  MET137     -0.1230
     10  CA       -51.5500  -48.8550  -68.4030 C.3   137  MET137      0.1702
     11  C        -51.4540  -47.8240  -69.5280 C.2   137  MET137      0.2593
     12  O        -50.8700  -48.0910  -70.5900 O.2   137  MET137     -0.2718
     13  CB       -52.9900  -49.3330  -68.2720 C.3   137  MET137      0.0401
     14  CG       -53.4000  -50.2390  -69.3910 C.3   137  MET137      0.0596
     15  SD       -52.4580  -51.7630  -69.3410 S.3   137  MET137     -0.1393
     16  CE       -53.7690  -52.9140  -68.9360 C.3   137  MET137      0.0692
     17  N        -52.0400  -46.6540  -69.3000 N.am  138  THR138     -0.1953
     18  CA       -52.0000  -45.5810  -70.2770 C.3   138  THR138      0.1897
     19  C        -50.5810  -45.2270  -70.6780 C.2   138  THR138      0.2313
     20  O        -50.3180  -44.9200  -71.8500 O.2   138  THR138     -0.2863
     21  CB       -52.6560  -44.3270  -69.7460 C.3   138  THR138      0.1794
     22  OG1      -54.0390  -44.5920  -69.5070 O.3   138  THR138     -0.2208
     23  CG2      -52.5150  -43.1950  -70.7460 C.3   138  THR138      0.0378
     24  N        -49.4960  -48.1460  -72.9040 N.3   141  PHE141     -0.1241
     25  CA       -50.0430  -47.9950  -74.2370 C.3   141  PHE141      0.1605
     26  C        -49.2980  -46.9420  -75.0420 C.2   141  PHE141      0.2264
     27  O        -48.9210  -47.1770  -76.1810 O.2   141  PHE141     -0.2867
     28  CB       -51.5310  -47.6440  -74.1720 C.3   141  PHE141      0.0534
     29  CG       -52.4300  -48.8420  -74.2680 C.ar  141  PHE141     -0.0203
     30  CD1      -52.4290  -49.8130  -73.2670 C.ar  141  PHE141     -0.0042
     31  CD2      -53.2680  -49.0150  -75.3690 C.ar  141  PHE141     -0.0042
     32  CE1      -53.2420  -50.9360  -73.3600 C.ar  141  PHE141     -0.0003
     33  CE2      -54.0820  -50.1340  -75.4670 C.ar  141  PHE141     -0.0003
     34  CZ       -54.0670  -51.0970  -74.4540 C.ar  141  PHE141     -0.0000
     35  N        -49.9370  -44.1370  -87.8250 N.3   162  THR162     -0.1203
     36  CA       -50.0650  -42.9460  -87.0080 C.3   162  THR162      0.1994
     37  C        -50.0480  -43.2980  -85.5350 C.2   162  THR162      0.2618
     38  O        -50.3230  -44.4350  -85.1590 O.2   162  THR162     -0.2717
     39  CB       -51.3760  -42.2560  -87.4010 C.3   162  THR162      0.1784
     40  OG1      -51.0860  -41.1760  -88.2920 O.3   162  THR162     -0.2211
     41  CG2      -52.1550  -41.7760  -86.2070 C.3   162  THR162      0.0376
     42  N        -49.7310  -42.3270  -84.6910 N.am  163  LEU163     -0.1965
     43  CA       -49.6830  -42.5760  -83.2490 C.3   163  LEU163      0.1728
     44  C        -51.0560  -42.9610  -82.7240 C.2   163  LEU163      0.2617
     45  O        -51.1770  -43.8260  -81.8710 O.2   163  LEU163     -0.2715
     46  CB       -49.1520  -41.3350  -82.5390 C.3   163  LEU163      0.0311
     47  CG       -48.7070  -41.3110  -81.0850 C.3   163  LEU163      0.0022
     48  CD1      -49.9190  -41.1600  -80.2040 C.3   163  LEU163      0.0001
     49  CD2      -47.9180  -42.5400  -80.7440 C.3   163  LEU163      0.0001
     50  N        -52.0960  -42.3210  -83.2360 N.am  164  GLY164     -0.1940
     51  CA       -53.4400  -42.6520  -82.8010 C.3   164  GLY164      0.2014
     52  C        -53.9100  -43.8990  -83.5230 C.2   164  GLY164      0.2638
     53  O        -54.7460  -44.6550  -83.0270 O.2   164  GLY164     -0.2714
     54  N        -53.3710  -44.1110  -84.7150 N.am  165  GLU165     -0.1977
     55  CA       -53.7010  -45.2820  -85.5030 C.3   165  GLU165      0.1602
     56  C        -53.3280  -46.4700  -84.6180 C.2   165  GLU165      0.2287
     57  O        -54.1390  -47.3550  -84.3380 O.2   165  GLU165     -0.2864
     58  CB       -52.8470  -45.3140  -86.7680 C.3   165  GLU165      0.0415
     59  CG       -53.5220  -45.9400  -87.9500 C.3   165  GLU165      0.1163
     60  CD       -54.1560  -44.9060  -88.8470 C.2   165  GLU165      0.3649
     61  OE1      -55.3640  -45.0260  -89.1550 O.co2 165  GLU165     -0.2457
     62  OE2      -53.4320  -43.9770  -89.2500 O.co2 165  GLU165     -0.2457
     63  N        -52.7180  -46.5550  -81.4240 N.3   167  PHE167     -0.1227
     64  CA       -53.4550  -46.6470  -80.1630 C.3   167  PHE167      0.1736
     65  C        -54.6790  -47.5180  -80.4040 C.2   167  PHE167      0.2595
     66  O        -54.8860  -48.5200  -79.7220 O.2   167  PHE167     -0.2718
     67  CB       -53.8830  -45.2540  -79.6770 C.3   167  PHE167      0.0547
     68  CG       -53.0450  -44.7190  -78.5430 C.ar  167  PHE167     -0.0202
     69  CD1      -52.0130  -43.8250  -78.7810 C.ar  167  PHE167     -0.0042
     70  CD2      -53.2790  -45.1370  -77.2350 C.ar  167  PHE167     -0.0042
     71  CE1      -51.2290  -43.3450  -77.7290 C.ar  167  PHE167     -0.0003
     72  CE2      -52.5050  -44.6680  -76.1840 C.ar  167  PHE167     -0.0003
     73  CZ       -51.4750  -43.7730  -76.4340 C.ar  167  PHE167     -0.0000
     74  N        -55.4750  -47.1310  -81.3970 N.am  168  TYR168     -0.1976
     75  CA       -56.6650  -47.8880  -81.7380 C.3   168  TYR168      0.1639
     76  C        -56.3280  -49.3690  -81.9350 C.2   168  TYR168      0.2290
     77  O        -56.9320  -50.2580  -81.3290 O.2   168  TYR168     -0.2864
     78  CB       -57.3030  -47.3370  -83.0180 C.3   168  TYR168      0.0560
     79  CG       -58.5950  -48.0380  -83.4050 C.ar  168  TYR168     -0.0198
     80  CD1      -59.8280  -47.5610  -82.9710 C.ar  168  TYR168     -0.0009
     81  CD2      -58.5760  -49.2250  -84.1600 C.ar  168  TYR168     -0.0009
     82  CE1      -61.0080  -48.2470  -83.2750 C.ar  168  TYR168      0.0417
     83  CE2      -59.7540  -49.9220  -84.4620 C.ar  168  TYR168      0.0417
     84  CZ       -60.9570  -49.4220  -84.0140 C.ar  168  TYR168      0.1957
     85  OH       -62.1130  -50.0790  -84.2950 O.3   168  TYR168     -0.2866
     86  N        -55.4820  -51.1890  -78.7940 N.3   171  PHE171     -0.1241
     87  CA       -56.6090  -51.3670  -77.8910 C.3   171  PHE171      0.1605
     88  C        -57.3760  -52.5790  -78.3530 C.2   171  PHE171      0.2264
     89  O        -57.9390  -53.3190  -77.5290 O.2   171  PHE171     -0.2867
     90  CB       -57.5420  -50.1580  -77.8990 C.3   171  PHE171      0.0534
     91  CG       -58.7680  -50.3480  -77.0550 C.ar  171  PHE171     -0.0203
     92  CD1      -58.6620  -50.5080  -75.6860 C.ar  171  PHE171     -0.0042
     93  CD2      -60.0220  -50.4190  -77.6360 C.ar  171  PHE171     -0.0042
     94  CE1      -59.7940  -50.7320  -74.9060 C.ar  171  PHE171     -0.0003
     95  CE2      -61.1500  -50.6420  -76.8670 C.ar  171  PHE171     -0.0003
     96  CZ       -61.0320  -50.8050  -75.4950 C.ar  171  PHE171     -0.0000
     97  N        -55.7610  -55.5840  -77.3020 N.3   174  MET174     -0.1245
     98  CA       -56.0290  -55.8090  -75.8880 C.3   174  MET174      0.1570
     99  C        -57.3710  -56.5180  -75.6690 C.2   174  MET174      0.2261
    100  O        -57.4950  -57.3890  -74.8040 O.2   174  MET174     -0.2867
    101  CB       -56.0070  -54.4880  -75.1230 C.3   174  MET174      0.0387
    102  CG       -56.1720  -54.6740  -73.6220 C.3   174  MET174      0.0595
    103  SD       -56.1890  -53.1530  -72.7110 S.3   174  MET174     -0.1393
    104  CE       -57.8390  -52.5910  -73.0170 C.3   174  MET174      0.0692
    105  N        -55.0500  -56.2050  -66.3420 N.3   209  MET209     -0.1245
    106  CA       -56.4910  -56.3290  -66.3030 C.3   209  MET209      0.1570
    107  C        -56.9340  -57.3320  -65.2360 C.2   209  MET209      0.2261
    108  O        -57.8080  -57.0310  -64.4320 O.2   209  MET209     -0.2867
    109  CB       -57.0220  -56.7620  -67.6700 C.3   209  MET209      0.0387
    110  CG       -56.9750  -55.6700  -68.7120 C.3   209  MET209      0.0595
    111  SD       -58.0190  -54.2850  -68.2570 S.3   209  MET209     -0.1393
    112  CE       -56.8070  -53.1790  -67.5150 C.3   209  MET209      0.0692
@<TRIPOS>BOND
     1    62    60   ar
     2    61    60   ar
     3    60    59    1
     4    40    39    1
     5    59    58    1
     6    35    36    1
     7    39    36    1
     8    39    41    1
     9    36    37    1
    10    58    55    1
    11    37    38    2
    12    37    42   am
    13    55    54    1
    14    55    56    1
    15    54    52   am
    16    42    43    1
    17    56    57    2
    18    83    81   ar
    19    83    84   ar
    20    85    84    1
    21    81    79   ar
    22    84    82   ar
    23    52    53    2
    24    52    51    1
    25    79    78    1
    26    79    80   ar
    27    82    80   ar
    28    43    44    1
    29    43    46    1
    30    50    51    1
    31    50    44   am
    32    78    75    1
    33    44    45    2
    34    46    47    1
    35    76    75    1
    36    76    77    2
    37    75    74    1
    38    63    64    1
    39    74    65   am
    40    47    49    1
    41    47    48    1
    42    65    64    1
    43    65    66    2
    44    64    67    1
    45    67    68    1
    46    86    87    1
    47    69    68   ar
    48    69    71   ar
    49    68    70   ar
    50    88    87    1
    51    88    89    2
    52    90    87    1
    53    90    91    1
    54    71    73   ar
    55    93    91   ar
    56    93    95   ar
    57    97    98    1
    58    70    72   ar
    59    91    92   ar
    60    95    96   ar
    61    73    72   ar
    62    27    26    2
    63    98    99    1
    64    98   101    1
    65    92    94   ar
    66    99   100    2
    67    96    94   ar
    68    33    31   ar
    69    33    34   ar
    70    31    29   ar
    71   101   102    1
    72    26    25    1
    73    34    32   ar
    74    29    28    1
    75    29    30   ar
    76    25    28    1
    77    25    24    1
    78   102   103    1
    79    32    30   ar
    80   104   103    1
    81    20    19    2
    82    23    21    1
    83    19    18    1
    84    12    11    2
    85    18    21    1
    86    18    17    1
    87    21    22    1
    88    11    17   am
    89    11    10    1
    90    14    15    1
    91    14    13    1
    92    15    16    1
    93   110   111    1
    94   110   109    1
    95    10    13    1
    96    10     9    1
    97   111   112    1
    98   109   106    1
    99     4     3    2
   100   105   106    1
   101   106   107    1
   102     7     5    1
   103     3     2    1
   104   107   108    2
   105     2     5    1
   106     2     1    1
   107     5     6    1
   108     6     8    1
