@<TRIPOS>MOLECULE
tmp/3rwbB01.pdb
 111 103 0 0 0
SMALL
GASTEIGER

@<TRIPOS>ATOM
      1  N         -0.1920   10.5500   26.9660 N.3    91  VAL91      -0.1245
      2  CA         1.0700   11.2280   26.6580 C.3    91  VAL91       0.1561
      3  C          1.0740   12.5670   27.3760 C.2    91  VAL91       0.2260
      4  O          0.5770   13.5590   26.8400 O.2    91  VAL91      -0.2867
      5  CB         1.2060   11.4710   25.1440 C.3    91  VAL91       0.0252
      6  CG1        2.5660   12.0670   24.7990 C.3    91  VAL91       0.0019
      7  CG2        0.9730   10.1740   24.3670 C.3    91  VAL91       0.0019
      8  N          8.4930    4.7000   22.9040 N.3   140  SER140     -0.1202
      9  CA         8.8320    6.1150   22.6830 C.3   140  SER140      0.2020
     10  C         10.3460    6.3190   22.7150 C.2   140  SER140      0.2619
     11  O         11.0210    5.7280   23.5440 O.2   140  SER140     -0.2717
     12  CB         8.1820    6.9830   23.7690 C.3   140  SER140      0.2103
     13  OG         8.7320    8.2940   23.7860 O.3   140  SER140     -0.2182
     14  N         10.8860    7.1530   21.8260 N.am  141  ASN141     -0.1960
     15  CA        12.3200    7.4250   21.8790 C.3   141  ASN141      0.1819
     16  C         12.7460    8.2870   23.0720 C.2   141  ASN141      0.2621
     17  O         13.9330    8.5070   23.2810 O.2   141  ASN141     -0.2715
     18  CB        12.8940    7.9200   20.5300 C.3   141  ASN141      0.1195
     19  CG        12.6440    9.4050   20.2620 C.2   141  ASN141      0.2630
     20  OD1       13.2240    9.9800   19.3300 O.2   141  ASN141     -0.2716
     21  ND2       11.7800   10.0130   21.0360 N.am  141  ASN141     -0.0877
     22  N         11.7820    8.7450   23.8630 N.am  142  THR142     -0.1951
     23  CA        12.1190    9.3940   25.1260 C.3   142  THR142      0.1897
     24  C         12.8590    8.4250   26.0300 C.2   142  THR142      0.2313
     25  O         13.6020    8.8500   26.9090 O.2   142  THR142     -0.2863
     26  CB        10.8780    9.9060   25.8960 C.3   142  THR142      0.1794
     27  OG1       10.0070    8.8050   26.1950 O.3   142  THR142     -0.2208
     28  CG2       10.1250   10.9670   25.0840 C.3   142  THR142      0.0378
     29  N         14.0450   12.4410   27.8580 N.3   147  THR147     -0.1218
     30  CA        13.2600   13.6620   27.6670 C.3   147  THR147      0.1862
     31  C         12.6280   14.1750   28.9640 C.2   147  THR147      0.2287
     32  O         12.0510   13.4030   29.7190 O.2   147  THR147     -0.2866
     33  CB        12.1510   13.3740   26.6390 C.3   147  THR147      0.1770
     34  OG1       12.7540   12.8440   25.4510 O.3   147  THR147     -0.2211
     35  CG2       11.3320   14.6430   26.3080 C.3   147  THR147      0.0375
     36  N          8.2090   14.3850   31.4610 N.3   150  MET150     -0.1245
     37  CA         7.4610   13.1670   31.1740 C.3   150  MET150      0.1570
     38  C          7.9470   11.9970   32.0230 C.2   150  MET150      0.2261
     39  O          7.9570   10.8630   31.5480 O.2   150  MET150     -0.2867
     40  CB         7.6320   12.7680   29.6970 C.3   150  MET150      0.0387
     41  CG         7.3360   13.8490   28.6750 C.3   150  MET150      0.0595
     42  SD         7.4800   13.2180   26.9910 S.3   150  MET150     -0.1393
     43  CE         5.8640   12.4720   26.7760 C.3   150  MET150      0.0692
     44  N          6.0070    8.7150   32.3040 N.3   153  TYR153     -0.1241
     45  CA         5.8090    8.2070   30.9460 C.3   153  TYR153      0.1605
     46  C          7.0670    7.5170   30.4330 C.2   153  TYR153      0.2264
     47  O          6.9890    6.4380   29.8500 O.2   153  TYR153     -0.2867
     48  CB         5.4410    9.3790   30.0320 C.3   153  TYR153      0.0534
     49  CG         5.3480    9.1020   28.5430 C.ar  153  TYR153     -0.0201
     50  CD1        4.1300    8.7800   27.9480 C.ar  153  TYR153     -0.0009
     51  CD2        6.4690    9.2290   27.7220 C.ar  153  TYR153     -0.0009
     52  CE1        4.0310    8.5690   26.5800 C.ar  153  TYR153      0.0417
     53  CE2        6.3830    9.0280   26.3650 C.ar  153  TYR153      0.0417
     54  CZ         5.1620    8.7060   25.7950 C.ar  153  TYR153      0.1957
     55  OH         5.0820    8.5050   24.4440 O.3   153  TYR153     -0.2866
     56  N          8.7070    5.7270   18.3820 N.3   183  PRO183     -0.2102
     57  CA         8.5900    6.9550   17.5790 C.3   183  PRO183      0.1504
     58  C          9.3600    8.0990   18.2340 C.2   183  PRO183      0.2576
     59  O          9.5230    8.1230   19.4550 O.2   183  PRO183     -0.2718
     60  CB         7.0930    7.2870   17.6450 C.3   183  PRO183      0.0282
     61  CG         6.4180    6.0290   18.1500 C.3   183  PRO183      0.0208
     62  CD         7.4320    5.3550   19.0220 C.3   183  PRO183      0.0893
     63  N          9.8090    9.0520   17.4260 N.am  184  GLY184     -0.1943
     64  CA        10.1950   10.3520   17.9430 C.3   184  GLY184      0.2014
     65  C          8.9530   11.2190   18.0110 C.2   184  GLY184      0.2638
     66  O          7.8330   10.7240   17.8760 O.2   184  GLY184     -0.2714
     67  N          9.1360   12.5160   18.2250 N.am  185  LEU185     -0.1977
     68  CA         7.9890   13.4170   18.2570 C.3   185  LEU185      0.1596
     69  C          7.2220   13.3620   16.9370 C.2   185  LEU185      0.2287
     70  O          7.7970   13.5450   15.8540 O.2   185  LEU185     -0.2864
     71  CB         8.4560   14.8460   18.5530 C.3   185  LEU185      0.0297
     72  CG         7.3640   15.8970   18.7220 C.3   185  LEU185      0.0022
     73  CD1        6.4470   15.5730   19.9020 C.3   185  LEU185      0.0001
     74  CD2        8.0340   17.2480   18.9050 C.3   185  LEU185      0.0001
     75  N         -0.5810   15.3860   20.2210 N.3   191  VAL191     -0.1245
     76  CA         0.5580   16.2930   20.3750 C.3   191  VAL191      0.1561
     77  C          0.1820   17.7220   19.9910 C.2   191  VAL191      0.2260
     78  O          0.6020   18.6770   20.6440 O.2   191  VAL191     -0.2867
     79  CB         1.7820   15.8150   19.5660 C.3   191  VAL191      0.0252
     80  CG1        2.7640   16.9690   19.3290 C.3   191  VAL191      0.0019
     81  CG2        2.4580   14.6510   20.2910 C.3   191  VAL191      0.0019
     82  N          3.6370   19.5830   23.9920 N.3   196  HIS196     -0.1241
     83  CA         4.6470   18.9620   23.1430 C.3   196  HIS196      0.1621
     84  C          4.6800   19.5360   21.7300 C.2   196  HIS196      0.2264
     85  O          5.6670   19.3740   21.0160 O.2   196  HIS196     -0.2867
     86  CB         4.4330   17.4540   23.0820 C.3   196  HIS196      0.0745
     87  CG         4.6140   16.7870   24.4020 C.ar  196  HIS196      0.0817
     88  ND1        5.8230   16.7720   25.0600 N.ar  196  HIS196     -0.2268
     89  CD2        3.7410   16.1200   25.1950 C.ar  196  HIS196      0.1154
     90  CE1        5.6890   16.1230   26.2040 C.ar  196  HIS196      0.1986
     91  NE2        4.4360   15.7190   26.3080 N.ar  196  HIS196     -0.2212
     92  N          7.6010   21.5530   20.9320 N.3   199  ALA199     -0.1245
     93  CA         8.9100   20.9090   20.9620 C.3   199  ALA199      0.1562
     94  C          9.4870   20.6360   19.5750 C.2   199  ALA199      0.2260
     95  O         10.6250   20.1940   19.4590 O.2   199  ALA199     -0.2867
     96  CB         8.8430   19.6070   21.7640 C.3   199  ALA199      0.0290
     97  N         13.3710   19.3830   18.5150 N.3   203  VAL203     -0.1245
     98  CA        13.4940   18.0410   17.9560 C.3   203  VAL203      0.1561
     99  C         14.0030   18.0580   16.5150 C.2   203  VAL203      0.2260
    100  O         14.9130   17.3130   16.1640 O.2   203  VAL203     -0.2867
    101  CB        12.1710   17.2770   18.0670 C.3   203  VAL203      0.0252
    102  CG1       12.2130   16.0050   17.2250 C.3   203  VAL203      0.0019
    103  CG2       11.9170   16.9510   19.5360 C.3   203  VAL203      0.0019
    104  N         16.8070   11.5040   15.5090 N.3   244  MET244     -0.1245
    105  CA        17.0370   12.3110   16.7060 C.3   244  MET244      0.1570
    106  C         17.9840   11.5800   17.6480 C.2   244  MET244      0.2261
    107  O         18.8860   12.1910   18.2140 O.2   244  MET244     -0.2867
    108  CB        15.7550   12.6820   17.4490 C.3   244  MET244      0.0387
    109  CG        16.0280   13.7990   18.4640 C.3   244  MET244      0.0595
    110  SD        14.7280   14.1410   19.6600 S.3   244  MET244     -0.1393
    111  CE        15.1040   12.9180   20.9180 C.3   244  MET244      0.0692
@<TRIPOS>BOND
     1   104   105    1
     2    70    69    2
     3   100    99    2
     4    99    98    1
     5   105   108    1
     6   105   106    1
     7    69    68    1
     8   102   101    1
     9    63    64    1
    10    63    58   am
    11   108   109    1
    12    57    60    1
    13    57    58    1
    14    57    56    1
    15    60    61    1
    16   106   107    2
    17    66    65    2
    18    64    65    1
    19    98   101    1
    20    98    97    1
    21    65    67   am
    22   101   103    1
    23    61    62    1
    24    67    68    1
    25    58    59    2
    26    68    71    1
    27    56    62    1
    28   109   110    1
    29    71    72    1
    30    72    74    1
    31    72    73    1
    32    80    79    1
    33    20    19    2
    34    95    94    2
    35    79    81    1
    36    79    76    1
    37    94    93    1
    38   110   111    1
    39    77    76    1
    40    77    78    2
    41    75    76    1
    42    19    18    1
    43    19    21   am
    44    18    15    1
    45    92    93    1
    46    93    96    1
    47    85    84    2
    48    84    83    1
    49    14    15    1
    50    14    10   am
    51    15    16    1
    52     9    10    1
    53     9     8    1
    54     9    12    1
    55    10    11    2
    56    16    17    2
    57    16    22   am
    58    86    83    1
    59    86    87    1
    60    83    82    1
    61    12    13    1
    62    22    23    1
    63     7     5    1
    64    87    88   ar
    65    87    89   ar
    66    55    54    1
    67     6     5    1
    68    88    90   ar
    69    28    26    1
    70    23    26    1
    71    23    24    1
    72     5     2    1
    73    89    91   ar
    74    34    33    1
    75    54    53   ar
    76    54    52   ar
    77    26    27    1
    78    24    25    2
    79    90    91   ar
    80    35    33    1
    81    53    51   ar
    82    52    50   ar
    83    33    30    1
    84     2     1    1
    85     2     3    1
    86    43    42    1
    87     4     3    2
    88    42    41    1
    89    30    29    1
    90    30    31    1
    91    51    49   ar
    92    50    49   ar
    93    49    48    1
    94    41    40    1
    95    31    32    2
    96    40    37    1
    97    47    46    2
    98    48    45    1
    99    46    45    1
   100    45    44    1
   101    37    36    1
   102    37    38    1
   103    39    38    2
