@<TRIPOS>MOLECULE
tmp/3rweA00.pdb
 201 193 0 0 0
SMALL
GASTEIGER

@<TRIPOS>ATOM
      1  N          5.3000    8.6020   26.3850 N.3    66  ARG66      -0.1245
      2  CA         5.4080    7.7160   25.2310 C.3    66  ARG66       0.1563
      3  C          6.2940    6.5100   25.5290 C.2    66  ARG66       0.2260
      4  O          6.0310    5.4040   25.0560 O.2    66  ARG66      -0.2867
      5  CB         5.9310    8.4780   24.0120 C.3    66  ARG66       0.0307
      6  CG         5.0810    9.6810   23.6370 C.3    66  ARG66       0.0489
      7  CD         5.4110   10.1950   22.2460 C.3    66  ARG66       0.2205
      8  NE         4.5800   11.3410   21.8890 N.pl3  66  ARG66      -0.0865
      9  CZ         4.4700   11.8340   20.6610 C.cat  66  ARG66       0.5346
     10  NH1        5.1350   11.2790   19.6580 N.pl3  66  ARG66       0.1354
     11  NH2        3.6880   12.8810   20.4330 N.pl3  66  ARG66       0.1354
     12  N          4.2540    4.1330   27.6150 N.3    69  GLU69      -0.1245
     13  CA         3.2920    3.5560   26.6840 C.3    69  GLU69       0.1567
     14  C          3.9310    2.4050   25.9160 C.2    69  GLU69       0.2260
     15  O          3.3760    1.3070   25.8410 O.2    69  GLU69      -0.2867
     16  CB         2.7980    4.6170   25.7010 C.3    69  GLU69       0.0388
     17  CG         1.8450    4.0840   24.6440 C.3    69  GLU69       0.1160
     18  CD         0.3950    4.1330   25.0830 C.2    69  GLU69       0.3649
     19  OE1        0.1430    4.2380   26.3010 O.co2  69  GLU69      -0.2457
     20  OE2       -0.4930    4.0730   24.2060 O.co2  69  GLU69      -0.2457
     21  N          3.0470   -1.5830   25.9030 N.3    73  THR73      -0.1203
     22  CA         2.8370   -2.2050   24.6020 C.3    73  THR73       0.1994
     23  C          3.6770   -3.4690   24.4640 C.2    73  THR73       0.2617
     24  O          3.1850   -4.5070   24.0210 O.2    73  THR73      -0.2717
     25  CB         3.1910   -1.2430   23.4520 C.3    73  THR73       0.1784
     26  OG1        2.3050   -0.1170   23.4760 O.3    73  THR73      -0.2211
     27  CG2        3.0670   -1.9490   22.1110 C.3    73  THR73       0.0376
     28  N          4.9460   -3.3750   24.8490 N.am   74  HIS74      -0.1975
     29  CA         5.8540   -4.5130   24.7610 C.3    74  HIS74       0.1656
     30  C          5.5060   -5.6100   25.7630 C.2    74  HIS74       0.2291
     31  O          5.7890   -6.7820   25.5250 O.2    74  HIS74      -0.2864
     32  CB         7.3080   -4.0670   24.9270 C.3    74  HIS74       0.0771
     33  CG         7.9020   -3.4800   23.6860 C.ar   74  HIS74       0.0820
     34  ND1        7.3790   -2.3650   23.0640 N.ar   74  HIS74      -0.2267
     35  CD2        8.9700   -3.8550   22.9420 C.ar   74  HIS74       0.1154
     36  CE1        8.1010   -2.0780   21.9970 C.ar   74  HIS74       0.1986
     37  NE2        9.0740   -2.9680   21.9000 N.ar   74  HIS74      -0.2212
     38  N          2.2810   -6.3300   26.6750 N.3    76  GLU76      -0.1231
     39  CA         1.1560   -6.9690   26.0080 C.3    76  GLU76       0.1699
     40  C          1.6430   -7.8420   24.8540 C.2    76  GLU76       0.2592
     41  O          1.1300   -8.9410   24.6320 O.2    76  GLU76      -0.2718
     42  CB         0.1690   -5.9100   25.5100 C.3    76  GLU76       0.0402
     43  CG        -1.2400   -6.4250   25.2770 C.3    76  GLU76       0.1161
     44  CD        -2.2640   -5.3060   25.2300 C.2    76  GLU76       0.3649
     45  OE1       -1.8990   -4.1520   25.5400 O.co2  76  GLU76      -0.2457
     46  OE2       -3.4330   -5.5810   24.8860 O.co2  76  GLU76      -0.2457
     47  N          2.6450   -7.3520   24.1290 N.am   77  ASN77      -0.1974
     48  CA         3.2410   -8.1080   23.0320 C.3    77  ASN77       0.1688
     49  C          3.9900   -9.3410   23.5240 C.2    77  ASN77       0.2292
     50  O          4.0920  -10.3400   22.8130 O.2    77  ASN77      -0.2864
     51  CB         4.1760   -7.2240   22.2050 C.3    77  ASN77       0.1181
     52  CG         3.4340   -6.1480   21.4400 C.2    77  ASN77       0.2629
     53  OD1        2.2270   -6.2450   21.2230 O.2    77  ASN77      -0.2716
     54  ND2        4.1570   -5.1170   21.0180 N.am   77  ASN77      -0.0877
     55  N          1.1060  -11.8340   24.2840 N.3    80  THR80      -0.1203
     56  CA         0.6330  -12.2960   22.9870 C.3    80  THR80       0.1994
     57  C          1.6360  -13.2530   22.3480 C.2    80  THR80       0.2617
     58  O          1.2510  -14.2200   21.6920 O.2    80  THR80      -0.2717
     59  CB         0.3700  -11.1180   22.0290 C.3    80  THR80       0.1784
     60  OG1       -0.6030  -10.2360   22.6020 O.3    80  THR80      -0.2211
     61  CG2       -0.1440  -11.6280   20.6940 C.3    80  THR80       0.0376
     62  N          2.9210  -12.9760   22.5470 N.am   81  ALA81      -0.1979
     63  CA         3.9860  -13.8210   22.0140 C.3    81  ALA81       0.1597
     64  C          3.9750  -15.1880   22.6930 C.2    81  ALA81       0.2287
     65  O          4.0760  -16.2190   22.0310 O.2    81  ALA81      -0.2864
     66  CB         5.3360  -13.1490   22.1930 C.3    81  ALA81       0.0319
     67  N          1.3290  -17.0380   21.0510 N.3    84  TYR84      -0.1241
     68  CA         1.5740  -17.4030   19.6590 C.3    84  TYR84       0.1605
     69  C          2.4430  -18.6540   19.5500 C.2    84  TYR84       0.2264
     70  O          2.0960  -19.6060   18.8520 O.2    84  TYR84      -0.2867
     71  CB         2.2340  -16.2440   18.9050 C.3    84  TYR84       0.0534
     72  CG         1.2720  -15.1580   18.4750 C.ar   84  TYR84      -0.0201
     73  CD1       -0.1000  -15.3470   18.5610 C.ar   84  TYR84      -0.0009
     74  CD2        1.7360  -13.9490   17.9720 C.ar   84  TYR84      -0.0009
     75  CE1       -0.9830  -14.3650   18.1680 C.ar   84  TYR84       0.0417
     76  CE2        0.8550  -12.9540   17.5720 C.ar   84  TYR84       0.0417
     77  CZ        -0.5040  -13.1710   17.6740 C.ar   84  TYR84       0.1957
     78  OH        -1.4050  -12.2030   17.2860 O.3    84  TYR84      -0.2866
     79  N         11.8600   -9.0730   23.5870 N.3    95  ILE95      -0.1245
     80  CA        11.3620   -8.3900   22.4010 C.3    95  ILE95       0.1561
     81  C         12.2200   -7.1640   22.1190 C.2    95  ILE95       0.2260
     82  O         12.4090   -6.3180   22.9920 O.2    95  ILE95      -0.2867
     83  CB         9.8970   -7.9500   22.5630 C.3    95  ILE95       0.0252
     84  CG1        8.9760   -9.1700   22.6290 C.3    95  ILE95       0.0019
     85  CG2        9.4840   -7.0410   21.4150 C.3    95  ILE95       0.0019
     86  CD1        7.5060   -8.8180   22.7070 C.3    95  ILE95       0.0001
     87  N         13.0110   -3.8740   19.3690 N.3    97  LYS97      -0.1245
     88  CA        12.4820   -3.0980   18.2500 C.3    97  LYS97       0.1561
     89  C         13.3260   -1.8740   17.9230 C.2    97  LYS97       0.2260
     90  O         13.5420   -1.0140   18.7700 O.2    97  LYS97      -0.2867
     91  CB        11.0350   -2.6720   18.5090 C.3    97  LYS97       0.0271
     92  CG        10.3660   -2.0480   17.2910 C.3    97  LYS97       0.0035
     93  CD         8.9760   -1.5200   17.6030 C.3    97  LYS97       0.0206
     94  CE         9.0380   -0.2580   18.4460 C.3    97  LYS97       0.1093
     95  NZ         7.6920    0.3550   18.6190 N.3    97  LYS97      -0.1314
     96  N         11.6500    0.1660   10.7900 N.3   114  HIS114     -0.1241
     97  CA        10.7030   -0.3330   11.7780 C.3   114  HIS114      0.1621
     98  C         10.7580   -1.8540   11.8080 C.2   114  HIS114      0.2264
     99  O          9.9790   -2.5260   11.1330 O.2   114  HIS114     -0.2867
    100  CB         9.2810    0.1340   11.4640 C.3   114  HIS114      0.0745
    101  CG         8.2870   -0.2030   12.5320 C.ar  114  HIS114      0.0817
    102  ND1        7.8840   -1.4950   12.7930 N.ar  114  HIS114     -0.2268
    103  CD2        7.6180    0.5840   13.4070 C.ar  114  HIS114      0.1154
    104  CE1        7.0090   -1.4890   13.7820 C.ar  114  HIS114      0.1986
    105  NE2        6.8290   -0.2400   14.1730 N.ar  114  HIS114     -0.2212
    106  N         11.3270   -5.5370   14.2680 N.3   116  SER116     -0.1202
    107  CA        11.2330   -6.1320   15.5940 C.3   116  SER116      0.2020
    108  C         11.5460   -7.6240   15.5770 C.2   116  SER116      0.2619
    109  O         11.1260   -8.3540   14.6720 O.2   116  SER116     -0.2717
    110  CB         9.8450   -5.8950   16.1900 C.3   116  SER116      0.2103
    111  OG         8.8430   -6.5240   15.4100 O.3   116  SER116     -0.2182
    112  N         12.2820   -8.0630   16.5940 N.am  117  ALA117     -0.1965
    113  CA        12.6760   -9.4570   16.7380 C.3   117  ALA117      0.1728
    114  C         12.2410  -10.0140   18.0890 C.2   117  ALA117      0.2616
    115  O         12.1450   -9.2800   19.0780 O.2   117  ALA117     -0.2715
    116  CB        14.1790   -9.5970   16.5690 C.3   117  ALA117      0.0334
    117  N         11.9830  -11.3180   18.1200 N.am  118  TYR118     -0.1974
    118  CA        11.5670  -12.0010   19.3370 C.3   118  TYR118      0.1639
    119  C         12.5790  -13.0780   19.7130 C.2   118  TYR118      0.2290
    120  O         12.8200  -14.0110   18.9460 O.2   118  TYR118     -0.2864
    121  CB        10.1790  -12.6170   19.1470 C.3   118  TYR118      0.0560
    122  CG         9.6460  -13.3410   20.3630 C.ar  118  TYR118     -0.0198
    123  CD1        9.2340  -12.6390   21.4880 C.ar  118  TYR118     -0.0009
    124  CD2        9.5400  -14.7250   20.3800 C.ar  118  TYR118     -0.0009
    125  CE1        8.7430  -13.2950   22.6000 C.ar  118  TYR118      0.0417
    126  CE2        9.0480  -15.3910   21.4870 C.ar  118  TYR118      0.0417
    127  CZ         8.6510  -14.6710   22.5940 C.ar  118  TYR118      0.1957
    128  OH         8.1600  -15.3270   23.6980 O.3   118  TYR118     -0.2866
    129  N         11.3660  -11.0770   13.7770 N.3   123  TYR123     -0.1241
    130  CA         9.9430  -11.3430   13.9370 C.3   123  TYR123      0.1605
    131  C          9.1600  -10.7080   12.7950 C.2   123  TYR123      0.2264
    132  O          8.5740  -11.4100   11.9730 O.2   123  TYR123     -0.2867
    133  CB         9.4350  -10.8320   15.2860 C.3   123  TYR123      0.0534
    134  CG         7.9780  -11.1470   15.5410 C.ar  123  TYR123     -0.0201
    135  CD1        7.5810  -12.4200   15.9240 C.ar  123  TYR123     -0.0009
    136  CD2        7.0010  -10.1710   15.3970 C.ar  123  TYR123     -0.0009
    137  CE1        6.2510  -12.7140   16.1560 C.ar  123  TYR123      0.0417
    138  CE2        5.6680  -10.4550   15.6280 C.ar  123  TYR123      0.0417
    139  CZ         5.3000  -11.7290   16.0080 C.ar  123  TYR123      0.1957
    140  OH         3.9750  -12.0190   16.2390 O.3   123  TYR123     -0.2866
    141  N          0.4850  -10.9600   13.2930 N.3   143  THR143     -0.1218
    142  CA         0.7970   -9.5520   13.4930 C.3   143  THR143      0.1862
    143  C          0.7500   -8.7970   12.1710 C.2   143  THR143      0.2287
    144  O          0.2240   -7.6870   12.0990 O.2   143  THR143     -0.2866
    145  CB         2.1910   -9.3720   14.1210 C.3   143  THR143      0.1770
    146  OG1        2.2540  -10.0830   15.3630 O.3   143  THR143     -0.2211
    147  CG2        2.4770   -7.9000   14.3690 C.3   143  THR143      0.0375
    148  N         -2.7840   -8.2370   11.2250 N.3   146  LYS146     -0.1231
    149  CA        -3.3430   -7.2260   12.1160 C.3   146  LYS146      0.1693
    150  C         -2.9460   -5.8190   11.6770 C.2   146  LYS146      0.2592
    151  O         -3.7720   -4.9050   11.6700 O.2   146  LYS146     -0.2718
    152  CB        -2.9020   -7.4670   13.5610 C.3   146  LYS146      0.0285
    153  CG        -3.5480   -8.6720   14.2220 C.3   146  LYS146      0.0035
    154  CD        -3.1890   -8.7420   15.6990 C.3   146  LYS146      0.0206
    155  CE        -3.8830   -9.9070   16.3850 C.3   146  LYS146      0.1093
    156  NZ        -3.5730   -9.9590   17.8400 N.3   146  LYS146     -0.1314
    157  N         -1.6800   -5.6510   11.3090 N.am  147  TRP147     -0.1976
    158  CA        -1.1640   -4.3450   10.9130 C.3   147  TRP147      0.1640
    159  C         -1.6160   -3.9450    9.5110 C.2   147  TRP147      0.2290
    160  O         -1.6770   -2.7590    9.1850 O.2   147  TRP147     -0.2864
    161  CB         0.3620   -4.3120   11.0200 C.3   147  TRP147      0.0576
    162  CG         0.8550   -4.4130   12.4310 C.ar  147  TRP147      0.0006
    163  CD1        0.0920   -4.5010   13.5590 C.ar  147  TRP147      0.0946
    164  CD2        2.2170   -4.4340   12.8670 C.ar  147  TRP147      0.0152
    165  NE1        0.8950   -4.5770   14.6700 N.ar  147  TRP147     -0.2442
    166  CE2        2.2090   -4.5370   14.2710 C.ar  147  TRP147      0.0810
    167  CE3        3.4500   -4.3760   12.2060 C.ar  147  TRP147      0.0012
    168  CZ2        3.3750   -4.5850   15.0280 C.ar  147  TRP147      0.0191
    169  CZ3        4.6090   -4.4230   12.9580 C.ar  147  TRP147      0.0001
    170  CH2        4.5640   -4.5260   14.3530 C.ar  147  TRP147      0.0015
    171  N         -5.3170   -2.5570    9.9450 N.3   150  ASN150     -0.1240
    172  CA        -5.4800   -1.2430   10.5600 C.3   150  ASN150      0.1653
    173  C         -4.5880   -0.1700    9.9400 C.2   150  ASN150      0.2266
    174  O         -4.3560    0.8780   10.5440 O.2   150  ASN150     -0.2867
    175  CB        -5.2470   -1.3210   12.0720 C.3   150  ASN150      0.1155
    176  CG        -3.8010   -1.6060   12.4280 C.2   150  ASN150      0.2627
    177  OD1       -3.0210   -2.0620   11.5920 O.2   150  ASN150     -0.2716
    178  ND2       -3.4360   -1.3410   13.6770 N.am  150  ASN150     -0.0877
    179  N         -1.2700    0.2400    9.3900 N.3   152  TYR152     -0.1241
    180  CA        -0.2160    0.6740   10.2990 C.3   152  TYR152      0.1605
    181  C          0.9850    1.2450    9.5500 C.2   152  TYR152      0.2264
    182  O          1.5840    2.2280    9.9840 O.2   152  TYR152     -0.2867
    183  CB         0.2180   -0.4760   11.2110 C.3   152  TYR152      0.0534
    184  CG         1.1980   -0.0620   12.2850 C.ar  152  TYR152     -0.0201
    185  CD1        0.8640    0.9140   13.2140 C.ar  152  TYR152     -0.0009
    186  CD2        2.4510   -0.6530   12.3760 C.ar  152  TYR152     -0.0009
    187  CE1        1.7530    1.2970   14.1990 C.ar  152  TYR152      0.0417
    188  CE2        3.3470   -0.2770   13.3590 C.ar  152  TYR152      0.0417
    189  CZ         2.9920    0.6980   14.2680 C.ar  152  TYR152      0.1957
    190  OH         3.8780    1.0780   15.2490 O.3   152  TYR152     -0.2866
    191  N          0.2930    4.8900    8.5630 N.3   155  ARG155     -0.1245
    192  CA         0.3460    5.8020    9.7020 C.3   155  ARG155      0.1563
    193  C          1.7890    6.0380   10.1580 C.2   155  ARG155      0.2260
    194  O          2.2390    7.1850   10.3010 O.2   155  ARG155     -0.2867
    195  CB        -0.5070    5.2430   10.8470 C.3   155  ARG155      0.0307
    196  CG        -0.8370    6.2310   11.9550 C.3   155  ARG155      0.0489
    197  CD        -2.0900    5.8090   12.7280 C.3   155  ARG155      0.2205
    198  NE        -2.0740    4.4000   13.1170 N.pl3 155  ARG155     -0.0865
    199  CZ        -2.6950    3.4310   12.4510 C.cat 155  ARG155      0.5346
    200  NH1       -3.3860    3.7130   11.3540 N.pl3 155  ARG155      0.1354
    201  NH2       -2.6250    2.1770   12.8790 N.pl3 155  ARG155      0.1354
@<TRIPOS>BOND
     1   191   192    1
     2   160   159    2
     3   179   180    1
     4   159   158    1
     5   181   182    2
     6   181   180    1
     7   192   193    1
     8   192   195    1
     9   173   174    2
    10   173   172    1
    11   171   172    1
    12   193   194    2
    13   180   183    1
    14   172   175    1
    15    96    97    1
    16   195   196    1
    17   158   161    1
    18   158   157    1
    19   161   162    1
    20    99    98    2
    21   183   184    1
    22   148   149    1
    23   157   150   am
    24   200   199    1
    25   100    97    1
    26   100   101    1
    27   177   176    2
    28   151   150    2
    29   150   149    1
    30    97    98    1
    31   196   197    1
    32   132   131    2
    33   175   176    1
    34   144   143    2
    35   149   152    1
    36   143   142    1
    37   167   164   ar
    38   167   169   ar
    39   184   186   ar
    40   184   185   ar
    41   186   188   ar
    42   176   178   am
    43   162   164   ar
    44   162   163   ar
    45   199   201    1
    46   199   198    2
    47   101   102   ar
    48   101   103   ar
    49   197   198    1
    50   102   104   ar
    51   131   130    1
    52   164   166   ar
    53   169   170   ar
    54   185   187   ar
    55   141   142    1
    56   188   189   ar
    57   103   105   ar
    58   142   145    1
    59   163   165   ar
    60   152   153    1
    61   129   130    1
    62   104   105   ar
    63   130   133    1
    64   145   147    1
    65   145   146    1
    66   187   189   ar
    67   153   154    1
    68   189   190    1
    69   106   107    1
    70   166   165   ar
    71   166   168   ar
    72   170   168   ar
    73   109   108    2
    74   133   134    1
    75   136   134   ar
    76   136   138   ar
    77   111   110    1
    78   134   135   ar
    79   108   107    1
    80   108   112   am
    81   107   110    1
    82   138   139   ar
    83   154   155    1
    84   135   137   ar
    85   139   137   ar
    86   139   140    1
    87   155   156    1
    88   116   113    1
    89   112   113    1
    90   113   114    1
    91    78    77    1
    92    92    93    1
    93    92    91    1
    94    76    77   ar
    95    76    74   ar
    96    93    94    1
    97    77    75   ar
    98    89    88    1
    99    89    90    2
   100    74    72   ar
   101   114   117   am
   102   114   115    2
   103   117   118    1
   104    75    73   ar
   105    88    91    1
   106    88    87    1
   107    94    95    1
   108    72    73   ar
   109    72    71    1
   110    70    69    2
   111    71    68    1
   112   120   119    2
   113   121   118    1
   114   121   122    1
   115   118   119    1
   116    69    68    1
   117    10     9    1
   118    68    67    1
   119   122   124   ar
   120   122   123   ar
   121   124   126   ar
   122    11     9    1
   123     9     8    2
   124    61    59    1
   125    54    52   am
   126    53    52    2
   127    85    83    1
   128    52    51    1
   129   126   127   ar
   130   123   125   ar
   131    58    57    2
   132     8     7    1
   133    37    36   ar
   134    37    35   ar
   135    36    34   ar
   136    63    66    1
   137    63    62    1
   138    63    64    1
   139    59    60    1
   140    59    56    1
   141    65    64    2
   142    27    25    1
   143    81    80    1
   144    81    82    2
   145    51    48    1
   146     7     6    1
   147    57    62   am
   148    57    56    1
   149    80    83    1
   150    80    79    1
   151    83    84    1
   152   127   125   ar
   153   127   128    1
   154    84    86    1
   155    50    49    2
   156    35    33   ar
   157    56    55    1
   158    48    49    1
   159    48    47    1
   160    34    33   ar
   161    25    26    1
   162    25    22    1
   163     6     5    1
   164    33    32    1
   165     5     2    1
   166    24    23    2
   167    47    40   am
   168    20    18   ar
   169    23    22    1
   170    23    28   am
   171    22    21    1
   172    41    40    2
   173    17    18    1
   174    17    16    1
   175    29    28    1
   176    29    32    1
   177    29    30    1
   178    40    39    1
   179    46    44   ar
   180     4     3    2
   181    18    19   ar
   182    44    43    1
   183    44    45   ar
   184     2     3    1
   185     2     1    1
   186    43    42    1
   187    42    39    1
   188    31    30    2
   189    16    13    1
   190    15    14    2
   191    14    13    1
   192    39    38    1
   193    13    12    1
