@<TRIPOS>MOLECULE
tmp/3rwkA01.pdb
 94 87 0 0 0
SMALL
GASTEIGER

@<TRIPOS>ATOM
      1  N         49.7350  -32.3480   20.2950 N.3    17  TRP17      -0.1227
      2  CA        50.0610  -31.2080   19.4590 C.3    17  TRP17       0.1737
      3  C         48.8190  -30.4790   18.9380 C.2    17  TRP17       0.2595
      4  O         47.8690  -31.0880   18.4280 O.2    17  TRP17      -0.2718
      5  CB        50.9600  -31.6860   18.2970 C.3    17  TRP17       0.0564
      6  CG        52.3140  -32.2280   18.7290 C.ar   17  TRP17       0.0003
      7  CD1       52.7090  -32.5740   20.0090 C.ar   17  TRP17       0.0946
      8  CD2       53.4470  -32.5440   17.8690 C.ar   17  TRP17       0.0152
      9  NE1       54.0200  -33.0570   19.9940 N.ar   17  TRP17      -0.2442
     10  CE2       54.4800  -33.0620   18.6980 C.ar   17  TRP17       0.0810
     11  CE3       53.6760  -32.4480   16.4760 C.ar   17  TRP17       0.0012
     12  CZ2       55.7410  -33.4290   18.1940 C.ar   17  TRP17       0.0191
     13  CZ3       54.9530  -32.8110   15.9610 C.ar   17  TRP17       0.0001
     14  CH2       55.9530  -33.3110   16.8380 C.ar   17  TRP17       0.0015
     15  N         48.8020  -29.1660   19.0360 N.am   18  MET18      -0.1965
     16  CA        47.6820  -28.4440   18.3940 C.3    18  MET18       0.1736
     17  C         48.2040  -27.5060   17.3250 C.2    18  MET18       0.2616
     18  O         49.3390  -27.0600   17.4070 O.2    18  MET18      -0.2715
     19  CB        46.8650  -27.6590   19.4430 C.3    18  MET18       0.0427
     20  CG        47.5270  -26.3490   19.9720 C.3    18  MET18       0.0599
     21  SD        46.4240  -25.3510   21.0300 S.3    18  MET18      -0.1393
     22  CE        45.2350  -24.7900   19.8290 C.3    18  MET18       0.0692
     23  N         47.3760  -27.2260   16.3120 N.am   19  ASN19      -0.1972
     24  CA        47.7150  -26.2110   15.3390 C.3    19  ASN19       0.1688
     25  C         46.5970  -25.1820   15.4530 C.2    19  ASN19       0.2292
     26  O         46.1880  -24.8850   16.5740 O.2    19  ASN19      -0.2864
     27  CB        47.8710  -26.7900   13.9520 C.3    19  ASN19       0.1181
     28  CG        49.0150  -26.1510   13.1630 C.2    19  ASN19       0.2629
     29  OD1       49.5260  -26.7660   12.2050 O.2    19  ASN19      -0.2716
     30  ND2       49.4290  -24.9350   13.5360 N.am   19  ASN19      -0.0877
     31  N         42.9330  -28.0350   15.2180 N.3    36  GLN36      -0.1245
     32  CA        43.6890  -29.0840   14.5680 C.3    36  GLN36       0.1566
     33  C         44.5110  -29.7810   15.6250 C.2    36  GLN36       0.2260
     34  O         45.4390  -29.1760   16.1830 O.2    36  GLN36      -0.2867
     35  CB        44.6120  -28.4750   13.5090 C.3    36  GLN36       0.0367
     36  CG        43.9010  -27.8740   12.3080 C.3    36  GLN36       0.0905
     37  CD        43.2140  -28.9500   11.4400 C.2    36  GLN36       0.2608
     38  OE1       42.0810  -29.4380   11.7360 O.2    36  GLN36      -0.2717
     39  NE2       43.8870  -29.3350   10.4050 N.am   36  GLN36      -0.0878
     40  N         46.9400  -33.2400   16.6850 N.3    38  ASN38      -0.1240
     41  CA        47.7980  -34.3530   16.2880 C.3    38  ASN38       0.1653
     42  C         48.0620  -35.1410   17.5740 C.2    38  ASN38       0.2266
     43  O         49.0040  -34.8030   18.3060 O.2    38  ASN38      -0.2867
     44  CB        49.1030  -33.7690   15.7240 C.3    38  ASN38       0.1155
     45  CG        50.1180  -34.8230   15.2410 C.2    38  ASN38       0.2627
     46  OD1       49.9540  -36.0410   15.4440 O.2    38  ASN38      -0.2716
     47  ND2       51.2000  -34.3310   14.6080 N.am   38  ASN38      -0.0877
     48  N         55.5340  -35.3930   13.5120 N.3    43  VAL43      -0.1245
     49  CA        55.1490  -34.6580   12.2990 C.3    43  VAL43       0.1561
     50  C         54.3400  -35.4580   11.2900 C.2    43  VAL43       0.2260
     51  O         53.7650  -34.8850   10.3670 O.2    43  VAL43      -0.2867
     52  CB        56.3770  -34.0830   11.5530 C.3    43  VAL43       0.0252
     53  CG1       56.9230  -32.8280   12.2950 C.3    43  VAL43       0.0019
     54  CG2       57.4370  -35.1670   11.3310 C.3    43  VAL43       0.0019
     55  N         45.6490  -35.7960   11.4130 N.3    47  ILE47      -0.1245
     56  CA        45.0050  -34.6460   12.0560 C.3    47  ILE47       0.1561
     57  C         43.5190  -34.9250   12.2440 C.2    47  ILE47       0.2260
     58  O         42.8620  -35.4470   11.3140 O.2    47  ILE47      -0.2867
     59  CB        45.2300  -33.3240   11.2420 C.3    47  ILE47       0.0252
     60  CG1       46.7480  -32.9980   11.0410 C.3    47  ILE47       0.0019
     61  CG2       44.4610  -32.1110   11.8620 C.3    47  ILE47       0.0019
     62  CD1       47.6340  -33.0220   12.3510 C.3    47  ILE47       0.0001
     63  N         46.7080  -19.9500   16.8220 N.3   295  VAL295     -0.1245
     64  CA        47.7330  -20.7330   17.5220 C.3   295  VAL295      0.1561
     65  C         49.0320  -19.9250   17.5990 C.2   295  VAL295      0.2260
     66  O         49.3530  -19.2430   16.6610 O.2   295  VAL295     -0.2867
     67  CB        48.0200  -22.1490   16.7950 C.3   295  VAL295      0.0252
     68  CG1       48.5690  -21.9750   15.3960 C.3   295  VAL295      0.0019
     69  CG2       48.9400  -23.0050   17.6060 C.3   295  VAL295      0.0019
     70  N         52.5690  -20.8870   17.6870 N.3   297  ASN297     -0.1240
     71  CA        53.7650  -21.7400   17.4530 C.3   297  ASN297      0.1653
     72  C         54.0820  -21.7050   15.9760 C.2   297  ASN297      0.2266
     73  O         53.4650  -22.4320   15.2280 O.2   297  ASN297     -0.2867
     74  CB        53.5570  -23.1970   17.8780 C.3   297  ASN297      0.1155
     75  CG        54.7790  -24.0560   17.5730 C.2   297  ASN297      0.2627
     76  OD1       55.8770  -23.5230   17.3570 O.2   297  ASN297     -0.2716
     77  ND2       54.5580  -25.3790   17.4020 N.am  297  ASN297     -0.0877
     78  N         56.7830  -25.3060   14.1190 N.3   300  GLY300     -0.1225
     79  CA        56.4500  -26.7800   14.0350 C.3   300  GLY300      0.1811
     80  C         56.8810  -27.5310   15.2870 C.2   300  GLY300      0.2280
     81  O         56.4830  -27.1720   16.3950 O.2   300  GLY300     -0.2866
     82  N         52.3140  -29.4610   22.4860 N.3   309  LYS309     -0.1231
     83  CA        52.9720  -28.4430   21.6180 C.3   309  LYS309      0.1693
     84  C         51.9160  -27.5620   21.0040 C.2   309  LYS309      0.2592
     85  O         50.8890  -28.0830   20.6610 O.2   309  LYS309     -0.2718
     86  CB        53.7540  -29.0850   20.4380 C.3   309  LYS309      0.0285
     87  CG        55.2190  -29.4060   20.7640 C.3   309  LYS309      0.0035
     88  CD        56.0290  -29.7610   19.5460 C.3   309  LYS309      0.0206
     89  CE        57.0770  -30.8230   19.9580 C.3   309  LYS309      0.1093
     90  NZ        58.0970  -30.2860   20.9960 N.3   309  LYS309     -0.1314
     91  N         52.1540  -26.2470   20.8340 N.am  310  GLY310     -0.1957
     92  CA        51.0890  -25.3530   20.3930 C.3   310  GLY310      0.1869
     93  C         50.2530  -24.8260   21.5390 C.2   310  GLY310      0.2309
     94  O         49.8050  -25.5830   22.3950 O.2   310  GLY310     -0.2863
@<TRIPOS>BOND
     1    51    50    2
     2    39    37   am
     3    60    59    1
     4    60    62    1
     5    59    61    1
     6    59    56    1
     7    50    49    1
     8    58    57    2
     9    54    52    1
    10    55    56    1
    11    37    38    2
    12    37    36    1
    13    52    53    1
    14    52    49    1
    15    56    57    1
    16    29    28    2
    17    49    48    1
    18    36    35    1
    19    28    30   am
    20    28    27    1
    21    35    32    1
    22    27    24    1
    23    79    78    1
    24    79    80    1
    25    32    31    1
    26    32    33    1
    27    47    45   am
    28    73    72    2
    29    45    46    2
    30    45    44    1
    31    80    81    2
    32    24    25    1
    33    24    23    1
    34    68    67    1
    35    25    26    2
    36    33    34    2
    37    44    41    1
    38    13    11   ar
    39    13    14   ar
    40    72    71    1
    41    41    40    1
    42    41    42    1
    43    23    17   am
    44    11     8   ar
    45    66    65    2
    46    67    64    1
    47    67    69    1
    48    63    64    1
    49    14    12   ar
    50    17    18    2
    51    17    16    1
    52    76    75    2
    53    77    75   am
    54    71    70    1
    55    71    74    1
    56    64    65    1
    57    75    74    1
    58    42    43    2
    59     8    10   ar
    60     8     6   ar
    61    12    10   ar
    62     5     6    1
    63     5     2    1
    64    16    15    1
    65    16    19    1
    66     4     3    2
    67    10     9   ar
    68     6     7   ar
    69     3    15   am
    70     3     2    1
    71    19    20    1
    72     2     1    1
    73    88    89    1
    74    88    87    1
    75    22    21    1
    76    89    90    1
    77    20    21    1
    78     9     7   ar
    79    92    91    1
    80    92    93    1
    81    86    87    1
    82    86    83    1
    83    85    84    2
    84    91    84   am
    85    84    83    1
    86    93    94    2
    87    83    82    1
