@<TRIPOS>MOLECULE
tmp/3rwkA02.pdb
 88 83 0 0 0
SMALL
GASTEIGER

@<TRIPOS>ATOM
      1  N         47.3760  -27.2260   16.3120 N.3    19  ASN19      -0.1225
      2  CA        47.7150  -26.2110   15.3390 C.3    19  ASN19       0.1785
      3  C         46.5970  -25.1820   15.4530 C.2    19  ASN19       0.2597
      4  O         46.1880  -24.8850   16.5740 O.2    19  ASN19      -0.2718
      5  CB        47.8710  -26.7900   13.9520 C.3    19  ASN19       0.1169
      6  CG        49.0150  -26.1510   13.1630 C.2    19  ASN19       0.2627
      7  OD1       49.5260  -26.7660   12.2050 O.2    19  ASN19      -0.2716
      8  ND2       49.4290  -24.9350   13.5360 N.am   19  ASN19      -0.0877
      9  N         46.0890  -24.6750   14.3430 N.am   20  GLU20      -0.1979
     10  CA        45.1360  -23.6220   14.3810 C.3    20  GLU20       0.1602
     11  C         43.7840  -24.0310   14.9970 C.2    20  GLU20       0.2287
     12  O         43.3870  -25.2070   14.9520 O.2    20  GLU20      -0.2864
     13  CB        44.9630  -22.9880   12.9990 C.3    20  GLU20       0.0415
     14  CG        44.2910  -23.8060   11.9080 C.3    20  GLU20       0.1163
     15  CD        45.2950  -24.6040   11.0690 C.2    20  GLU20       0.3649
     16  OE1       46.4510  -24.8120   11.5520 O.co2  20  GLU20      -0.2457
     17  OE2       44.9040  -25.0710    9.9800 O.co2  20  GLU20      -0.2457
     18  N         42.9330  -28.0350   15.2180 N.3    36  GLN36      -0.1245
     19  CA        43.6890  -29.0840   14.5680 C.3    36  GLN36       0.1566
     20  C         44.5110  -29.7810   15.6250 C.2    36  GLN36       0.2260
     21  O         45.4390  -29.1760   16.1830 O.2    36  GLN36      -0.2867
     22  CB        44.6120  -28.4750   13.5090 C.3    36  GLN36       0.0367
     23  CG        43.9010  -27.8740   12.3080 C.3    36  GLN36       0.0905
     24  CD        43.2140  -28.9500   11.4400 C.2    36  GLN36       0.2608
     25  OE1       42.0810  -29.4380   11.7360 O.2    36  GLN36      -0.2717
     26  NE2       43.8870  -29.3350   10.4050 N.am   36  GLN36      -0.0878
     27  N         40.9670  -31.7530    8.3130 N.3    76  PHE76      -0.1227
     28  CA        41.6710  -30.5070    8.2570 C.3    76  PHE76       0.1736
     29  C         40.7520  -29.3570    8.6340 C.2    76  PHE76       0.2596
     30  O         39.5750  -29.5370    8.9320 O.2    76  PHE76      -0.2718
     31  CB        42.2530  -30.3190    6.8400 C.3    76  PHE76       0.0547
     32  CG        43.6100  -30.9390    6.6570 C.ar   76  PHE76      -0.0202
     33  CD1       44.0430  -31.9750    7.4800 C.ar   76  PHE76      -0.0042
     34  CD2       44.4480  -30.4920    5.6380 C.ar   76  PHE76      -0.0042
     35  CE1       45.3380  -32.5400    7.2820 C.ar   76  PHE76      -0.0003
     36  CE2       45.7220  -31.0950    5.4200 C.ar   76  PHE76      -0.0003
     37  CZ        46.1520  -32.0910    6.2570 C.ar   76  PHE76      -0.0000
     38  N         41.2970  -28.1580    8.6000 N.am   77  THR77      -0.1953
     39  CA        40.6680  -27.0120    9.1930 C.3    77  THR77       0.1897
     40  C         39.3040  -26.6830    8.5730 C.2    77  THR77       0.2313
     41  O         39.0200  -27.0660    7.4150 O.2    77  THR77      -0.2863
     42  CB        41.6730  -25.8750    9.0480 C.3    77  THR77       0.1794
     43  OG1       42.4870  -25.9530   10.1990 O.3    77  THR77      -0.2208
     44  CG2       41.0430  -24.4820    8.9400 C.3    77  THR77       0.0378
     45  N         42.3200  -32.7500   -1.4190 N.3   112  GLN112     -0.1245
     46  CA        41.6250  -31.9610   -0.4400 C.3   112  GLN112      0.1566
     47  C         40.1910  -31.7180   -0.9270 C.2   112  GLN112      0.2260
     48  O         39.9940  -31.1860   -2.0070 O.2   112  GLN112     -0.2867
     49  CB        42.3750  -30.6230   -0.1940 C.3   112  GLN112      0.0367
     50  CG        43.7150  -30.8130    0.5250 C.3   112  GLN112      0.0905
     51  CD        44.5190  -29.5150    0.7070 C.2   112  GLN112      0.2608
     52  OE1       44.1660  -28.4750    0.1780 O.2   112  GLN112     -0.2717
     53  NE2       45.6330  -29.6060    1.4420 N.am  112  GLN112     -0.0878
     54  N         40.9700  -25.6240    0.3860 N.3   152  ARG152     -0.1231
     55  CA        40.8480  -25.9930    1.8000 C.3   152  ARG152      0.1694
     56  C         40.3430  -24.8590    2.7200 C.2   152  ARG152      0.2592
     57  O         40.2250  -23.7000    2.2990 O.2   152  ARG152     -0.2718
     58  CB        42.2080  -26.5300    2.3040 C.3   152  ARG152      0.0321
     59  CG        43.3580  -25.5120    2.2100 C.3   152  ARG152      0.0489
     60  CD        44.5200  -26.2200    2.8480 C.3   152  ARG152      0.2205
     61  NE        45.7940  -25.5190    2.6730 N.pl3 152  ARG152     -0.0865
     62  CZ        46.6020  -25.6250    1.6200 C.cat 152  ARG152      0.5346
     63  NH1       46.2960  -26.4130    0.5980 N.pl3 152  ARG152      0.1354
     64  NH2       47.7590  -24.9360    1.6140 N.pl3 152  ARG152      0.1354
     65  N         40.0550  -25.2340    3.9590 N.am  153  ASP153     -0.1974
     66  CA        39.8600  -24.3190    5.0650 C.3   153  ASP153      0.1709
     67  C         38.5310  -23.5660    4.9430 C.2   153  ASP153      0.2293
     68  O         38.4840  -22.3210    5.0700 O.2   153  ASP153     -0.2864
     69  CB        41.0170  -23.3230    5.1650 C.3   153  ASP153      0.1436
     70  CG        42.3490  -23.9690    5.4480 C.2   153  ASP153      0.3671
     71  OD1       42.4060  -25.1700    5.7730 O.co2 153  ASP153     -0.2456
     72  OD2       43.3590  -23.2410    5.3340 O.co2 153  ASP153     -0.2456
     73  N         45.6550  -19.3230    3.3710 N.3   210  GLU210     -0.1231
     74  CA        45.0460  -20.3370    4.2220 C.3   210  GLU210      0.1699
     75  C         44.1510  -19.6740    5.2600 C.2   210  GLU210      0.2592
     76  O         44.2940  -18.4570    5.5530 O.2   210  GLU210     -0.2718
     77  CB        46.1490  -21.1590    4.9420 C.3   210  GLU210      0.0402
     78  CG        47.0510  -21.9210    3.9510 C.3   210  GLU210      0.1161
     79  CD        48.1490  -22.7780    4.5920 C.2   210  GLU210      0.3649
     80  OE1       48.7610  -22.3730    5.6060 O.co2 210  GLU210     -0.2457
     81  OE2       48.4100  -23.8670    4.0360 O.co2 210  GLU210     -0.2457
     82  N         43.2550  -20.4890    5.8560 N.am  211  VAL211     -0.1980
     83  CA        42.4900  -20.1320    7.0390 C.3   211  VAL211      0.1595
     84  C         41.6490  -18.8160    6.8480 C.2   211  VAL211      0.2287
     85  O         41.8100  -17.8430    7.5680 O.2   211  VAL211     -0.2864
     86  CB        43.3470  -20.1350    8.3490 C.3   211  VAL211      0.0276
     87  CG1       42.4130  -20.0290    9.5940 C.3   211  VAL211      0.0022
     88  CG2       44.2420  -21.4500    8.4520 C.3   211  VAL211      0.0022
@<TRIPOS>BOND
     1    48    47    2
     2    45    46    1
     3    47    46    1
     4    46    49    1
     5    49    50    1
     6    52    51    2
     7    54    55    1
     8    50    51    1
     9    63    62    1
    10    51    53   am
    11    64    62    1
    12    62    61    2
    13    55    58    1
    14    55    56    1
    15    59    58    1
    16    59    60    1
    17    57    56    2
    18    61    60    1
    19    56    65   am
    20    73    74    1
    21    78    79    1
    22    78    77    1
    23    65    66    1
    24    81    79   ar
    25    74    77    1
    26    74    75    1
    27    79    80   ar
    28    67    66    1
    29    67    68    2
    30    66    69    1
    31    69    70    1
    32    75    76    2
    33    75    82   am
    34    72    70   ar
    35    36    34   ar
    36    36    37   ar
    37    70    71   ar
    38    34    32   ar
    39    82    83    1
    40    37    35   ar
    41    32    31    1
    42    32    33   ar
    43    31    28    1
    44    84    83    1
    45    84    85    2
    46    83    86    1
    47    35    33   ar
    48    41    40    2
    49    28    27    1
    50    28    29    1
    51    86    88    1
    52    86    87    1
    53    40    39    1
    54    38    29   am
    55    38    39    1
    56    29    30    2
    57    44    42    1
    58    42    39    1
    59    42    43    1
    60    17    15   ar
    61    26    24   am
    62    15    16   ar
    63    15    14    1
    64    24    25    2
    65    24    23    1
    66    14    13    1
    67     7     6    2
    68    23    22    1
    69    13    10    1
    70     6     8   am
    71     6     5    1
    72    22    19    1
    73     5     2    1
    74     9    10    1
    75     9     3   am
    76    10    11    1
    77    19    18    1
    78    19    20    1
    79    12    11    2
    80     2     3    1
    81     2     1    1
    82     3     4    2
    83    20    21    2
