@<TRIPOS>MOLECULE
tmp/3rwmA00.pdb
 162 155 0 0 0
SMALL
GASTEIGER

@<TRIPOS>ATOM
      1  N         22.4620   12.3060   10.3640 N.3    17  SER17      -0.1202
      2  CA        22.4380   13.7540   10.2360 C.3    17  SER17       0.2020
      3  C         22.1120   14.1200    8.7920 C.2    17  SER17       0.2619
      4  O         22.6660   13.5300    7.8520 O.2    17  SER17      -0.2717
      5  CB        23.7810   14.3650   10.6530 C.3    17  SER17       0.2103
      6  OG        23.8190   15.7550   10.3880 O.3    17  SER17      -0.2182
      7  N         21.2020   15.0720    8.6130 N.am   18  GLY18      -0.1956
      8  CA        20.8690   15.5420    7.2710 C.3    18  GLY18       0.1869
      9  C         19.6060   14.9780    6.6430 C.2    18  GLY18       0.2309
     10  O         19.1280   15.5280    5.6550 O.2    18  GLY18      -0.2863
     11  N         16.5080   14.8510    7.6490 N.3    20  GLY20      -0.1210
     12  CA        15.3670   15.7610    7.7600 C.3    20  GLY20       0.1956
     13  C         14.5200   15.5910    9.0060 C.2    20  GLY20       0.2612
     14  O         13.3550   15.9920    9.0100 O.2    20  GLY20      -0.2717
     15  N         15.1070   15.0230   10.0680 N.am   21  LYS21      -0.1965
     16  CA        14.3840   14.7860   11.3320 C.3    21  LYS21       0.1728
     17  C         13.7380   16.0640   11.8660 C.2    21  LYS21       0.2617
     18  O         12.5530   16.0780   12.1650 O.2    21  LYS21      -0.2715
     19  CB        15.3060   14.1990   12.3960 C.3    21  LYS21       0.0311
     20  CG        15.8580   12.8100   12.0480 C.3    21  LYS21       0.0038
     21  CD        16.7630   12.2440   13.1440 C.3    21  LYS21       0.0206
     22  CE        18.0650   13.0090   13.3190 C.3    21  LYS21       0.1093
     23  NZ        18.8170   13.1280   12.0210 N.3    21  LYS21      -0.1314
     24  N         14.5300   17.1290   11.9690 N.am   22  SER22      -0.1936
     25  CA        14.0730   18.4010   12.5320 C.3    22  SER22       0.2055
     26  C         12.9920   19.0610   11.7080 C.2    22  SER22       0.2643
     27  O         12.0860   19.6870   12.2680 O.2    22  SER22      -0.2714
     28  CB        15.2430   19.3790   12.7020 C.3    22  SER22       0.2130
     29  OG        16.1780   18.8960   13.6550 O.3    22  SER22      -0.2179
     30  N         13.0920   18.9470   10.3890 N.am   23  ASN23      -0.1971
     31  CA        12.0240   19.4430    9.5070 C.3    23  ASN23       0.1688
     32  C         10.7430   18.6200    9.5590 C.2    23  ASN23       0.2292
     33  O          9.6340   19.1640    9.4410 O.2    23  ASN23      -0.2864
     34  CB        12.5450   19.6470    8.0780 C.3    23  ASN23       0.1181
     35  CG        13.2730   20.9720    7.9470 C.2    23  ASN23       0.2629
     36  OD1       12.6470   22.0240    7.9580 O.2    23  ASN23      -0.2716
     37  ND2       14.5920   20.9270    7.9080 N.am   23  ASN23      -0.0877
     38  N          8.9010   24.6780    7.7760 N.3    33  PHE33      -0.1227
     39  CA        10.0010   24.0120    7.1110 C.3    33  PHE33       0.1736
     40  C         11.0810   25.0760    6.9380 C.2    33  PHE33       0.2595
     41  O         10.7690   26.2620    6.8150 O.2    33  PHE33      -0.2718
     42  CB         9.5300   23.4410    5.7620 C.3    33  PHE33       0.0547
     43  CG        10.6200   22.8150    4.9500 C.ar   33  PHE33      -0.0202
     44  CD1       11.2200   23.5180    3.9110 C.ar   33  PHE33      -0.0042
     45  CD2       11.0590   21.5250    5.2230 C.ar   33  PHE33      -0.0042
     46  CE1       12.2430   22.9470    3.1600 C.ar   33  PHE33      -0.0003
     47  CE2       12.0830   20.9460    4.4780 C.ar   33  PHE33      -0.0003
     48  CZ        12.6790   21.6560    3.4510 C.ar   33  PHE33      -0.0000
     49  N         12.3460   24.6630    6.9690 N.am   34  ASN34      -0.1960
     50  CA        13.4530   25.5840    6.7220 C.3    34  ASN34       0.1819
     51  C         14.5350   24.8970    5.9010 C.2    34  ASN34       0.2621
     52  O         15.2260   24.0120    6.4110 O.2    34  ASN34      -0.2715
     53  CB        14.0130   26.1420    8.0440 C.3    34  ASN34       0.1195
     54  CG        15.1790   27.0970    7.8350 C.2    34  ASN34       0.2630
     55  OD1       15.6300   27.3280    6.7080 O.2    34  ASN34      -0.2716
     56  ND2       15.6700   27.6650    8.9280 N.am   34  ASN34      -0.0877
     57  N         14.6700   25.3130    4.6370 N.am   35  ILE35      -0.1977
     58  CA        15.6450   24.7450    3.7010 C.3    35  ILE35       0.1596
     59  C         17.1020   24.9290    4.1550 C.2    35  ILE35       0.2287
     60  O         17.9880   24.1860    3.7320 O.2    35  ILE35      -0.2864
     61  CB        15.4430   25.2580    2.2250 C.3    35  ILE35       0.0276
     62  CG1       16.2050   24.3810    1.2210 C.3    35  ILE35       0.0022
     63  CG2       15.8450   26.7230    2.0620 C.3    35  ILE35       0.0022
     64  CD1       15.5710   23.0140    0.9770 C.3    35  ILE35       0.0001
     65  N         18.0890   24.8270    7.4600 N.3    37  SER37      -0.1202
     66  CA        18.2890   24.3220    8.8130 C.3    37  SER37       0.2020
     67  C         19.6580   23.6460    8.9440 C.2    37  SER37       0.2619
     68  O         20.1660   23.0340    8.0000 O.2    37  SER37      -0.2717
     69  CB        17.1660   23.3740    9.2310 C.3    37  SER37       0.2103
     70  OG        17.2070   22.1810    8.4890 O.3    37  SER37      -0.2182
     71  N         20.2580   23.7830   10.1160 N.am   38  LYS38      -0.1965
     72  CA        21.5590   23.1770   10.3870 C.3    38  LYS38       0.1728
     73  C         21.4020   22.0520   11.4070 C.2    38  LYS38       0.2617
     74  O         20.3090   21.8520   11.9630 O.2    38  LYS38      -0.2715
     75  CB        22.5460   24.2240   10.9210 C.3    38  LYS38       0.0311
     76  CG        22.6710   25.5050   10.0850 C.3    38  LYS38       0.0038
     77  CD        23.2400   25.2220    8.6970 C.3    38  LYS38       0.0206
     78  CE        23.4940   26.5110    7.9320 C.3    38  LYS38       0.1093
     79  NZ        23.7900   26.2160    6.5030 N.3    38  LYS38      -0.1314
     80  N         22.5020   21.3310   11.6380 N.am   39  SER39      -0.1936
     81  CA        22.5600   20.2440   12.6170 C.3    39  SER39       0.2055
     82  C         22.0620   20.6980   13.9880 C.2    39  SER39       0.2643
     83  O         22.4260   21.7770   14.4760 O.2    39  SER39      -0.2714
     84  CB        23.9800   19.6740   12.7150 C.3    39  SER39       0.2130
     85  OG        23.9710   18.3460   13.2110 O.3    39  SER39      -0.2179
     86  N         21.2200   19.8650   14.5860 N.am   40  THR40      -0.1950
     87  CA        20.5530   20.1730   15.8430 C.3    40  THR40       0.1897
     88  C         21.5310   20.3060   17.0110 C.2    40  THR40       0.2313
     89  O         22.4520   19.5020   17.1540 O.2    40  THR40      -0.2863
     90  CB        19.5000   19.1110   16.1570 C.3    40  THR40       0.1794
     91  OG1       18.5480   19.0890   15.0870 O.3    40  THR40      -0.2208
     92  CG2       18.7740   19.3960   17.4800 C.3    40  THR40       0.0378
     93  N         13.6830   15.3080   19.3650 N.3    63  ASP63      -0.1225
     94  CA        14.6170   15.4700   18.2680 C.3    63  ASP63       0.1805
     95  C         16.0030   15.7580   18.8240 C.2    63  ASP63       0.2598
     96  O         16.1520   16.4560   19.8280 O.2    63  ASP63      -0.2718
     97  CB        14.1600   16.6260   17.3780 C.3    63  ASP63       0.1424
     98  CG        15.0010   16.7900   16.1120 C.2    63  ASP63       0.3668
     99  OD1       15.4740   15.7870   15.5300 O.co2  63  ASP63      -0.2456
    100  OD2       15.1640   17.9460   15.6820 O.co2  63  ASP63      -0.2456
    101  N         17.0070   15.1890   18.1660 N.am   64  THR64      -0.1939
    102  CA        18.4130   15.4540   18.4530 C.3    64  THR64       0.2028
    103  C         19.2490   15.0880   17.2200 C.2    64  THR64       0.2642
    104  O         18.7920   14.3090   16.3730 O.2    64  THR64      -0.2714
    105  CB        18.9010   14.7040   19.7290 C.3    64  THR64       0.1808
    106  OG1       20.0820   15.3410   20.2270 O.3    64  THR64      -0.2208
    107  CG2       19.1950   13.2240   19.4570 C.3    64  THR64       0.0379
    108  N         20.4500   15.6520   17.0990 N.am   65  ALA65      -0.1963
    109  CA        21.2780   15.3930   15.9200 C.3    65  ALA65       0.1728
    110  C         21.6060   13.8990   15.7770 C.2    65  ALA65       0.2616
    111  O         21.9110   13.2240   16.7680 O.2    65  ALA65      -0.2715
    112  CB        22.5510   16.2350   15.9500 C.3    65  ALA65       0.0334
    113  N         21.5140   13.3890   14.5440 N.am   66  GLY66      -0.1955
    114  CA        21.8670   11.9930   14.2430 C.3    66  GLY66       0.1869
    115  C         23.3760   11.7870   14.2640 C.2    66  GLY66       0.2309
    116  O         24.0000   11.4480   13.2520 O.2    66  GLY66      -0.2863
    117  N         12.3300   10.0270    3.8870 N.3   121  ASN121     -0.1225
    118  CA        12.0300   11.4390    3.7480 C.3   121  ASN121      0.1785
    119  C         12.6450   12.0370    2.4690 C.2   121  ASN121      0.2597
    120  O         13.4850   11.4060    1.7980 O.2   121  ASN121     -0.2718
    121  CB        12.5140   12.2130    4.9900 C.3   121  ASN121      0.1169
    122  CG        12.0300   13.6410    5.0120 C.2   121  ASN121      0.2627
    123  OD1       10.8570   13.9120    4.7530 O.2   121  ASN121     -0.2716
    124  ND2       12.9260   14.5700    5.3340 N.am  121  ASN121     -0.0877
    125  N         12.2280   13.2610    2.1490 N.am  122  LYS122     -0.1980
    126  CA        12.6680   13.9560    0.9310 C.3   122  LYS122      0.1596
    127  C         12.1400   13.3030   -0.3390 C.2   122  LYS122      0.2287
    128  O         12.8230   13.3100   -1.3810 O.2   122  LYS122     -0.2864
    129  CB        14.1990   14.0840    0.8600 C.3   122  LYS122      0.0298
    130  CG        14.8550   14.5480    2.1580 C.3   122  LYS122      0.0038
    131  CD        16.1850   15.2480    1.8670 C.3   122  LYS122      0.0206
    132  CE        16.9010   15.5350    3.1720 C.3   122  LYS122      0.1093
    133  NZ        18.3500   15.8230    2.9840 N.3   122  LYS122     -0.1314
    134  N         10.2570   14.4530   -2.3750 N.3   124  ASP124     -0.1225
    135  CA        10.2310   15.4670   -3.4290 C.3   124  ASP124      0.1805
    136  C         11.5100   15.4020   -4.2760 C.2   124  ASP124      0.2597
    137  O         11.5870   15.9990   -5.3570 O.2   124  ASP124     -0.2718
    138  CB        10.0920   16.8630   -2.8180 C.3   124  ASP124      0.1424
    139  CG        11.1790   17.1620   -1.7880 C.2   124  ASP124      0.3668
    140  OD1       11.1460   16.5870   -0.6770 O.co2 124  ASP124     -0.2456
    141  OD2       12.0650   17.9730   -2.0850 O.co2 124  ASP124     -0.2456
    142  N         12.5140   14.6790   -3.7810 N.am  125  LEU125     -0.1979
    143  CA        13.7630   14.4770   -4.5260 C.3   125  LEU125      0.1596
    144  C         13.7920   13.1480   -5.3010 C.2   125  LEU125      0.2287
    145  O         14.8500   12.5370   -5.4960 O.2   125  LEU125     -0.2864
    146  CB        14.9590   14.5730   -3.5660 C.3   125  LEU125      0.0297
    147  CG        15.1760   15.8780   -2.7880 C.3   125  LEU125      0.0022
    148  CD1       16.4910   15.8150   -1.9870 C.3   125  LEU125      0.0001
    149  CD2       15.1930   17.1010   -3.7170 C.3   125  LEU125      0.0001
    150  N          8.9990   16.5010    4.1820 N.3   152  ALA152     -0.1231
    151  CA         8.8110   17.6790    5.0670 C.3   152  ALA152      0.1694
    152  C          8.7080   18.9750    4.2480 C.2   152  ALA152      0.2591
    153  O          8.0160   19.9300    4.6280 O.2   152  ALA152     -0.2718
    154  CB         9.9440   17.7840    6.0940 C.3   152  ALA152      0.0304
    155  N          9.4100   19.0060    3.1180 N.am  153  LEU153     -0.1980
    156  CA         9.4000   20.1790    2.2560 C.3   153  LEU153      0.1596
    157  C          8.0150   20.5180    1.6830 C.2   153  LEU153      0.2287
    158  O          7.6140   21.6830    1.7080 O.2   153  LEU153     -0.2864
    159  CB        10.4550   20.0560    1.1400 C.3   153  LEU153      0.0297
    160  CG        10.6790   21.2640    0.2260 C.3   153  LEU153      0.0022
    161  CD1       12.0850   21.1790   -0.3630 C.3   153  LEU153      0.0001
    162  CD2        9.6500   21.3160   -0.8850 C.3   153  LEU153      0.0001
@<TRIPOS>BOND
     1   145   144    2
     2   137   136    2
     3   144   143    1
     4   143   142    1
     5   143   146    1
     6   136   142   am
     7   136   135    1
     8   149   147    1
     9   146   147    1
    10   135   138    1
    11   135   134    1
    12   138   139    1
    13   147   148    1
    14   141   139   ar
    15   139   140   ar
    16   128   127    2
    17   162   160    1
    18   161   160    1
    19   127   126    1
    20   160   159    1
    21   129   126    1
    22   129   130    1
    23   126   125    1
    24    64    62    1
    25   159   156    1
    26    62    61    1
    27   157   158    2
    28   157   156    1
    29   120   119    2
    30   131   130    1
    31   131   132    1
    32    63    61    1
    33   125   119   am
    34    61    58    1
    35   156   155    1
    36   119   118    1
    37   133   132    1
    38   155   152   am
    39    46    48   ar
    40    46    44   ar
    41    48    47   ar
    42    58    59    1
    43    58    57    1
    44    60    59    2
    45   118   117    1
    46   118   121    1
    47    44    43   ar
    48   150   151    1
    49   152   153    2
    50   152   151    1
    51    47    45   ar
    52    57    51   am
    53   123   122    2
    54    43    45   ar
    55    43    42    1
    56   121   122    1
    57   122   124   am
    58   151   154    1
    59    10     9    2
    60    42    39    1
    61    51    52    2
    62    51    50    1
    63    79    78    1
    64     9     8    1
    65    55    54    2
    66    50    49    1
    67    50    53    1
    68    41    40    2
    69    40    49   am
    70    40    39    1
    71    39    38    1
    72     8     7    1
    73    65    66    1
    74    11    12    1
    75    12    13    1
    76    54    53    1
    77    54    56   am
    78     4     3    2
    79    37    35   am
    80    78    77    1
    81    35    36    2
    82    35    34    1
    83    68    67    2
    84    34    31    1
    85    70    69    1
    86     7     3   am
    87    77    76    1
    88     3     2    1
    89    66    67    1
    90    66    69    1
    91    67    71   am
    92    13    14    2
    93    13    15   am
    94    33    32    2
    95    31    32    1
    96    31    30    1
    97    15    16    1
    98    76    75    1
    99    71    72    1
   100     2     1    1
   101     2     5    1
   102    72    75    1
   103    72    73    1
   104     6     5    1
   105    30    26   am
   106    16    17    1
   107    16    19    1
   108    73    80   am
   109    73    74    2
   110    80    81    1
   111    26    27    2
   112    26    25    1
   113    17    24   am
   114    17    18    2
   115    24    25    1
   116    23    22    1
   117    20    19    1
   118    20    21    1
   119    25    28    1
   120    81    84    1
   121    81    82    1
   122    28    29    1
   123    84    85    1
   124    21    22    1
   125   116   115    2
   126    82    83    2
   127    82    86   am
   128   114   115    1
   129   114   113    1
   130   113   110   am
   131    86    87    1
   132    91    90    1
   133    99    98   ar
   134   100    98   ar
   135   110   109    1
   136   110   111    2
   137    87    90    1
   138    87    88    1
   139   109   112    1
   140   109   108    1
   141    98    97    1
   142    90    92    1
   143   104   103    2
   144    88    89    2
   145   108   103   am
   146   103   102    1
   147    97    94    1
   148   101   102    1
   149   101    95   am
   150    94    95    1
   151    94    93    1
   152   102   105    1
   153    95    96    2
   154   107   105    1
   155   105   106    1
