@<TRIPOS>MOLECULE
tmp/3rwoA00.pdb
 162 157 0 0 0
SMALL
GASTEIGER

@<TRIPOS>ATOM
      1  N          5.1260  -12.6780   31.1150 N.3    16  SER16      -0.1202
      2  CA         5.9000  -12.9740   32.3080 C.3    16  SER16       0.2020
      3  C          7.3620  -13.2070   31.9460 C.2    16  SER16       0.2619
      4  O          7.6660  -13.8400   30.9190 O.2    16  SER16      -0.2717
      5  CB         5.3360  -14.2110   32.9970 C.3    16  SER16       0.2103
      6  OG         5.9140  -14.3300   34.2800 O.3    16  SER16      -0.2182
      7  N          8.2560  -12.6700   32.7770 N.am   17  GLY17      -0.1942
      8  CA         9.7000  -12.8550   32.6730 C.3    17  GLY17       0.2014
      9  C         10.4510  -11.8240   31.8700 C.2    17  GLY17       0.2639
     10  O         11.6690  -11.8930   31.7990 O.2    17  GLY17      -0.2714
     11  N          9.7400  -10.8600   31.2780 N.am   18  VAL18      -0.1963
     12  CA        10.3970   -9.9090   30.3810 C.3    18  VAL18       0.1727
     13  C         11.1620   -8.8220   31.1310 C.2    18  VAL18       0.2617
     14  O         12.0320   -8.2030   30.5460 O.2    18  VAL18      -0.2715
     15  CB         9.4350   -9.2580   29.3540 C.3    18  VAL18       0.0290
     16  CG1        8.8010  -10.3510   28.4480 C.3    18  VAL18       0.0023
     17  CG2        8.3670   -8.3990   30.0650 C.3    18  VAL18       0.0023
     18  N         10.8430   -8.6150   32.4060 N.am   19  GLY19      -0.1940
     19  CA        11.5370   -7.6120   33.2240 C.3    19  GLY19       0.2014
     20  C         10.6980   -6.4330   33.7070 C.2    19  GLY19       0.2639
     21  O         11.2540   -5.3890   34.0680 O.2    19  GLY19      -0.2714
     22  N          9.3730   -6.5590   33.6770 N.am   20  LYS20      -0.1963
     23  CA         8.4860   -5.4550   34.0910 C.3    20  LYS20       0.1728
     24  C          8.7410   -5.0270   35.5280 C.2    20  LYS20       0.2617
     25  O          8.8500   -3.8370   35.8330 O.2    20  LYS20      -0.2715
     26  CB         7.0100   -5.8570   33.9470 C.3    20  LYS20       0.0311
     27  CG         6.6220   -6.1850   32.4960 C.3    20  LYS20       0.0038
     28  CD         5.1450   -6.5770   32.3290 C.3    20  LYS20       0.0206
     29  CE         4.7210   -7.7490   33.1740 C.3    20  LYS20       0.1093
     30  NZ         5.4910   -9.0130   32.9020 N.3    20  LYS20      -0.1314
     31  N          8.7960   -5.9910   36.4360 N.am   21  SER21      -0.1936
     32  CA         8.9720   -5.6270   37.8410 C.3    21  SER21       0.2055
     33  C         10.3060   -4.9210   38.0790 C.2    21  SER21       0.2643
     34  O         10.3960   -3.9970   38.8970 O.2    21  SER21      -0.2714
     35  CB         8.8040   -6.8530   38.7380 C.3    21  SER21       0.2130
     36  OG         7.4680   -7.3500   38.5760 O.3    21  SER21      -0.2179
     37  N         11.3290   -5.3680   37.3620 N.am   22  ASN22      -0.1971
     38  CA        12.6170   -4.7140   37.4520 C.3    22  ASN22       0.1688
     39  C         12.7070   -3.3800   36.7470 C.2    22  ASN22       0.2292
     40  O         13.4580   -2.5030   37.1730 O.2    22  ASN22      -0.2864
     41  CB        13.7170   -5.6570   37.0150 C.3    22  ASN22       0.1181
     42  CG        14.1180   -6.5710   38.1350 C.2    22  ASN22       0.2629
     43  OD1       14.7120   -6.1220   39.1040 O.2    22  ASN22      -0.2716
     44  ND2       13.7230   -7.8380   38.0580 N.am   22  ASN22      -0.0877
     45  N         17.4840   -3.3280   41.4430 N.3    32  PHE32      -0.1227
     46  CA        17.3170   -4.4600   40.5410 C.3    32  PHE32       0.1736
     47  C         17.4170   -5.7310   41.3760 C.2    32  PHE32       0.2595
     48  O         18.2120   -5.8050   42.3210 O.2    32  PHE32      -0.2718
     49  CB        18.4000   -4.4320   39.4580 C.3    32  PHE32       0.0547
     50  CG        18.3120   -5.5520   38.4870 C.ar   32  PHE32      -0.0202
     51  CD1       19.0740   -6.7140   38.6690 C.ar   32  PHE32      -0.0042
     52  CD2       17.4530   -5.4700   37.3800 C.ar   32  PHE32      -0.0042
     53  CE1       18.9840   -7.7810   37.7690 C.ar   32  PHE32      -0.0003
     54  CE2       17.3510   -6.5170   36.4960 C.ar   32  PHE32      -0.0003
     55  CZ        18.1240   -7.6760   36.6700 C.ar   32  PHE32      -0.0000
     56  N         16.5880   -6.7110   41.0460 N.am   33  ASN33      -0.1960
     57  CA        16.5330   -7.9660   41.7740 C.3    33  ASN33       0.1819
     58  C         16.7570   -9.0870   40.7570 C.2    33  ASN33       0.2621
     59  O         16.0070   -9.2130   39.7940 O.2    33  ASN33      -0.2715
     60  CB        15.1580   -8.0640   42.4650 C.3    33  ASN33       0.1195
     61  CG        14.8790   -9.4330   43.0850 C.2    33  ASN33       0.2630
     62  OD1       15.7950  -10.1870   43.4510 O.2    33  ASN33      -0.2716
     63  ND2       13.5850   -9.7470   43.2270 N.am   33  ASN33      -0.0877
     64  N         17.8240   -9.8630   40.9540 N.am   34  ILE34      -0.1963
     65  CA        18.1910  -10.9510   40.0390 C.3    34  ILE34       0.1727
     66  C         17.1990  -12.1320   40.1020 C.2    34  ILE34       0.2616
     67  O         17.1750  -12.9760   39.2040 O.2    34  ILE34      -0.2715
     68  CB        19.6820  -11.3950   40.2600 C.3    34  ILE34       0.0290
     69  CG1       20.0620  -12.5780   39.3560 C.3    34  ILE34       0.0022
     70  CG2       19.9430  -11.7270   41.7310 C.3    34  ILE34       0.0023
     71  CD1       21.5770  -12.8500   39.2510 C.3    34  ILE34       0.0001
     72  N         16.3530  -12.1510   41.1350 N.am   35  GLU35      -0.1963
     73  CA        15.4030  -13.2450   41.3750 C.3    35  GLU35       0.1733
     74  C         14.4150  -13.5000   40.2310 C.2    35  GLU35       0.2617
     75  O         13.7420  -12.5870   39.7540 O.2    35  GLU35      -0.2715
     76  CB        14.6440  -13.0050   42.6770 C.3    35  GLU35       0.0429
     77  CG        14.0680  -14.2520   43.3120 C.3    35  GLU35       0.1163
     78  CD        13.6060  -14.0070   44.7370 C.2    35  GLU35       0.3649
     79  OE1       14.4740  -13.7940   45.6170 O.co2  35  GLU35      -0.2457
     80  OE2       12.3780  -14.0340   44.9760 O.co2  35  GLU35      -0.2457
     81  N         14.3230  -14.7670   39.8290 N.am   36  SER36      -0.1936
     82  CA        13.5960  -15.1860   38.6260 C.3    36  SER36       0.2055
     83  C         12.1430  -15.6160   38.8840 C.2    36  SER36       0.2643
     84  O         11.4250  -15.9900   37.9460 O.2    36  SER36      -0.2714
     85  CB        14.3640  -16.3270   37.9350 C.3    36  SER36       0.2130
     86  OG        13.6660  -16.8050   36.7990 O.3    36  SER36      -0.2179
     87  N         11.7290  -15.5730   40.1490 N.am   37  LYS37      -0.1963
     88  CA        10.3630  -15.9170   40.5500 C.3    37  LYS37       0.1728
     89  C          9.4670  -14.6890   40.4830 C.2    37  LYS37       0.2616
     90  O          9.8160  -13.6270   41.0120 O.2    37  LYS37      -0.2715
     91  CB        10.3460  -16.5100   41.9600 C.3    37  LYS37       0.0311
     92  CG        11.0210  -17.8680   42.0710 C.3    37  LYS37       0.0038
     93  CD        10.9900  -18.3860   43.4990 C.3    37  LYS37       0.0206
     94  CE        11.6430  -19.7540   43.6050 C.3    37  LYS37       0.1093
     95  NZ        11.6410  -20.2630   45.0040 N.3    37  LYS37      -0.1314
     96  N          8.3230  -14.8200   39.8180 N.am   38  SER38      -0.1950
     97  CA         7.3570  -13.7280   39.7670 C.3    38  SER38       0.1924
     98  C          6.5190  -13.6460   41.0580 C.2    38  SER38       0.2314
     99  O          6.1040  -14.6610   41.6110 O.2    38  SER38      -0.2863
    100  CB         6.4470  -13.8740   38.5430 C.3    38  SER38       0.2116
    101  OG         5.4900  -12.8280   38.5080 O.3    38  SER38      -0.2180
    102  N          2.4330   -2.3130   38.3210 N.3    62  ASP62      -0.1225
    103  CA         3.0180   -3.5810   37.8860 C.3    62  ASP62       0.1805
    104  C          2.1680   -4.6970   38.4580 C.2    62  ASP62       0.2598
    105  O          1.6140   -4.5610   39.5480 O.2    62  ASP62      -0.2718
    106  CB         4.4410   -3.6490   38.4330 C.3    62  ASP62       0.1424
    107  CG         5.1570   -4.9250   38.0900 C.2    62  ASP62       0.3668
    108  OD1        5.2650   -5.3060   36.8960 O.co2  62  ASP62      -0.2456
    109  OD2        5.6640   -5.5310   39.0570 O.co2  62  ASP62      -0.2456
    110  N          2.0530   -5.7950   37.7150 N.am   63  THR63      -0.1953
    111  CA         1.1820   -6.8690   38.1540 C.3    63  THR63       0.1897
    112  C          1.6570   -8.1960   37.5930 C.2    63  THR63       0.2313
    113  O          2.4180   -8.2350   36.6210 O.2    63  THR63      -0.2863
    114  CB        -0.2950   -6.6090   37.7480 C.3    63  THR63       0.1794
    115  OG1       -1.1550   -7.5750   38.3700 O.3    63  THR63      -0.2208
    116  CG2       -0.4890   -6.6490   36.2180 C.3    63  THR63       0.0378
    117  N         13.2990   -5.0840   26.4270 N.3   120  ASN120     -0.1225
    118  CA        14.1720   -5.1470   27.5880 C.3   120  ASN120      0.1785
    119  C         15.1900   -6.2760   27.4740 C.2   120  ASN120      0.2597
    120  O         15.1030   -7.1080   26.5610 O.2   120  ASN120     -0.2718
    121  CB        13.3300   -5.2830   28.8630 C.3   120  ASN120      0.1169
    122  CG        14.1650   -5.1620   30.1310 C.2   120  ASN120      0.2627
    123  OD1       14.9800   -4.2370   30.2750 O.2   120  ASN120     -0.2716
    124  ND2       13.9770   -6.1070   31.0630 N.am  120  ASN120     -0.0877
    125  N         16.1600   -6.2890   28.3980 N.am  121  LYS121     -0.1980
    126  CA        17.2870   -7.2380   28.3970 C.3   121  LYS121      0.1596
    127  C         18.2500   -7.0210   27.2380 C.2   121  LYS121      0.2287
    128  O         18.7930   -7.9900   26.6760 O.2   121  LYS121     -0.2864
    129  CB        16.8130   -8.7140   28.4500 C.3   121  LYS121      0.0298
    130  CG        15.7310   -8.9640   29.4840 C.3   121  LYS121      0.0038
    131  CD        15.7370  -10.4150   29.9680 C.3   121  LYS121      0.0206
    132  CE        14.4810  -10.6920   30.8260 C.3   121  LYS121      0.1093
    133  NZ        14.4590  -12.1430   31.2880 N.3   121  LYS121     -0.1314
    134  N         21.1320   -6.1780   27.3340 N.3   123  ASP123     -0.1225
    135  CA        22.4480   -6.6920   27.7290 C.3   123  ASP123      0.1805
    136  C         22.6660   -8.1400   27.2640 C.2   123  ASP123      0.2597
    137  O         23.8040   -8.6320   27.2540 O.2   123  ASP123     -0.2718
    138  CB        22.6170   -6.5890   29.2470 C.3   123  ASP123      0.1424
    139  CG        21.5350   -7.3400   29.9920 C.2   123  ASP123      0.3668
    140  OD1       20.4140   -6.8030   30.0860 O.co2 123  ASP123     -0.2456
    141  OD2       21.8170   -8.4770   30.4430 O.co2 123  ASP123     -0.2456
    142  N         21.5730   -8.8050   26.8920 N.am  124  LEU124     -0.1979
    143  CA        21.6360  -10.1680   26.3450 C.3   124  LEU124      0.1596
    144  C         21.6870  -10.1610   24.8150 C.2   124  LEU124      0.2287
    145  O         21.0430  -10.9750   24.1490 O.2   124  LEU124     -0.2864
    146  CB        20.4670  -11.0190   26.8740 C.3   124  LEU124      0.0297
    147  CG        20.2870  -11.1500   28.3960 C.3   124  LEU124      0.0022
    148  CD1       19.0900  -12.0370   28.7430 C.3   124  LEU124      0.0001
    149  CD2       21.5500  -11.7070   29.0720 C.3   124  LEU124      0.0001
    150  N         17.1320   -3.2170   32.2180 N.3   151  ALA151     -0.1231
    151  CA        16.8830   -2.9740   33.6420 C.3   151  ALA151      0.1694
    152  C         18.1070   -3.3920   34.4600 C.2   151  ALA151      0.2591
    153  O         18.4530   -2.7470   35.4500 O.2   151  ALA151     -0.2718
    154  CB        15.6260   -3.7170   34.1040 C.3   151  ALA151      0.0304
    155  N         18.7910   -4.4350   33.9900 N.am  152  LEU152     -0.1980
    156  CA        19.9620   -4.9590   34.6850 C.3   152  LEU152      0.1596
    157  C         21.1100   -3.9440   34.7510 C.2   152  LEU152      0.2287
    158  O         21.6230   -3.6660   35.8490 O.2   152  LEU152     -0.2864
    159  CB        20.3820   -6.3090   34.0730 C.3   152  LEU152      0.0297
    160  CG        21.4690   -7.1210   34.7760 C.3   152  LEU152      0.0022
    161  CD1       21.2300   -8.6230   34.5890 C.3   152  LEU152      0.0001
    162  CD2       22.8280   -6.7060   34.2290 C.3   152  LEU152      0.0001
@<TRIPOS>BOND
     1   145   144    2
     2   144   143    1
     3   143   146    1
     4   143   142    1
     5   117   118    1
     6   120   119    2
     7   128   127    2
     8   146   147    1
     9   142   136   am
    10   127   126    1
    11   137   136    2
    12   136   135    1
    13   134   135    1
    14   119   118    1
    15   119   125   am
    16   118   121    1
    17   135   138    1
    18   147   148    1
    19   147   149    1
    20   126   125    1
    21   126   129    1
    22    16    15    1
    23   129   130    1
    24   121   122    1
    25   138   139    1
    26    15    17    1
    27    15    12    1
    28   130   131    1
    29   131   132    1
    30   139   140   ar
    31   139   141   ar
    32   122   123    2
    33   122   124   am
    34    12    13    1
    35    12    11    1
    36    14    13    2
    37   132   133    1
    38     4     3    2
    39     1     2    1
    40    13    18   am
    41    11     9   am
    42    10     9    2
    43     9     8    1
    44     3     2    1
    45     3     7   am
    46   150   151    1
    47     2     5    1
    48    28    27    1
    49    28    29    1
    50    18    19    1
    51    27    26    1
    52     8     7    1
    53    30    29    1
    54     5     6    1
    55    19    20    1
    56   151   154    1
    57   151   152    1
    58    22    20   am
    59    22    23    1
    60    20    21    2
    61    26    23    1
    62   155   152   am
    63   155   156    1
    64   159   156    1
    65   159   160    1
    66    23    24    1
    67   162   160    1
    68   152   153    2
    69   161   160    1
    70   156   157    1
    71   157   158    2
    72    24    25    2
    73    24    31   am
    74   116   114    1
    75    31    32    1
    76    54    55   ar
    77    54    52   ar
    78   113   112    2
    79    55    53   ar
    80    39    40    2
    81    39    38    1
    82    86    85    1
    83   108   107   ar
    84    41    38    1
    85    41    42    1
    86    37    38    1
    87    37    33   am
    88    52    50   ar
    89   112   111    1
    90   110   111    1
    91   110   104   am
    92   114   111    1
    93   114   115    1
    94    53    51   ar
    95    32    33    1
    96    32    35    1
    97   103   102    1
    98   103   106    1
    99   103   104    1
   100    85    82    1
   101    84    83    2
   102    44    42   am
   103    33    34    2
   104   107   106    1
   105   107   109   ar
   106    42    43    2
   107   104   105    2
   108    50    51   ar
   109    50    49    1
   110   101   100    1
   111   100    97    1
   112    36    35    1
   113    82    83    1
   114    82    81    1
   115    83    87   am
   116    67    66    2
   117    71    69    1
   118    69    68    1
   119    49    46    1
   120    75    74    2
   121    97    96    1
   122    97    98    1
   123    59    58    2
   124    96    89   am
   125    81    74   am
   126    65    66    1
   127    65    68    1
   128    65    64    1
   129    66    72   am
   130    87    88    1
   131    74    73    1
   132    68    70    1
   133    89    88    1
   134    89    90    2
   135    46    47    1
   136    46    45    1
   137    88    91    1
   138    58    64   am
   139    58    57    1
   140    56    47   am
   141    56    57    1
   142    98    99    2
   143    72    73    1
   144    73    76    1
   145    47    48    2
   146    57    60    1
   147    91    92    1
   148    92    93    1
   149    60    61    1
   150    76    77    1
   151    61    63   am
   152    61    62    2
   153    77    78    1
   154    93    94    1
   155    94    95    1
   156    78    80   ar
   157    78    79   ar
