@<TRIPOS>MOLECULE
tmp/3rwpA00.pdb
 168 157 0 0 0
SMALL
GASTEIGER

@<TRIPOS>ATOM
      1  N         34.5800   25.1810   35.6710 N.3    16  LEU16      -0.1231
      2  CA        34.3370   24.4460   34.4540 C.3    16  LEU16       0.1693
      3  C         35.6460   23.9680   33.8180 C.2    16  LEU16       0.2593
      4  O         35.7050   22.8870   33.2110 O.2    16  LEU16      -0.2718
      5  CB        33.5530   25.3870   33.5100 C.3    16  LEU16       0.0284
      6  CG        32.1230   25.6750   34.0230 C.3    16  LEU16       0.0019
      7  CD1       31.5570   26.7420   33.0640 C.3    16  LEU16       0.0001
      8  CD2       31.2920   24.4370   33.9750 C.3    16  LEU16       0.0001
      9  N         36.6900   24.7690   33.9160 N.am   17  GLY17      -0.1942
     10  CA        38.0180   24.2240   33.5960 C.3    17  GLY17       0.2014
     11  C         39.0490   25.2680   34.0030 C.2    17  GLY17       0.2639
     12  O         38.6710   26.4190   34.3950 O.2    17  GLY17      -0.2714
     13  N         40.3160   24.8820   33.8330 N.am   18  GLU18      -0.1963
     14  CA        41.4690   25.6300   34.2730 C.3    18  GLU18       0.1733
     15  C         42.4540   25.7180   33.1420 C.2    18  GLU18       0.2613
     16  O         42.7830   24.6990   32.5740 O.2    18  GLU18      -0.2715
     17  CB        42.1800   24.9260   35.4810 C.3    18  GLU18       0.0429
     18  CG        41.2900   24.9710   36.7120 C.3    18  GLU18       0.1163
     19  CD        41.8210   24.0980   37.8610 C.2    18  GLU18       0.3649
     20  OE1       42.8350   24.4610   38.4550 O.co2  18  GLU18      -0.2457
     21  OE2       41.2450   23.0520   38.1440 O.co2  18  GLU18      -0.2457
     22  N         42.9210   26.9020   32.8020 N.am   19  GLY19      -0.2012
     23  CA        44.0450   26.9150   31.8290 C.3    19  GLY19       0.1506
     24  C         45.2620   27.6010   32.4490 C.3    19  GLY19       0.2054
     25  O         45.3600   27.7650   33.7280 O.3    19  GLY19      -0.2184
     26  N         44.0170   31.4610   32.9680 N.3    22  SER22      -0.1202
     27  CA        42.6490   31.8430   33.2890 C.3    22  SER22       0.2020
     28  C         41.9590   30.6050   33.8630 C.2    22  SER22       0.2619
     29  O         42.4640   29.4770   33.7540 O.2    22  SER22      -0.2717
     30  CB        41.9460   32.2910   31.9710 C.3    22  SER22       0.2103
     31  OG        41.8460   31.1170   31.1380 O.3    22  SER22      -0.2182
     32  N         40.7860   30.8230   34.4470 N.am   23  THR23      -0.1938
     33  CA        39.9750   29.7600   34.9630 C.3    23  THR23       0.2028
     34  C         38.5900   30.1090   34.5990 C.2    23  THR23       0.2642
     35  O         38.1700   31.2640   34.8190 O.2    23  THR23      -0.2714
     36  CB        40.0070   29.7870   36.5070 C.3    23  THR23       0.1808
     37  OG1       41.3160   29.5430   36.9160 O.3    23  THR23      -0.2208
     38  CG2       39.1080   28.6450   37.1110 C.3    23  THR23       0.0379
     39  N         37.8500   29.1310   34.1110 N.am   24  VAL24      -0.1977
     40  CA        36.4550   29.3620   33.7560 C.3    24  VAL24       0.1596
     41  C         35.4770   28.7700   34.8350 C.2    24  VAL24       0.2287
     42  O         35.4940   27.5820   35.1380 O.2    24  VAL24      -0.2864
     43  CB        36.1390   28.7870   32.3720 C.3    24  VAL24       0.0276
     44  CG1       34.5960   29.0170   32.0620 C.3    24  VAL24       0.0022
     45  CG2       37.0440   29.5110   31.3210 C.3    24  VAL24       0.0022
     46  N         29.2630   31.4860   31.9050 N.3    37  ALA37      -0.1245
     47  CA        30.6190   30.9880   32.1320 C.3    37  ALA37       0.1562
     48  C         31.5270   32.2010   32.2890 C.2    37  ALA37       0.2260
     49  O         31.7440   32.9300   31.2950 O.2    37  ALA37      -0.2867
     50  CB        31.0450   30.0340   30.9540 C.3    37  ALA37       0.0290
     51  N         35.0930   33.7980   32.7190 N.3    39  LYS39      -0.1245
     52  CA        36.4880   33.4800   32.6120 C.3    39  LYS39       0.1561
     53  C         37.1620   34.4980   33.5020 C.2    39  LYS39       0.2260
     54  O         36.8940   35.7250   33.3930 O.2    39  LYS39      -0.2867
     55  CB        36.9530   33.6300   31.1320 C.3    39  LYS39       0.0271
     56  CG        38.4370   33.2340   31.0170 C.3    39  LYS39       0.0035
     57  CD        38.6330   33.0240   29.4850 C.3    39  LYS39       0.0206
     58  CE        39.9740   32.5510   29.1010 C.3    39  LYS39       0.1093
     59  NZ        40.0600   32.3350   27.6450 N.3    39  LYS39      -0.1314
     60  N         41.7050   39.0000   22.9930 N.3    58  GLU58      -0.1245
     61  CA        40.5730   38.1080   23.2710 C.3    58  GLU58       0.1567
     62  C         39.2870   38.8870   23.4450 C.2    58  GLU58       0.2260
     63  O         38.2230   38.5510   22.8880 O.2    58  GLU58      -0.2867
     64  CB        40.8400   37.3410   24.5630 C.3    58  GLU58       0.0388
     65  CG        39.7550   36.3250   24.8450 C.3    58  GLU58       0.1160
     66  CD        40.0960   35.4500   26.0400 C.2    58  GLU58       0.3649
     67  OE1       41.1540   35.6840   26.7150 O.co2  58  GLU58      -0.2457
     68  OE2       39.3180   34.5090   26.2880 O.co2  58  GLU58      -0.2457
     69  N         30.8950   31.4940   20.9380 N.3    71  VAL71      -0.1245
     70  CA        30.6090   31.9080   22.3540 C.3    71  VAL71       0.1561
     71  C         30.5050   33.4270   22.3620 C.2    71  VAL71       0.2260
     72  O         31.3040   34.1590   21.7450 O.2    71  VAL71      -0.2867
     73  CB        31.7120   31.3730   23.3560 C.3    71  VAL71       0.0252
     74  CG1       31.5330   32.0350   24.7580 C.3    71  VAL71       0.0019
     75  CG2       31.5630   29.8990   23.5250 C.3    71  VAL71       0.0019
     76  N         30.8280   35.1020   29.6880 N.3    87  LEU87      -0.1231
     77  CA        30.5690   34.3790   28.4410 C.3    87  LEU87       0.1693
     78  C         29.3000   33.5240   28.4570 C.2    87  LEU87       0.2593
     79  O         28.8320   33.0710   29.5020 O.2    87  LEU87      -0.2718
     80  CB        31.7450   33.4160   28.1400 C.3    87  LEU87       0.0284
     81  CG        33.1370   34.0240   28.2020 C.3    87  LEU87       0.0019
     82  CD1       34.2740   32.9570   28.0090 C.3    87  LEU87       0.0001
     83  CD2       33.3320   35.1000   27.1280 C.3    87  LEU87       0.0001
     84  N         28.8270   33.1310   27.2460 N.am   88  SER88      -0.1938
     85  CA        27.7610   32.1700   27.1260 C.3    88  SER88       0.2055
     86  C         28.1830   30.9330   27.8190 C.2    88  SER88       0.2643
     87  O         29.3030   30.5640   27.6860 O.2    88  SER88      -0.2714
     88  CB        27.6600   31.6090   25.6700 C.3    88  SER88       0.2130
     89  OG        27.4710   32.5850   24.7980 O.3    88  SER88      -0.2179
     90  N         27.2450   30.3000   28.5140 N.am   89  TYR89      -0.1959
     91  CA        27.4950   29.0420   29.1670 C.3    89  TYR89       0.1771
     92  C         27.1000   27.9330   28.1670 C.2    89  TYR89       0.2619
     93  O         25.9360   27.7130   27.9050 O.2    89  TYR89      -0.2715
     94  CB        26.6740   28.9570   30.4750 C.3    89  TYR89       0.0574
     95  CG        26.7680   27.5970   31.1720 C.ar   89  TYR89      -0.0198
     96  CD1       27.9500   26.8370   31.1480 C.ar   89  TYR89      -0.0009
     97  CD2       25.6240   27.0340   31.7660 C.ar   89  TYR89      -0.0009
     98  CE1       28.0160   25.6050   31.7810 C.ar   89  TYR89       0.0417
     99  CE2       25.6930   25.8010   32.3840 C.ar   89  TYR89       0.0417
    100  CZ        26.8900   25.1060   32.3870 C.ar   89  TYR89       0.1957
    101  OH        26.9180   23.9040   32.9880 O.3    89  TYR89      -0.2866
    102  N         28.0880   27.2970   27.5930 N.am   90  ALA90      -0.1977
    103  CA        27.8460   26.2290   26.6150 C.3    90  ALA90       0.1597
    104  C         27.6390   24.9700   27.4270 C.2    90  ALA90       0.2287
    105  O         28.6040   24.3160   27.8110 O.2    90  ALA90      -0.2864
    106  CB        29.0640   26.0690   25.6600 C.3    90  ALA90       0.0319
    107  N         29.5160   21.3750   26.9140 N.3    93  GLY93      -0.1210
    108  CA        30.9720   21.1330   27.0020 C.3    93  GLY93       0.1956
    109  C         31.6850   21.0150   25.6400 C.2    93  GLY93       0.2611
    110  O         31.1990   21.5530   24.6280 O.2    93  GLY93      -0.2717
    111  N         32.8480   20.3780   25.6370 N.am   94  GLU94      -0.1979
    112  CA        33.7190   20.3380   24.4320 C.3    94  GLU94       0.1602
    113  C         33.3170   19.2390   23.4420 C.2    94  GLU94       0.2287
    114  O         32.9540   18.1520   23.7930 O.2    94  GLU94      -0.2864
    115  CB        35.1710   19.9740   24.8280 C.3    94  GLU94       0.0415
    116  CG        35.7230   20.8680   25.9690 C.3    94  GLU94       0.1163
    117  CD        35.6500   20.2010   27.3620 C.2    94  GLU94       0.3649
    118  OE1       34.5500   19.5940   27.7130 O.co2  94  GLU94      -0.2457
    119  OE2       36.7170   20.3340   28.0950 O.co2  94  GLU94      -0.2457
    120  N         40.4860   23.6850   17.4740 N.3   135  LYS135     -0.1245
    121  CA        40.6000   22.2700   17.9000 C.3   135  LYS135      0.1561
    122  C         39.3370   21.8130   18.6320 C.2   135  LYS135      0.2260
    123  O         38.5550   22.6580   19.0800 O.2   135  LYS135     -0.2867
    124  CB        41.8840   22.0680   18.8410 C.3   135  LYS135      0.0271
    125  CG        41.7940   22.9440   20.0700 C.3   135  LYS135      0.0035
    126  CD        43.1980   23.0210   20.8600 C.3   135  LYS135      0.0206
    127  CE        43.1230   24.1150   21.9250 C.3   135  LYS135      0.1093
    128  NZ        44.4600   24.4570   22.5570 N.3   135  LYS135     -0.1314
    129  N         38.8220   20.8470   21.4590 N.3   137  GLU137     -0.1231
    130  CA        38.6680   21.3140   22.8760 C.3   137  GLU137      0.1699
    131  C         38.0830   22.7680   22.9720 C.2   137  GLU137      0.2592
    132  O         37.5710   23.1740   24.0130 O.2   137  GLU137     -0.2718
    133  CB        40.0280   21.3110   23.5960 C.3   137  GLU137      0.0402
    134  CG        39.7890   21.3350   25.0840 C.3   137  GLU137      0.1161
    135  CD        41.0200   21.0200   25.9700 C.2   137  GLU137      0.3649
    136  OE1       42.1100   20.7780   25.4260 O.co2 137  GLU137     -0.2457
    137  OE2       40.8350   21.0060   27.2240 O.co2 137  GLU137     -0.2457
    138  N         38.1770   23.5770   21.9060 N.am  138  ASN138     -0.1974
    139  CA        37.5540   24.8640   21.9900 C.3   138  ASN138      0.1688
    140  C         36.3840   25.0140   21.0310 C.2   138  ASN138      0.2292
    141  O         35.9350   26.1490   20.7900 O.2   138  ASN138     -0.2864
    142  CB        38.5410   26.0530   21.8980 C.3   138  ASN138      0.1181
    143  CG        39.4440   26.0020   20.6140 C.2   138  ASN138      0.2629
    144  OD1       39.0310   25.4480   19.6270 O.2   138  ASN138     -0.2716
    145  ND2       40.6590   26.5440   20.6690 N.am  138  ASN138     -0.0877
    146  N         32.7850   24.3320   21.4190 N.3   140  LEU140     -0.1245
    147  CA        31.9220   23.8250   22.5130 C.3   140  LEU140      0.1561
    148  C         30.5750   23.5090   21.9240 C.2   140  LEU140      0.2260
    149  O         30.3410   23.7610   20.7270 O.2   140  LEU140     -0.2867
    150  CB        31.7660   24.9190   23.5700 C.3   140  LEU140      0.0270
    151  CG        33.1450   25.4060   24.1060 C.3   140  LEU140      0.0019
    152  CD1       32.8950   26.4100   25.2430 C.3   140  LEU140      0.0001
    153  CD2       34.0110   24.2610   24.5950 C.3   140  LEU140      0.0001
    154  N         35.1620   29.0910   20.7990 N.3   150  THR150     -0.1203
    155  CA        35.6750   29.9810   21.8310 C.3   150  THR150      0.1994
    156  C         37.2180   30.0590   21.7570 C.2   150  THR150      0.2617
    157  O         37.8250   29.5130   20.7840 O.2   150  THR150     -0.2717
    158  CB        35.1630   29.5170   23.2690 C.3   150  THR150      0.1784
    159  OG1       35.4590   30.5420   24.2270 O.3   150  THR150     -0.2211
    160  CG2       35.7710   28.1440   23.7190 C.3   150  THR150      0.0376
    161  N         37.8270   30.7100   22.7560 N.am  151  ASP151     -0.1973
    162  CA        39.2790   30.7060   22.9830 C.3   151  ASP151      0.1709
    163  C         39.9670   31.5620   21.9400 C.2   151  ASP151      0.2293
    164  O         40.6680   31.0570   21.0630 O.2   151  ASP151     -0.2864
    165  CB        39.7440   29.2350   22.9730 C.3   151  ASP151      0.1436
    166  CG        41.2740   29.0460   23.3080 C.2   151  ASP151      0.3671
    167  OD1       41.9690   29.9540   23.8060 O.co2 151  ASP151     -0.2456
    168  OD2       41.7710   27.9800   22.9210 O.co2 151  ASP151     -0.2456
@<TRIPOS>BOND
     1   120   121    1
     2   121   122    1
     3   121   124    1
     4   122   123    2
     5   124   125    1
     6   144   143    2
     7   125   126    1
     8   143   145   am
     9   143   142    1
    10   149   148    2
    11   157   156    2
    12   141   140    2
    13   154   155    1
    14   126   127    1
    15    69    70    1
    16   140   139    1
    17   164   163    2
    18   146   147    1
    19   129   130    1
    20    72    71    2
    21   156   155    1
    22   156   161   am
    23   155   158    1
    24   142   139    1
    25   138   139    1
    26   138   131   am
    27   148   147    1
    28   127   128    1
    29   163   162    1
    30    70    71    1
    31    70    73    1
    32   147   150    1
    33   161   162    1
    34   130   131    1
    35   130   133    1
    36    63    62    2
    37   168   166   ar
    38   131   132    2
    39   165   162    1
    40   165   166    1
    41    60    61    1
    42   158   160    1
    43   158   159    1
    44    61    62    1
    45    61    64    1
    46   166   167   ar
    47    73    75    1
    48    73    74    1
    49   113   114    2
    50   113   112    1
    51   150   151    1
    52   133   134    1
    53   151   153    1
    54   151   152    1
    55   112   115    1
    56   112   111    1
    57    64    65    1
    58   110   109    2
    59    89    88    1
    60   115   116    1
    61    65    66    1
    62   134   135    1
    63   136   135   ar
    64   111   109   am
    65   109   108    1
    66   106   103    1
    67    88    85    1
    68   116   117    1
    69   135   137   ar
    70    66    68   ar
    71    66    67   ar
    72   103   104    1
    73   103   102    1
    74   107   108    1
    75    85    84    1
    76    85    86    1
    77    83    81    1
    78    84    78   am
    79   117   118   ar
    80   117   119   ar
    81   104   105    2
    82   102    92   am
    83    59    58    1
    84    87    86    2
    85    86    90   am
    86    93    92    2
    87    82    81    1
    88    80    81    1
    89    80    77    1
    90    92    91    1
    91    77    78    1
    92    77    76    1
    93    78    79    2
    94    90    91    1
    95    58    57    1
    96    91    94    1
    97    57    56    1
    98    94    95    1
    99    50    47    1
   100    56    55    1
   101    55    52    1
   102    31    30    1
   103    96    95   ar
   104    96    98   ar
   105    95    97   ar
   106    49    48    2
   107    45    43    1
   108    97    99   ar
   109    98   100   ar
   110    23    24    1
   111    23    22    1
   112    46    47    1
   113    30    27    1
   114    44    43    1
   115    47    48    1
   116    43    40    1
   117    99   100   ar
   118   100   101    1
   119    24    25    1
   120    16    15    2
   121    52    51    1
   122    52    53    1
   123    22    15   am
   124    26    27    1
   125     7     6    1
   126    15    14    1
   127     4     3    2
   128    27    28    1
   129    54    53    2
   130     5     6    1
   131     5     2    1
   132    10     9    1
   133    10    11    1
   134    29    28    2
   135    40    39    1
   136    40    41    1
   137     3     9   am
   138     3     2    1
   139    13    11   am
   140    13    14    1
   141    28    32   am
   142     8     6    1
   143    11    12    2
   144    39    34   am
   145    14    17    1
   146    32    33    1
   147     2     1    1
   148    34    35    2
   149    34    33    1
   150    41    42    2
   151    33    36    1
   152    17    18    1
   153    36    37    1
   154    36    38    1
   155    18    19    1
   156    19    21   ar
   157    19    20   ar
