@<TRIPOS>MOLECULE
tmp/3rwqA00.pdb
 161 149 0 0 0
SMALL
GASTEIGER

@<TRIPOS>ATOM
      1  N         34.9080  -25.4020  -19.6490 N.3    17  LEU17      -0.1231
      2  CA        34.6190  -24.6560  -18.4370 C.3    17  LEU17       0.1693
      3  C         35.9220  -24.1930  -17.8050 C.2    17  LEU17       0.2593
      4  O         35.9880  -23.1290  -17.1900 O.2    17  LEU17      -0.2718
      5  CB        33.8120  -25.5100  -17.4560 C.3    17  LEU17       0.0284
      6  CG        32.4200  -25.9470  -17.9060 C.3    17  LEU17       0.0019
      7  CD1       31.8780  -27.1160  -17.0380 C.3    17  LEU17       0.0001
      8  CD2       31.4650  -24.7460  -17.8850 C.3    17  LEU17       0.0001
      9  N         36.9590  -25.0060  -17.9570 N.am   18  GLY18      -0.1942
     10  CA        38.2670  -24.6560  -17.4780 C.3    18  GLY18       0.2014
     11  C         39.3250  -25.6200  -17.9670 C.2    18  GLY18       0.2639
     12  O         39.0390  -26.7450  -18.4180 O.2    18  GLY18      -0.2714
     13  N         40.5670  -25.1770  -17.8630 N.am   19  GLU19      -0.1963
     14  CA        41.6980  -25.9930  -18.2260 C.3    19  GLU19       0.1733
     15  C         42.6530  -26.1190  -17.0350 C.2    19  GLU19       0.2616
     16  O         42.8070  -25.1820  -16.2560 O.2    19  GLU19      -0.2715
     17  CB        42.3720  -25.3950  -19.4690 C.3    19  GLU19       0.0429
     18  CG        41.3420  -25.1230  -20.5590 C.3    19  GLU19       0.1163
     19  CD        41.9150  -24.8270  -21.9290 C.2    19  GLU19       0.3649
     20  OE1       41.5150  -23.7900  -22.5320 O.co2  19  GLU19      -0.2457
     21  OE2       42.7460  -25.6360  -22.4040 O.co2  19  GLU19      -0.2457
     22  N         43.2580  -27.2870  -16.8700 N.am   20  GLY20      -0.1955
     23  CA        44.3040  -27.4460  -15.8660 C.3    20  GLY20       0.1869
     24  C         45.5820  -27.9250  -16.5330 C.2    20  GLY20       0.2309
     25  O         45.6140  -28.1500  -17.7580 O.2    20  GLY20      -0.2863
     26  N         44.3590  -31.6710  -16.9950 N.3    23  SER23      -0.1217
     27  CA        42.9830  -31.9630  -17.4220 C.3    23  SER23       0.1889
     28  C         42.2470  -30.7660  -18.0220 C.2    23  SER23       0.2288
     29  O         42.7440  -29.6340  -17.9400 O.2    23  SER23      -0.2866
     30  CB        42.1720  -32.5770  -16.2750 C.3    23  SER23       0.2089
     31  OG        42.0620  -31.6970  -15.1690 O.3    23  SER23      -0.2183
     32  N         37.9880  -29.4190  -18.2760 N.3    25  VAL25      -0.1245
     33  CA        36.5740  -29.6540  -17.9350 C.3    25  VAL25       0.1561
     34  C         35.6410  -29.0690  -19.0250 C.2    25  VAL25       0.2260
     35  O         35.7760  -27.9120  -19.4280 O.2    25  VAL25      -0.2867
     36  CB        36.2080  -29.1050  -16.5220 C.3    25  VAL25       0.0252
     37  CG1       34.7490  -29.4100  -16.2070 C.3    25  VAL25       0.0019
     38  CG2       37.1380  -29.6940  -15.4300 C.3    25  VAL25       0.0019
     39  N         29.3730  -31.7500  -16.1780 N.3    38  ALA38      -0.1245
     40  CA        30.7130  -31.1970  -16.3470 C.3    38  ALA38       0.1562
     41  C         31.5920  -32.4270  -16.4640 C.2    38  ALA38       0.2260
     42  O         31.6390  -33.2440  -15.5240 O.2    38  ALA38      -0.2867
     43  CB        31.1260  -30.3640  -15.1290 C.3    38  ALA38       0.0290
     44  N         35.2250  -34.1320  -16.9130 N.3    40  LYS40      -0.1245
     45  CA        36.6260  -33.8510  -16.7760 C.3    40  LYS40       0.1561
     46  C         37.3820  -34.8350  -17.6510 C.2    40  LYS40       0.2260
     47  O         37.2300  -36.0670  -17.5020 O.2    40  LYS40      -0.2867
     48  CB        37.0460  -33.9200  -15.3170 C.3    40  LYS40       0.0271
     49  CG        38.5180  -33.7390  -15.1070 C.3    40  LYS40       0.0035
     50  CD        38.7410  -33.3850  -13.6800 C.3    40  LYS40       0.0206
     51  CE        40.1850  -33.5160  -13.2940 C.3    40  LYS40       0.1093
     52  NZ        40.3370  -32.9310  -11.9250 N.3    40  LYS40      -0.1314
     53  N         41.8580  -39.2700   -7.0440 N.3    59  GLU59      -0.1245
     54  CA        40.6850  -38.4610   -7.3760 C.3    59  GLU59       0.1567
     55  C         39.4340  -39.3100   -7.5460 C.2    59  GLU59       0.2260
     56  O         38.3960  -39.0260   -6.9380 O.2    59  GLU59      -0.2867
     57  CB        40.9060  -37.6640   -8.6510 C.3    59  GLU59       0.0388
     58  CG        39.7740  -36.7120   -8.9480 C.3    59  GLU59       0.1160
     59  CD        40.0960  -35.7360  -10.0570 C.2    59  GLU59       0.3649
     60  OE1       41.1970  -35.8280  -10.6470 O.co2  59  GLU59      -0.2457
     61  OE2       39.2520  -34.8560  -10.3250 O.co2  59  GLU59      -0.2457
     62  N         30.9250  -31.6570   -5.2280 N.3    72  VAL72      -0.1245
     63  CA        30.7700  -32.0750   -6.6220 C.3    72  VAL72       0.1561
     64  C         30.7080  -33.6070   -6.6540 C.2    72  VAL72       0.2260
     65  O         31.5070  -34.3030   -6.0130 O.2    72  VAL72      -0.2867
     66  CB        31.8740  -31.4470   -7.5700 C.3    72  VAL72       0.0252
     67  CG1       31.9220  -32.1510   -8.9440 C.3    72  VAL72       0.0019
     68  CG2       31.6280  -29.9230   -7.7800 C.3    72  VAL72       0.0019
     69  N         30.8510  -35.3760  -14.0400 N.3    88  LEU88      -0.1231
     70  CA        30.7860  -34.6600  -12.7720 C.3    88  LEU88       0.1693
     71  C         29.5490  -33.7990  -12.7150 C.2    88  LEU88       0.2593
     72  O         29.0650  -33.3030  -13.7430 O.2    88  LEU88      -0.2718
     73  CB        32.0340  -33.7900  -12.5660 C.3    88  LEU88       0.0284
     74  CG        33.3920  -34.4520  -12.3320 C.3    88  LEU88       0.0019
     75  CD1       34.4980  -33.3990  -12.2190 C.3    88  LEU88       0.0001
     76  CD2       33.3240  -35.2290  -11.0520 C.3    88  LEU88       0.0001
     77  N         29.0420  -33.5990  -11.5070 N.am   89  SER89      -0.1938
     78  CA        27.9060  -32.7140  -11.3400 C.3    89  SER89       0.2055
     79  C         28.2620  -31.3230  -11.9020 C.2    89  SER89       0.2643
     80  O         29.3480  -30.7990  -11.6350 O.2    89  SER89      -0.2714
     81  CB        27.4780  -32.6530   -9.8760 C.3    89  SER89       0.2130
     82  OG        27.7920  -31.3920   -9.3600 O.3    89  SER89      -0.2179
     83  N         27.3620  -30.7520  -12.7040 N.am   90  TYR90      -0.1959
     84  CA        27.5790  -29.4230  -13.2950 C.3    90  TYR90       0.1771
     85  C         27.1670  -28.2540  -12.3580 C.2    90  TYR90       0.2619
     86  O         25.9640  -27.9820  -12.1610 O.2    90  TYR90      -0.2715
     87  CB        26.9320  -29.3190  -14.6900 C.3    90  TYR90       0.0574
     88  CG        26.9260  -27.9100  -15.2700 C.ar   90  TYR90      -0.0198
     89  CD1       28.0870  -27.1230  -15.2430 C.ar   90  TYR90      -0.0009
     90  CD2       25.7560  -27.3580  -15.8330 C.ar   90  TYR90      -0.0009
     91  CE1       28.1000  -25.8500  -15.7620 C.ar   90  TYR90       0.0417
     92  CE2       25.7610  -26.0830  -16.3630 C.ar   90  TYR90       0.0417
     93  CZ        26.9510  -25.3320  -16.3330 C.ar   90  TYR90       0.1957
     94  OH        27.0080  -24.0450  -16.8600 O.3    90  TYR90      -0.2866
     95  N         28.1750  -27.5860  -11.7890 N.am   91  ALA91      -0.1977
     96  CA        27.9730  -26.4960  -10.8360 C.3    91  ALA91       0.1597
     97  C         27.7780  -25.1700  -11.5580 C.2    91  ALA91       0.2287
     98  O         28.7450  -24.4490  -11.8290 O.2    91  ALA91      -0.2864
     99  CB        29.1440  -26.4080   -9.8390 C.3    91  ALA91       0.0319
    100  N         29.5220  -21.4670  -10.9950 N.3    94  GLY94      -0.1210
    101  CA        30.9860  -21.3280  -11.0940 C.3    94  GLY94       0.1956
    102  C         31.7540  -21.1830   -9.7880 C.2    94  GLY94       0.2611
    103  O         31.2900  -21.6240   -8.7460 O.2    94  GLY94      -0.2717
    104  N         32.9270  -20.5560   -9.8530 N.am   95  GLU95      -0.1979
    105  CA        33.8450  -20.4570   -8.7220 C.3    95  GLU95       0.1602
    106  C         33.3750  -19.4220   -7.7060 C.2    95  GLU95       0.2287
    107  O         32.9350  -18.3470   -8.0670 O.2    95  GLU95      -0.2864
    108  CB        35.2670  -20.1010   -9.2110 C.3    95  GLU95       0.0415
    109  CG        35.7840  -20.9140  -10.4300 C.3    95  GLU95       0.1163
    110  CD        37.2100  -20.5540  -10.8680 C.2    95  GLU95       0.3649
    111  OE1       37.7040  -19.4820  -10.4580 O.co2  95  GLU95      -0.2457
    112  OE2       37.8590  -21.3390  -11.6200 O.co2  95  GLU95      -0.2457
    113  N         40.4810  -23.8300   -1.5120 N.3   136  LYS136     -0.1245
    114  CA        40.5470  -22.4120   -1.9310 C.3   136  LYS136      0.1561
    115  C         39.2810  -22.0570   -2.7650 C.2   136  LYS136      0.2260
    116  O         38.5970  -22.9570   -3.2570 O.2   136  LYS136     -0.2867
    117  CB        41.8420  -22.1470   -2.7410 C.3   136  LYS136      0.0271
    118  CG        41.7720  -22.7190   -4.1360 C.3   136  LYS136      0.0035
    119  CD        43.0920  -22.9420   -4.7670 C.3   136  LYS136      0.0206
    120  CE        42.9040  -23.7870   -6.0200 C.3   136  LYS136      0.1093
    121  NZ        44.1340  -23.8760   -6.8260 N.3   136  LYS136     -0.1314
    122  N         38.7540  -21.0930   -5.7530 N.3   138  GLU138     -0.1231
    123  CA        38.7410  -21.4860   -7.1530 C.3   138  GLU138      0.1699
    124  C         38.0880  -22.8720   -7.2830 C.2   138  GLU138      0.2592
    125  O         37.4890  -23.2150   -8.3140 O.2   138  GLU138     -0.2718
    126  CB        40.1680  -21.4720   -7.7390 C.3   138  GLU138      0.0402
    127  CG        40.2610  -21.7480   -9.2600 C.3   138  GLU138      0.1161
    128  CD        41.6470  -22.2420   -9.7610 C.2   138  GLU138      0.3649
    129  OE1       42.6420  -22.2760   -8.9880 O.co2 138  GLU138     -0.2457
    130  OE2       41.7350  -22.6090  -10.9610 O.co2 138  GLU138     -0.2457
    131  N         38.1870  -23.6660   -6.2300 N.am  139  ASN139     -0.1974
    132  CA        37.6390  -25.0030   -6.2720 C.3   139  ASN139      0.1688
    133  C         36.5040  -25.2700   -5.2480 C.2   139  ASN139      0.2292
    134  O         36.1400  -26.4300   -4.9990 O.2   139  ASN139     -0.2864
    135  CB        38.7650  -26.0500   -6.2280 C.3   139  ASN139      0.1181
    136  CG        39.5330  -26.0370   -4.9340 C.2   139  ASN139      0.2629
    137  OD1       39.0340  -25.5630   -3.9130 O.2   139  ASN139     -0.2716
    138  ND2       40.7630  -26.5740   -4.9620 N.am  139  ASN139     -0.0877
    139  N         32.8960  -24.4810   -5.5660 N.3   141  LEU141     -0.1245
    140  CA        32.0110  -24.0390   -6.6300 C.3   141  LEU141      0.1561
    141  C         30.5970  -23.7510   -6.1060 C.2   141  LEU141      0.2260
    142  O         30.3030  -24.0470   -4.9480 O.2   141  LEU141     -0.2867
    143  CB        31.9950  -25.0670   -7.7510 C.3   141  LEU141      0.0270
    144  CG        33.3620  -25.4990   -8.2680 C.3   141  LEU141      0.0019
    145  CD1       33.1060  -26.3910   -9.4210 C.3   141  LEU141      0.0001
    146  CD2       34.2500  -24.3570   -8.6960 C.3   141  LEU141      0.0001
    147  N         35.3530  -29.1980   -4.9410 N.3   151  THR151     -0.1203
    148  CA        35.8210  -30.0490   -6.0120 C.3   151  THR151      0.1994
    149  C         37.3480  -30.1300   -5.9970 C.2   151  THR151      0.2617
    150  O         37.9960  -29.6360   -5.0460 O.2   151  THR151     -0.2717
    151  CB        35.2520  -29.5660   -7.3630 C.3   151  THR151      0.1784
    152  OG1       35.3520  -30.6140   -8.3290 O.3   151  THR151     -0.2211
    153  CG2       35.9690  -28.3190   -7.8650 C.3   151  THR151      0.0376
    154  N         37.9160  -30.7630   -7.0300 N.am  152  ASP152     -0.1973
    155  CA        39.3680  -30.8790   -7.1980 C.3   152  ASP152      0.1709
    156  C         40.0300  -31.7810   -6.1520 C.2   152  ASP152      0.2293
    157  O         40.7790  -31.2710   -5.2890 O.2   152  ASP152     -0.2864
    158  CB        40.0080  -29.4910   -7.1490 C.3   152  ASP152      0.1436
    159  CG        41.4480  -29.4740   -7.6610 C.2   152  ASP152      0.3671
    160  OD1       42.1720  -28.5430   -7.2510 O.co2 152  ASP152     -0.2456
    161  OD2       41.8400  -30.3570   -8.4760 O.co2 152  ASP152     -0.2456
@<TRIPOS>BOND
     1    20    19   ar
     2    21    19   ar
     3    19    18    1
     4    18    17    1
     5     1     2    1
     6    17    14    1
     7    35    34    2
     8    34    33    1
     9     2     3    1
    10     2     5    1
    11    12    11    2
    12    32    33    1
    13    14    13    1
    14    14    15    1
    15    28    29    2
    16    28    27    1
    17    11    13   am
    18    11    10    1
    19     9     3   am
    20     9    10    1
    21    33    36    1
    22     6     8    1
    23     6     5    1
    24     6     7    1
    25     3     4    2
    26    25    24    2
    27    46    47    2
    28    46    45    1
    29    27    26    1
    30    27    30    1
    31    15    22   am
    32    15    16    2
    33    44    45    1
    34    22    23    1
    35    94    93    1
    36    45    48    1
    37    24    23    1
    38    36    37    1
    39    36    38    1
    40    41    40    1
    41    41    42    2
    42    92    93   ar
    43    92    90   ar
    44    40    39    1
    45    40    43    1
    46    93    91   ar
    47    30    31    1
    48    90    88   ar
    49    91    89   ar
    50    48    49    1
    51    88    89   ar
    52    88    87    1
    53    49    50    1
    54    87    84    1
    55    69    70    1
    56    72    71    2
    57    50    51    1
    58    84    83    1
    59    84    85    1
    60    51    52    1
    61    70    71    1
    62    70    73    1
    63    71    77   am
    64    83    79   am
    65    73    74    1
    66    85    86    2
    67    85    95   am
    68    74    75    1
    69    74    76    1
    70    79    80    2
    71    79    78    1
    72    98    97    2
    73    95    96    1
    74   112   110   ar
    75    97    96    1
    76    77    78    1
    77    78    81    1
    78   101   100    1
    79   101   102    1
    80   130   128   ar
    81   110   111   ar
    82   110   109    1
    83    96    99    1
    84    60    59   ar
    85   109   108    1
    86    61    59   ar
    87    59    58    1
    88    81    82    1
    89   104   102   am
    90   104   105    1
    91   102   103    2
    92   128   127    1
    93   128   129   ar
    94   145   144    1
    95   127   126    1
    96   108   105    1
    97    58    57    1
    98    67    66    1
    99   105   106    1
   100   146   144    1
   101    57    54    1
   102   161   159   ar
   103   152   151    1
   104   125   124    2
   105   144   143    1
   106   107   106    2
   107   153   151    1
   108    68    66    1
   109   143   140    1
   110   126   123    1
   111   159   160   ar
   112   159   158    1
   113    66    63    1
   114    55    54    1
   115    55    56    2
   116    54    53    1
   117   151   148    1
   118   124   123    1
   119   124   131   am
   120   155   158    1
   121   155   154    1
   122   155   156    1
   123   123   122    1
   124   154   149   am
   125   121   120    1
   126    64    63    1
   127    64    65    2
   128   140   141    1
   129   140   139    1
   130    63    62    1
   131   132   131    1
   132   132   135    1
   133   132   133    1
   134   135   136    1
   135   156   157    2
   136   141   142    2
   137   120   119    1
   138   148   149    1
   139   148   147    1
   140   149   150    2
   141   133   134    2
   142   138   136   am
   143   136   137    2
   144   119   118    1
   145   118   117    1
   146   116   115    2
   147   115   114    1
   148   117   114    1
   149   114   113    1
