@<TRIPOS>MOLECULE
tmp/3rx3A01.pdb
 156 156 0 0 0
SMALL
GASTEIGER

@<TRIPOS>ATOM
      1  N          1.3340    8.6490   16.2850 N.3    23  TRP23      -0.1241
      2  CA         0.1050    9.3040   16.7310 C.3    23  TRP23       0.1605
      3  C          0.4370   10.3180   17.8400 C.2    23  TRP23       0.2264
      4  O          1.0660    9.9690   18.8380 O.2    23  TRP23      -0.2867
      5  CB        -0.9260    8.2710   17.2190 C.3    23  TRP23       0.0550
      6  CG        -2.1730    8.9100   17.7930 C.ar   23  TRP23       0.0003
      7  CD1       -2.7960   10.0400   17.3400 C.ar   23  TRP23       0.0946
      8  CD2       -2.9150    8.4780   18.9440 C.ar   23  TRP23       0.0152
      9  NE1       -3.8910   10.3320   18.1290 N.ar   23  TRP23      -0.2442
     10  CE2       -3.9840    9.3880   19.1230 C.ar   23  TRP23       0.0810
     11  CE3       -2.7890    7.4040   19.8370 C.ar   23  TRP23       0.0012
     12  CZ2       -4.9130    9.2600   20.1600 C.ar   23  TRP23       0.0191
     13  CZ3       -3.7120    7.2800   20.8670 C.ar   23  TRP23       0.0001
     14  CH2       -4.7640    8.2050   21.0200 C.ar   23  TRP23       0.0015
     15  N         -5.0100   10.0140    9.4350 N.3    50  VAL50      -0.1231
     16  CA        -5.8090   10.7110   10.4470 C.3    50  VAL50       0.1692
     17  C         -4.9110   11.3920   11.4920 C.2    50  VAL50       0.2592
     18  O         -5.3550   12.2590   12.2350 O.2    50  VAL50      -0.2718
     19  CB        -6.8100    9.7560   11.1390 C.3    50  VAL50       0.0266
     20  CG1       -6.0680    8.7960   12.0810 C.3    50  VAL50       0.0020
     21  CG2       -7.8870   10.5520   11.8940 C.3    50  VAL50       0.0020
     22  N         -3.6390   11.0070   11.5330 N.am   51  TYR51      -0.1976
     23  CA        -2.6980   11.6340   12.4690 C.3    51  TYR51       0.1639
     24  C         -2.2820   13.0350   12.0080 C.2    51  TYR51       0.2290
     25  O         -1.7020   13.7960   12.7850 O.2    51  TYR51      -0.2864
     26  CB        -1.4510   10.7620   12.6760 C.3    51  TYR51       0.0560
     27  CG        -1.7260    9.3720   13.2300 C.ar   51  TYR51      -0.0198
     28  CD1       -2.9620    9.0440   13.7890 C.ar   51  TYR51      -0.0009
     29  CD2       -0.7410    8.3940   13.2020 C.ar   51  TYR51      -0.0009
     30  CE1       -3.2090    7.7650   14.2920 C.ar   51  TYR51       0.0417
     31  CE2       -0.9820    7.1120   13.6940 C.ar   51  TYR51       0.0417
     32  CZ        -2.2140    6.8040   14.2360 C.ar   51  TYR51       0.1957
     33  OH        -2.4370    5.5250   14.7210 O.3    51  TYR51      -0.2866
     34  N         -8.3930    5.7430    6.6570 N.3    82  TRP82      -0.1241
     35  CA        -9.3020    6.3190    7.6390 C.3    82  TRP82       0.1605
     36  C        -10.7690    5.9470    7.3620 C.2    82  TRP82       0.2264
     37  O        -11.1290    5.5620    6.2480 O.2    82  TRP82      -0.2867
     38  CB        -9.1070    7.8350    7.8190 C.3    82  TRP82       0.0550
     39  CG        -9.9820    8.3130    8.9470 C.ar   82  TRP82       0.0003
     40  CD1      -11.0380    9.1710    8.8640 C.ar   82  TRP82       0.0946
     41  CD2       -9.9460    7.8500   10.3090 C.ar   82  TRP82       0.0152
     42  NE1      -11.6330    9.3050   10.0920 N.ar   82  TRP82      -0.2442
     43  CE2      -10.9830    8.5050   10.9980 C.ar   82  TRP82       0.0810
     44  CE3       -9.1190    6.9640   11.0140 C.ar   82  TRP82       0.0012
     45  CZ2      -11.2150    8.3110   12.3650 C.ar   82  TRP82       0.0191
     46  CZ3       -9.3510    6.7720   12.3840 C.ar   82  TRP82       0.0001
     47  CH2      -10.3940    7.4410   13.0350 C.ar   82  TRP82       0.0015
     48  N         -8.1230    1.0840    9.2900 N.3   113  HIS113     -0.1226
     49  CA        -7.8110    1.6520   10.6130 C.3   113  HIS113      0.1752
     50  C         -8.7950    1.1860   11.6990 C.2   113  HIS113      0.2596
     51  O         -8.3920    0.8550   12.8200 O.2   113  HIS113     -0.2718
     52  CB        -7.7830    3.1870   10.5290 C.3   113  HIS113      0.0759
     53  CG        -6.9700    3.8570   11.6010 C.ar  113  HIS113      0.0818
     54  ND1       -6.2870    5.0350   11.3830 N.ar  113  HIS113     -0.2268
     55  CD2       -6.7510    3.5340   12.8990 C.ar  113  HIS113      0.1154
     56  CE1       -5.6760    5.4020   12.4940 C.ar  113  HIS113      0.1986
     57  NE2       -5.9440    4.5070   13.4320 N.ar  113  HIS113     -0.2212
     58  N        -10.0790    1.1810   11.3470 N.am  114  TRP114     -0.1976
     59  CA       -11.1690    0.7080   12.2090 C.3   114  TRP114      0.1640
     60  C        -12.1840   -0.0090   11.3180 C.2   114  TRP114      0.2290
     61  O        -12.3410    0.3490   10.1510 O.2   114  TRP114     -0.2864
     62  CB       -11.8670    1.8950   12.9060 C.3   114  TRP114      0.0576
     63  CG       -11.0250    2.5830   13.9590 C.ar  114  TRP114      0.0006
     64  CD1      -10.1470    3.6080   13.7680 C.ar  114  TRP114      0.0946
     65  CD2      -11.0010    2.2900   15.3650 C.ar  114  TRP114      0.0152
     66  NE1       -9.5710    3.9680   14.9640 N.ar  114  TRP114     -0.2442
     67  CE2      -10.0770    3.1710   15.9610 C.ar  114  TRP114      0.0810
     68  CE3      -11.6650    1.3560   16.1750 C.ar  114  TRP114      0.0012
     69  CZ2       -9.7980    3.1560   17.3330 C.ar  114  TRP114      0.0191
     70  CZ3      -11.3890    1.3420   17.5470 C.ar  114  TRP114      0.0001
     71  CH2      -10.4600    2.2330   18.1060 C.ar  114  TRP114      0.0015
     72  N        -14.6070   12.8310   11.7580 N.3   125  PHE125     -0.1241
     73  CA       -15.6600   12.2840   12.6050 C.3   125  PHE125      0.1605
     74  C        -16.9460   13.0690   12.3820 C.2   125  PHE125      0.2264
     75  O        -17.2670   13.9780   13.1440 O.2   125  PHE125     -0.2867
     76  CB       -15.2820   12.3510   14.0860 C.3   125  PHE125      0.0534
     77  CG       -14.3090   11.2870   14.5220 C.ar  125  PHE125     -0.0203
     78  CD1      -12.9360   11.4880   14.4020 C.ar  125  PHE125     -0.0042
     79  CD2      -14.7630   10.1030   15.0810 C.ar  125  PHE125     -0.0042
     80  CE1      -12.0370   10.5150   14.8180 C.ar  125  PHE125     -0.0003
     81  CE2      -13.8760    9.1250   15.4890 C.ar  125  PHE125     -0.0003
     82  CZ       -12.5120    9.3330   15.3660 C.ar  125  PHE125     -0.0000
     83  N        -20.5060   14.1450   12.6630 N.3   127  LEU127     -0.1245
     84  CA       -21.4840   13.9570   13.7210 C.3   127  LEU127      0.1561
     85  C        -22.8560   14.4510   13.2720 C.2   127  LEU127      0.2260
     86  O        -22.9700   15.3800   12.4580 O.2   127  LEU127     -0.2867
     87  CB       -21.0460   14.6980   14.9850 C.3   127  LEU127      0.0270
     88  CG       -19.6740   14.3220   15.5550 C.3   127  LEU127      0.0019
     89  CD1      -19.3630   15.1710   16.7850 C.3   127  LEU127      0.0001
     90  CD2      -19.6140   12.8460   15.9000 C.3   127  LEU127      0.0001
     91  N        -24.5610   14.5370   17.9550 N.3   131  GLY131     -0.1225
     92  CA       -23.2060   14.1890   18.3420 C.3   131  GLY131      0.1811
     93  C        -22.8260   12.7270   18.1630 C.2   131  GLY131      0.2280
     94  O        -21.7580   12.2980   18.6100 O.2   131  GLY131     -0.2866
     95  N         -8.0190   -2.8880   15.0730 N.3   163  ASN163     -0.1240
     96  CA        -9.1930   -2.7950   15.9340 C.3   163  ASN163      0.1653
     97  C        -10.3400   -3.7030   15.4780 C.2   163  ASN163      0.2266
     98  O        -11.4980   -3.4070   15.7440 O.2   163  ASN163     -0.2867
     99  CB        -9.6890   -1.3450   16.0090 C.3   163  ASN163      0.1155
    100  CG        -8.6100   -0.3810   16.4680 C.2   163  ASN163      0.2627
    101  OD1       -8.2500    0.5690   15.7550 O.2   163  ASN163     -0.2716
    102  ND2       -8.1110   -0.5990   17.6670 N.am  163  ASN163     -0.0877
    103  N         -0.3500   -1.8870   19.8750 N.3   212  TYR212     -0.1241
    104  CA        -0.2670   -0.4330   19.9670 C.3   212  TYR212      0.1605
    105  C         -0.5240    0.0810   21.3950 C.2   212  TYR212      0.2264
    106  O         -1.0460   -0.6520   22.2470 O.2   212  TYR212     -0.2867
    107  CB        -1.1440    0.2500   18.8960 C.3   212  TYR212      0.0534
    108  CG        -2.6370    0.3730   19.1180 C.ar  212  TYR212     -0.0201
    109  CD1       -3.1540    1.0190   20.2330 C.ar  212  TYR212     -0.0009
    110  CD2       -3.5280   -0.0720   18.1450 C.ar  212  TYR212     -0.0009
    111  CE1       -4.5360    1.1930   20.4040 C.ar  212  TYR212      0.0417
    112  CE2       -4.9120    0.0960   18.2920 C.ar  212  TYR212      0.0417
    113  CZ        -5.4040    0.7270   19.4200 C.ar  212  TYR212      0.1957
    114  OH        -6.7630    0.8780   19.5360 O.3   212  TYR212     -0.2866
    115  N         -7.4410   12.1850   26.4190 N.3   222  TRP222     -0.1241
    116  CA        -8.5380   12.0420   27.3770 C.3   222  TRP222      0.1605
    117  C         -8.1000   11.4610   28.7180 C.2   222  TRP222      0.2264
    118  O         -8.9380   11.0430   29.5150 O.2   222  TRP222     -0.2867
    119  CB        -9.6470   11.1700   26.7860 C.3   222  TRP222      0.0550
    120  CG        -9.1230    9.9420   26.1240 C.ar  222  TRP222      0.0003
    121  CD1       -8.8830    8.7220   26.7080 C.ar  222  TRP222      0.0946
    122  CD2       -8.7700    9.8040   24.7440 C.ar  222  TRP222      0.0152
    123  NE1       -8.3980    7.8360   25.7650 N.ar  222  TRP222     -0.2442
    124  CE2       -8.3240    8.4760   24.5520 C.ar  222  TRP222      0.0810
    125  CE3       -8.7920   10.6720   23.6470 C.ar  222  TRP222      0.0012
    126  CZ2       -7.9010    8.0040   23.3160 C.ar  222  TRP222      0.0191
    127  CZ3       -8.3710   10.1940   22.4120 C.ar  222  TRP222      0.0001
    128  CH2       -7.9310    8.8760   22.2610 C.ar  222  TRP222      0.0015
    129  N         -7.9600    3.3040   23.9550 N.3   301  CYS301     -0.1235
    130  CA        -8.6720    3.6740   22.7400 C.3   301  CYS301      0.1677
    131  C         -9.9600    2.8850   22.6310 C.2   301  CYS301      0.2270
    132  O         -9.9660    1.7790   22.0990 O.2   301  CYS301     -0.2867
    133  CB        -7.7900    3.3930   21.5200 C.3   301  CYS301      0.0956
    134  SG        -6.3300    4.4440   21.4490 S.3   301  CYS301     -0.0801
    135  N        -12.8740    4.3460   21.3590 N.3   303  LEU303     -0.1231
    136  CA       -13.6790    4.9670   20.3060 C.3   303  LEU303      0.1693
    137  C        -15.1200    5.2170   20.7810 C.2   303  LEU303      0.2592
    138  O        -16.0900    4.8080   20.1350 O.2   303  LEU303     -0.2718
    139  CB       -13.6660    4.1040   19.0430 C.3   303  LEU303      0.0284
    140  CG       -13.9820    4.8400   17.7390 C.3   303  LEU303      0.0019
    141  CD1      -12.8010    5.6890   17.2890 C.3   303  LEU303      0.0001
    142  CD2      -14.3740    3.8540   16.6620 C.3   303  LEU303      0.0001
    143  N        -15.2480    5.9010   21.9130 N.am  304  LEU304     -0.1966
    144  CA       -16.5340    6.0090   22.6020 C.3   304  LEU304      0.1728
    145  C        -17.6500    6.6770   21.7820 C.2   304  LEU304      0.2616
    146  O        -18.8310    6.4630   22.0510 O.2   304  LEU304     -0.2715
    147  CB       -16.3510    6.6840   23.9680 C.3   304  LEU304      0.0311
    148  CG       -15.5240    5.8580   24.9670 C.3   304  LEU304      0.0022
    149  CD1      -15.2590    6.6140   26.2590 C.3   304  LEU304      0.0001
    150  CD2      -16.1900    4.5180   25.2540 C.3   304  LEU304      0.0001
    151  N        -17.2750    7.4550   20.7700 N.am  305  SER305     -0.1950
    152  CA       -18.2500    8.1680   19.9370 C.3   305  SER305      0.1924
    153  C        -18.9800    7.2710   18.9480 C.2   305  SER305      0.2314
    154  O        -19.9000    7.7200   18.2630 O.2   305  SER305     -0.2863
    155  CB       -17.5530    9.2760   19.1520 C.3   305  SER305      0.2116
    156  OG       -16.7520   10.0550   20.0150 O.3   305  SER305     -0.2180
@<TRIPOS>BOND
     1    37    36    2
     2    34    35    1
     3    36    35    1
     4    35    38    1
     5    38    39    1
     6    40    39   ar
     7    40    42   ar
     8    39    41   ar
     9    48    49    1
    10    15    16    1
    11    42    43   ar
    12    61    60    2
    13    41    43   ar
    14    41    44   ar
    15    16    19    1
    16    16    17    1
    17    52    49    1
    18    52    53    1
    19    49    50    1
    20    43    45   ar
    21    44    46   ar
    22    19    21    1
    23    19    20    1
    24    60    59    1
    25    58    50   am
    26    58    59    1
    27    54    53   ar
    28    54    56   ar
    29    17    22   am
    30    17    18    2
    31    22    23    1
    32    53    55   ar
    33    50    51    2
    34    72    73    1
    35    24    23    1
    36    24    25    2
    37    59    62    1
    38    45    47   ar
    39    74    73    1
    40    74    75    2
    41    46    47   ar
    42    86    85    2
    43    23    26    1
    44    56    57   ar
    45    73    76    1
    46    83    84    1
    47    26    27    1
    48    55    57   ar
    49    62    63    1
    50    29    27   ar
    51    29    31   ar
    52    27    28   ar
    53    85    84    1
    54    31    32   ar
    55    84    87    1
    56    64    63   ar
    57    64    66   ar
    58    28    30   ar
    59    63    65   ar
    60    76    77    1
    61    32    30   ar
    62    32    33    1
    63    78    77   ar
    64    78    80   ar
    65    77    79   ar
    66    80    82   ar
    67    66    67   ar
    68    87    88    1
    69    95    96    1
    70    79    81   ar
    71    65    67   ar
    72    65    68   ar
    73    82    81   ar
    74    97    98    2
    75    97    96    1
    76    88    90    1
    77    88    89    1
    78   101   100    2
    79    96    99    1
    80    67    69   ar
    81    99   100    1
    82    68    70   ar
    83     1     2    1
    84   100   102   am
    85   142   140    1
    86     2     5    1
    87     2     3    1
    88     5     6    1
    89   141   140    1
    90    69    71   ar
    91     7     6   ar
    92     7     9   ar
    93    70    71   ar
    94   140   139    1
    95     6     8   ar
    96     3     4    2
    97    91    92    1
    98     9    10   ar
    99   110   112   ar
   100   110   108   ar
   101    93    92    1
   102    93    94    2
   103   154   153    2
   104   112   113   ar
   105   107   108    1
   106   107   104    1
   107     8    10   ar
   108     8    11   ar
   109   153   152    1
   110   139   136    1
   111   108   109   ar
   112    10    12   ar
   113   155   152    1
   114   155   156    1
   115   113   114    1
   116   113   111   ar
   117    11    13   ar
   118   103   104    1
   119   152   151    1
   120   104   105    1
   121   138   137    2
   122    12    14   ar
   123   109   111   ar
   124   136   137    1
   125   136   135    1
   126   151   145   am
   127   137   143   am
   128    13    14   ar
   129   105   106    2
   130   134   133    1
   131   133   130    1
   132   145   146    2
   133   145   144    1
   134   143   144    1
   135   132   131    2
   136   128   127   ar
   137   128   126   ar
   138   127   125   ar
   139   144   147    1
   140   131   130    1
   141   130   129    1
   142   126   124   ar
   143   125   122   ar
   144   147   148    1
   145   124   122   ar
   146   124   123   ar
   147   122   120   ar
   148   148   150    1
   149   148   149    1
   150   123   121   ar
   151   120   121   ar
   152   120   119    1
   153   115   116    1
   154   119   116    1
   155   116   117    1
   156   117   118    2
