@<TRIPOS>MOLECULE
tmp/3rx5A00.pdb
 179 178 0 0 0
SMALL
GASTEIGER

@<TRIPOS>ATOM
      1  N        -20.2120   28.9840  -22.6940 N.3   139  ASP139     -0.1225
      2  CA       -19.0120   29.3670  -21.9800 C.3   139  ASP139      0.1805
      3  C        -18.9680   30.8280  -21.5850 C.2   139  ASP139      0.2597
      4  O        -18.6010   31.1310  -20.4660 O.2   139  ASP139     -0.2718
      5  CB       -17.8120   29.0920  -22.8990 C.3   139  ASP139      0.1424
      6  CG       -16.4450   29.2370  -22.2710 C.2   139  ASP139      0.3668
      7  OD1      -16.1520   28.4750  -21.3270 O.co2 139  ASP139     -0.2456
      8  OD2      -15.5920   29.9730  -22.8600 O.co2 139  ASP139     -0.2456
      9  N        -19.3130   31.7340  -22.5000 N.am  140  ALA140     -0.1979
     10  CA       -19.0180   33.1410  -22.2880 C.3   140  ALA140      0.1597
     11  C        -19.8800   34.0600  -23.1640 C.2   140  ALA140      0.2287
     12  O        -21.1060   34.0290  -23.0560 O.2   140  ALA140     -0.2864
     13  CB       -17.5250   33.3390  -22.6270 C.3   140  ALA140      0.0319
     14  N        -19.6660   33.7690  -26.3680 N.3   142  ASP142     -0.1239
     15  CA       -19.9390   32.8550  -27.4860 C.3   142  ASP142      0.1674
     16  C        -20.7990   31.6710  -26.9810 C.2   142  ASP142      0.2266
     17  O        -21.0780   31.5720  -25.7960 O.2   142  ASP142     -0.2867
     18  CB       -18.6290   32.3590  -28.1020 C.3   142  ASP142      0.1410
     19  CG       -17.8770   31.3840  -27.2260 C.2   142  ASP142      0.3668
     20  OD1      -17.5620   31.7460  -26.0670 O.co2 142  ASP142     -0.2456
     21  OD2      -17.5930   30.2690  -27.6960 O.co2 142  ASP142     -0.2456
     22  N        -17.0470   24.2100  -23.4640 N.3   146  TYR146     -0.1241
     23  CA       -15.6820   23.7270  -23.3640 C.3   146  TYR146      0.1605
     24  C        -15.4680   23.0790  -22.0110 C.2   146  TYR146      0.2264
     25  O        -15.7160   23.6980  -20.9850 O.2   146  TYR146     -0.2867
     26  CB       -14.6930   24.8970  -23.5490 C.3   146  TYR146      0.0534
     27  CG       -14.9780   25.8270  -24.7120 C.ar  146  TYR146     -0.0201
     28  CD1      -15.9230   26.8410  -24.6040 C.ar  146  TYR146     -0.0009
     29  CD2      -14.2220   25.7680  -25.8720 C.ar  146  TYR146     -0.0009
     30  CE1      -16.1330   27.7500  -25.6430 C.ar  146  TYR146      0.0417
     31  CE2      -14.4420   26.6510  -26.9260 C.ar  146  TYR146      0.0417
     32  CZ       -15.3780   27.6570  -26.7990 C.ar  146  TYR146      0.1957
     33  OH       -15.5590   28.5300  -27.8360 O.3   146  TYR146     -0.2866
     34  N        -17.0080   31.0050  -34.8490 N.3   217  PHE217     -0.1241
     35  CA       -17.8020   31.9340  -34.0760 C.3   217  PHE217      0.1605
     36  C        -18.8390   32.5940  -34.9780 C.2   217  PHE217      0.2264
     37  O        -18.4870   33.0810  -36.0500 O.2   217  PHE217     -0.2867
     38  CB       -16.9430   33.0290  -33.4490 C.3   217  PHE217      0.0534
     39  CG       -15.9990   32.5520  -32.3840 C.ar  217  PHE217     -0.0203
     40  CD1      -16.4810   31.9800  -31.2080 C.ar  217  PHE217     -0.0042
     41  CD2      -14.6280   32.7130  -32.5300 C.ar  217  PHE217     -0.0042
     42  CE1      -15.6030   31.5690  -30.2050 C.ar  217  PHE217     -0.0003
     43  CE2      -13.7500   32.3290  -31.5130 C.ar  217  PHE217     -0.0003
     44  CZ       -14.2440   31.7640  -30.3550 C.ar  217  PHE217     -0.0000
     45  N        -12.8210   28.7920  -29.4510 N.3   294  GLY294     -0.1210
     46  CA       -11.8910   28.8360  -28.3220 C.3   294  GLY294      0.1956
     47  C        -11.0610   27.5800  -28.1850 C.2   294  GLY294      0.2612
     48  O        -11.6080   26.4910  -28.0680 O.2   294  GLY294     -0.2717
     49  N         -9.7360   27.7140  -28.2440 N.am  295  GLU295     -0.1965
     50  CA        -8.8920   26.5420  -28.1570 C.3   295  GLU295      0.1733
     51  C         -8.7440   25.9480  -26.7690 C.2   295  GLU295      0.2616
     52  O         -8.7040   24.7140  -26.6510 O.2   295  GLU295     -0.2715
     53  CB        -7.5290   26.8090  -28.7710 C.3   295  GLU295      0.0429
     54  CG        -6.7090   25.5560  -28.9860 C.3   295  GLU295      0.1163
     55  CD        -5.4420   25.8310  -29.7580 C.2   295  GLU295      0.3649
     56  OE1       -4.5390   26.4860  -29.1920 O.co2 295  GLU295     -0.2457
     57  OE2       -5.3800   25.4470  -30.9470 O.co2 295  GLU295     -0.2457
     58  N         -8.5740   26.8110  -25.7350 N.am  296  TYR296     -0.1974
     59  CA        -8.2940   26.3910  -24.3540 C.3   296  TYR296      0.1639
     60  C         -7.1550   25.3790  -24.3580 C.2   296  TYR296      0.2290
     61  O         -7.2800   24.2770  -23.8280 O.2   296  TYR296     -0.2864
     62  CB        -9.5430   25.8520  -23.6360 C.3   296  TYR296      0.0560
     63  CG       -10.5070   26.9490  -23.2640 C.ar  296  TYR296     -0.0198
     64  CD1      -10.2280   27.8230  -22.2090 C.ar  296  TYR296     -0.0009
     65  CD2      -11.7040   27.1130  -23.9530 C.ar  296  TYR296     -0.0009
     66  CE1      -11.1160   28.8280  -21.8560 C.ar  296  TYR296      0.0417
     67  CE2      -12.6040   28.1070  -23.6000 C.ar  296  TYR296      0.0417
     68  CZ       -12.3220   28.9420  -22.5340 C.ar  296  TYR296      0.1957
     69  OH       -13.1970   29.9460  -22.2260 O.3   296  TYR296     -0.2866
     70  N         -7.8400   29.0400  -15.4000 N.3   339  TRP339     -0.1241
     71  CA        -8.3790   27.8150  -16.0250 C.3   339  TRP339      0.1605
     72  C         -7.3060   26.8150  -16.4930 C.2   339  TRP339      0.2264
     73  O         -7.5770   25.6170  -16.5630 O.2   339  TRP339     -0.2867
     74  CB        -9.3020   28.1790  -17.2120 C.3   339  TRP339      0.0550
     75  CG        -8.6200   28.9440  -18.3090 C.ar  339  TRP339      0.0003
     76  CD1       -8.6070   30.3000  -18.4710 C.ar  339  TRP339      0.0946
     77  CD2       -7.8540   28.3980  -19.4110 C.ar  339  TRP339      0.0152
     78  NE1       -7.9040   30.6360  -19.6070 N.ar  339  TRP339     -0.2442
     79  CE2       -7.4690   29.4850  -20.2280 C.ar  339  TRP339      0.0810
     80  CE3       -7.5450   27.0840  -19.8410 C.ar  339  TRP339      0.0012
     81  CZ2       -6.6880   29.3140  -21.3880 C.ar  339  TRP339      0.0191
     82  CZ3       -6.7450   26.9190  -20.9750 C.ar  339  TRP339      0.0001
     83  CH2       -6.3020   28.0270  -21.7160 C.ar  339  TRP339      0.0015
     84  N         -3.8980   41.1070  -17.3160 N.3   396  ILE396     -0.1231
     85  CA        -3.9580   40.3400  -18.5660 C.3   396  ILE396      0.1692
     86  C         -5.4030   40.0160  -18.8910 C.2   396  ILE396      0.2592
     87  O         -6.3180   40.5010  -18.2130 O.2   396  ILE396     -0.2718
     88  CB        -3.0810   39.0440  -18.4340 C.3   396  ILE396      0.0266
     89  CG1       -3.5680   38.1430  -17.2410 C.3   396  ILE396      0.0019
     90  CG2       -1.5860   39.4260  -18.2920 C.3   396  ILE396      0.0020
     91  CD1       -3.0350   36.7050  -17.2030 C.3   396  ILE396      0.0001
     92  N         -5.6150   39.1860  -19.9110 N.am  397  TRP397     -0.1976
     93  CA        -6.9610   38.7580  -20.3100 C.3   397  TRP397      0.1640
     94  C         -7.5550   38.0290  -19.1050 C.2   397  TRP397      0.2290
     95  O         -6.9030   37.1350  -18.5510 O.2   397  TRP397     -0.2864
     96  CB        -6.8570   37.7850  -21.4880 C.3   397  TRP397      0.0576
     97  CG        -8.1370   37.6040  -22.2520 C.ar  397  TRP397      0.0006
     98  CD1       -9.3730   37.3220  -21.7470 C.ar  397  TRP397      0.0946
     99  CD2       -8.2620   37.5590  -23.6750 C.ar  397  TRP397      0.0152
    100  NE1      -10.2770   37.1660  -22.7730 N.ar  397  TRP397     -0.2442
    101  CE2       -9.6140   37.2750  -23.9690 C.ar  397  TRP397      0.0810
    102  CE3       -7.3400   37.6540  -24.7400 C.ar  397  TRP397      0.0012
    103  CZ2      -10.0780   37.1290  -25.2850 C.ar  397  TRP397      0.0191
    104  CZ3       -7.8120   37.5480  -26.0400 C.ar  397  TRP397      0.0001
    105  CH2       -9.1560   37.2580  -26.2980 C.ar  397  TRP397      0.0015
    106  N        -10.5450   37.7110  -13.0190 N.3   401  MET401     -0.1245
    107  CA       -10.4960   36.3220  -12.5380 C.3   401  MET401      0.1570
    108  C         -9.1650   36.1050  -11.8150 C.2   401  MET401      0.2261
    109  O         -9.1320   35.4180  -10.7870 O.2   401  MET401     -0.2867
    110  CB       -10.6120   35.3220  -13.6940 C.3   401  MET401      0.0387
    111  CG       -10.6150   33.8620  -13.2380 C.3   401  MET401      0.0595
    112  SD       -10.1150   32.7170  -14.5490 S.3   401  MET401     -0.1393
    113  CE        -8.4520   33.2930  -14.8740 C.3   401  MET401      0.0692
    114  N         -2.2780   43.8980  -22.6830 N.3   481  HIS481     -0.1241
    115  CA        -1.7500   43.3390  -23.9150 C.3   481  HIS481      0.1621
    116  C         -2.4500   43.7680  -25.1820 C.2   481  HIS481      0.2264
    117  O         -1.9680   43.4620  -26.2650 O.2   481  HIS481     -0.2867
    118  CB        -1.5410   41.8350  -23.7970 C.3   481  HIS481      0.0745
    119  CG        -0.5860   41.4750  -22.7060 C.ar  481  HIS481      0.0817
    120  ND1        0.7820   41.5490  -22.8930 N.ar  481  HIS481     -0.2268
    121  CD2       -0.8340   41.0400  -21.4530 C.ar  481  HIS481      0.1154
    122  CE1        1.3240   41.1570  -21.7510 C.ar  481  HIS481      0.1986
    123  NE2        0.3920   40.8150  -20.8600 N.ar  481  HIS481     -0.2212
    124  N         -5.3140   42.9610  -26.7150 N.3   483  GLN483     -0.1245
    125  CA        -5.5800   41.7820  -27.5220 C.3   483  GLN483      0.1566
    126  C         -6.8410   41.7630  -28.3900 C.2   483  GLN483      0.2260
    127  O         -7.3320   40.6910  -28.7390 O.2   483  GLN483     -0.2867
    128  CB        -5.3410   40.4930  -26.7230 C.3   483  GLN483      0.0367
    129  CG        -3.8800   40.3310  -26.2650 C.3   483  GLN483      0.0905
    130  CD        -3.6810   39.2590  -25.2270 C.2   483  GLN483      0.2608
    131  OE1       -4.3170   39.2570  -24.1660 O.2   483  GLN483     -0.2717
    132  NE2       -2.6880   38.4040  -25.4350 N.am  483  GLN483     -0.0878
    133  N        -15.3350   40.7480  -22.2850 N.3   511  GLU511     -0.1231
    134  CA       -16.1560   39.5430  -22.4230 C.3   511  GLU511      0.1699
    135  C        -16.5580   39.1150  -21.0130 C.2   511  GLU511      0.2592
    136  O        -16.0630   39.6560  -20.0280 O.2   511  GLU511     -0.2718
    137  CB       -15.3910   38.3930  -23.1260 C.3   511  GLU511      0.0402
    138  CG       -16.3410   37.3290  -23.6870 C.3   511  GLU511      0.1161
    139  CD       -15.8660   36.4410  -24.8250 C.2   511  GLU511      0.3649
    140  OE1      -14.6590   36.4590  -25.1630 O.co2 511  GLU511     -0.2457
    141  OE2      -16.7130   35.6950  -25.3640 O.co2 511  GLU511     -0.2457
    142  N        -17.4570   38.1460  -20.9190 N.am  512  VAL512     -0.1966
    143  CA       -17.9710   37.5630  -19.6750 C.3   512  VAL512      0.1727
    144  C        -17.6340   36.0650  -19.7910 C.2   512  VAL512      0.2616
    145  O        -17.3020   35.6200  -20.8880 O.2   512  VAL512     -0.2715
    146  CB       -19.5100   37.8110  -19.5350 C.3   512  VAL512      0.0290
    147  CG1      -19.8150   39.3050  -19.4230 C.3   512  VAL512      0.0023
    148  CG2      -20.2950   37.1800  -20.7070 C.3   512  VAL512      0.0023
    149  N        -17.6800   35.3050  -18.6940 N.am  513  ALA513     -0.1977
    150  CA       -17.3680   33.8610  -18.7440 C.3   513  ALA513      0.1597
    151  C        -17.8500   33.1970  -17.4790 C.2   513  ALA513      0.2287
    152  O        -17.7850   33.8010  -16.4010 O.2   513  ALA513     -0.2864
    153  CB       -15.8640   33.6320  -18.9110 C.3   513  ALA513      0.0319
    154  N        -16.4990   30.9260  -15.7680 N.3   515  TYR515     -0.1227
    155  CA       -15.3640   30.7490  -14.8550 C.3   515  TYR515      0.1736
    156  C        -14.7570   32.1060  -14.3740 C.2   515  TYR515      0.2595
    157  O        -13.7010   32.1060  -13.7430 O.2   515  TYR515     -0.2718
    158  CB       -14.2980   29.8220  -15.4730 C.3   515  TYR515      0.0548
    159  CG       -13.7810   30.3360  -16.8080 C.ar  515  TYR515     -0.0200
    160  CD1      -12.5770   31.0260  -16.8910 C.ar  515  TYR515     -0.0009
    161  CD2      -14.4750   30.0850  -17.9920 C.ar  515  TYR515     -0.0009
    162  CE1      -12.0820   31.4800  -18.1130 C.ar  515  TYR515      0.0417
    163  CE2      -13.9860   30.5300  -19.2260 C.ar  515  TYR515      0.0417
    164  CZ       -12.7890   31.2250  -19.2790 C.ar  515  TYR515      0.1957
    165  OH       -12.3150   31.6970  -20.4750 O.3   515  TYR515     -0.2866
    166  N        -15.4120   33.2360  -14.7020 N.am  516  TRP516     -0.1976
    167  CA       -15.1140   34.5730  -14.1870 C.3   516  TRP516      0.1640
    168  C        -16.1990   34.8970  -13.1470 C.2   516  TRP516      0.2290
    169  O        -15.9020   35.4860  -12.1100 O.2   516  TRP516     -0.2864
    170  CB       -15.0090   35.6300  -15.3000 C.3   516  TRP516      0.0576
    171  CG       -13.8350   35.4460  -16.2180 C.ar  516  TRP516      0.0006
    172  CD1      -12.7710   34.6070  -16.0430 C.ar  516  TRP516      0.0946
    173  CD2      -13.6490   36.0690  -17.4970 C.ar  516  TRP516      0.0152
    174  NE1      -11.9080   34.7050  -17.1120 N.ar  516  TRP516     -0.2442
    175  CE2      -12.4340   35.5780  -18.0290 C.ar  516  TRP516      0.0810
    176  CE3      -14.4050   36.9820  -18.2570 C.ar  516  TRP516      0.0012
    177  CZ2      -11.9440   35.9860  -19.2770 C.ar  516  TRP516      0.0191
    178  CZ3      -13.9440   37.3390  -19.5150 C.ar  516  TRP516      0.0001
    179  CH2      -12.7170   36.8580  -20.0040 C.ar  516  TRP516      0.0015
@<TRIPOS>BOND
     1    37    36    2
     2    36    35    1
     3    34    35    1
     4    35    38    1
     5    38    39    1
     6    41    39   ar
     7    41    43   ar
     8    39    40   ar
     9    43    44   ar
    10    40    42   ar
    11    57    55   ar
    12    44    42   ar
    13    55    56   ar
    14    55    54    1
    15    45    46    1
    16    54    53    1
    17    53    50    1
    18   127   126    2
    19   126   125    1
    20    46    47    1
    21    49    47   am
    22    49    50    1
    23    47    48    2
    24    50    51    1
    25    18    15    1
    26    18    19    1
    27    33    32    1
    28    21    19   ar
    29   125   128    1
    30   125   124    1
    31    15    16    1
    32    15    14    1
    33    19    20   ar
    34    16    17    2
    35    31    32   ar
    36    31    29   ar
    37    32    30   ar
    38    51    52    2
    39    51    58   am
    40   128   129    1
    41   105   104   ar
    42   105   103   ar
    43   129   130    1
    44   117   116    2
    45   104   102   ar
    46    29    27   ar
    47    58    59    1
    48    30    28   ar
    49   132   130   am
    50   141   139   ar
    51   103   101   ar
    52   130   131    2
    53   116   115    1
    54   140   139   ar
    55   139   138    1
    56   102    99   ar
    57    27    28   ar
    58    27    26    1
    59    60    59    1
    60    60    61    2
    61    59    62    1
    62   101    99   ar
    63   101   100   ar
    64    65    67   ar
    65    65    63   ar
    66   115   118    1
    67   115   114    1
    68   118   119    1
    69   138   137    1
    70    99    97   ar
    71    62    63    1
    72    67    68   ar
    73    26    23    1
    74    22    23    1
    75    23    24    1
    76    63    64   ar
    77    11    12    2
    78    11    10    1
    79   137   134    1
    80     5     6    1
    81     5     2    1
    82   120   119   ar
    83   120   122   ar
    84     8     6   ar
    85   100    98   ar
    86   119   121   ar
    87     1     2    1
    88    13    10    1
    89    68    69    1
    90    68    66   ar
    91     9    10    1
    92     9     3   am
    93   134   133    1
    94   134   135    1
    95     6     7   ar
    96    97    98   ar
    97    97    96    1
    98    64    66   ar
    99    24    25    2
   100     2     3    1
   101   122   123   ar
   102    83    81   ar
   103    83    82   ar
   104     3     4    2
   105    96    93    1
   106   121   123   ar
   107    81    79   ar
   108   135   142   am
   109   135   136    2
   110    82    80   ar
   111   142   143    1
   112   145   144    2
   113   148   146    1
   114   165   164    1
   115    93    92    1
   116    93    94    1
   117    79    78   ar
   118    79    77   ar
   119   179   178   ar
   120   179   177   ar
   121    92    86   am
   122    80    77   ar
   123   144   143    1
   124   144   149   am
   125   143   146    1
   126    78    76   ar
   127   146   147    1
   128   178   176   ar
   129    77    75   ar
   130   164   163   ar
   131   164   162   ar
   132   177   175   ar
   133   163   161   ar
   134    94    95    2
   135   153   150    1
   136    86    85    1
   137    86    87    2
   138   150   149    1
   139   150   151    1
   140    85    88    1
   141    85    84    1
   142    76    75   ar
   143    88    90    1
   144    88    89    1
   145    75    74    1
   146   176   173   ar
   147   162   160   ar
   148   175   173   ar
   149   175   174   ar
   150   161   159   ar
   151   173   171   ar
   152   151   152    2
   153    89    91    1
   154    74    71    1
   155   174   172   ar
   156   160   159   ar
   157   159   158    1
   158    73    72    2
   159    72    71    1
   160   171   172   ar
   161   171   170    1
   162    71    70    1
   163   154   155    1
   164   158   155    1
   165   170   167    1
   166   113   112    1
   167   155   156    1
   168   166   156   am
   169   166   167    1
   170   112   111    1
   171   156   157    2
   172   167   168    1
   173   110   111    1
   174   110   107    1
   175   168   169    2
   176   106   107    1
   177   107   108    1
   178   108   109    2
