@<TRIPOS>MOLECULE
tmp/3rx5A01.pdb
 109 107 0 0 0
SMALL
GASTEIGER

@<TRIPOS>ATOM
      1  N        -19.6660   33.7690  -26.3680 N.3   142  ASP142     -0.1239
      2  CA       -19.9390   32.8550  -27.4860 C.3   142  ASP142      0.1674
      3  C        -20.7990   31.6710  -26.9810 C.2   142  ASP142      0.2266
      4  O        -21.0780   31.5720  -25.7960 O.2   142  ASP142     -0.2867
      5  CB       -18.6290   32.3590  -28.1020 C.3   142  ASP142      0.1410
      6  CG       -17.8770   31.3840  -27.2260 C.2   142  ASP142      0.3668
      7  OD1      -17.5620   31.7460  -26.0670 O.co2 142  ASP142     -0.2456
      8  OD2      -17.5930   30.2690  -27.6960 O.co2 142  ASP142     -0.2456
      9  N        -17.0080   31.0050  -34.8490 N.3   217  PHE217     -0.1228
     10  CA       -17.8020   31.9340  -34.0760 C.3   217  PHE217      0.1721
     11  C        -18.8390   32.5940  -34.9780 C.2   217  PHE217      0.2437
     12  O        -18.4870   33.0810  -36.0500 O.2   217  PHE217     -0.2733
     13  CB       -16.9430   33.0290  -33.4490 C.3   217  PHE217      0.0547
     14  CG       -15.9990   32.5520  -32.3840 C.ar  217  PHE217     -0.0202
     15  CD1      -16.4810   31.9800  -31.2080 C.ar  217  PHE217     -0.0042
     16  CD2      -14.6280   32.7130  -32.5300 C.ar  217  PHE217     -0.0042
     17  CE1      -15.6030   31.5690  -30.2050 C.ar  217  PHE217     -0.0003
     18  CE2      -13.7500   32.3290  -31.5130 C.ar  217  PHE217     -0.0003
     19  CZ       -14.2440   31.7640  -30.3550 C.ar  217  PHE217     -0.0000
     20  N        -20.1080   32.6490  -34.5380 N.am  218  PRO218     -0.2718
     21  CA       -21.1270   33.3230  -35.3550 C.3   218  PRO218      0.1520
     22  C        -21.0140   34.8430  -35.1680 C.2   218  PRO218      0.2440
     23  O        -20.3130   35.2810  -34.2360 O.2   218  PRO218     -0.2731
     24  CB       -22.4320   32.7880  -34.7780 C.3   218  PRO218      0.0310
     25  CG       -22.1110   32.4780  -33.3320 C.3   218  PRO218      0.0237
     26  CD       -20.6670   32.1120  -33.2800 C.3   218  PRO218      0.0939
     27  N        -21.7140   35.6840  -35.9740 N.am  219  PRO219     -0.2716
     28  CA       -21.6310   37.1330  -35.7450 C.3   219  PRO219      0.1536
     29  C        -22.0350   37.4830  -34.3170 C.2   219  PRO219      0.2598
     30  O        -22.8300   36.7640  -33.7060 O.2   219  PRO219     -0.2715
     31  CB       -22.6240   37.7020  -36.7700 C.3   219  PRO219      0.0310
     32  CG       -22.6100   36.7070  -37.8730 C.3   219  PRO219      0.0237
     33  CD       -22.5660   35.3880  -37.1440 C.3   219  PRO219      0.0939
     34  N        -21.4760   38.5810  -33.7880 N.am  220  LEU220     -0.1978
     35  CA       -21.7550   39.0970  -32.4370 C.3   220  LEU220      0.1596
     36  C        -23.2470   39.3860  -32.2450 C.2   220  LEU220      0.2287
     37  O        -23.7760   39.2880  -31.1360 O.2   220  LEU220     -0.2864
     38  CB       -20.9080   40.3720  -32.1680 C.3   220  LEU220      0.0297
     39  CG       -20.8960   40.9250  -30.7400 C.3   220  LEU220      0.0022
     40  CD1      -20.5540   39.8340  -29.6980 C.3   220  LEU220      0.0001
     41  CD2      -19.9620   42.1320  -30.6310 C.3   220  LEU220      0.0001
     42  N        -12.8210   28.7920  -29.4510 N.3   294  GLY294     -0.1225
     43  CA       -11.8910   28.8360  -28.3220 C.3   294  GLY294      0.1811
     44  C        -11.0610   27.5800  -28.1850 C.2   294  GLY294      0.2280
     45  O        -11.6080   26.4910  -28.0680 O.2   294  GLY294     -0.2866
     46  N         -5.6150   39.1860  -19.9110 N.3   397  TRP397     -0.1241
     47  CA        -6.9610   38.7580  -20.3100 C.3   397  TRP397      0.1605
     48  C         -7.5550   38.0290  -19.1050 C.2   397  TRP397      0.2264
     49  O         -6.9030   37.1350  -18.5510 O.2   397  TRP397     -0.2867
     50  CB        -6.8570   37.7850  -21.4880 C.3   397  TRP397      0.0550
     51  CG        -8.1370   37.6040  -22.2520 C.ar  397  TRP397      0.0003
     52  CD1       -9.3730   37.3220  -21.7470 C.ar  397  TRP397      0.0946
     53  CD2       -8.2620   37.5590  -23.6750 C.ar  397  TRP397      0.0152
     54  NE1      -10.2770   37.1660  -22.7730 N.ar  397  TRP397     -0.2442
     55  CE2       -9.6140   37.2750  -23.9690 C.ar  397  TRP397      0.0810
     56  CE3       -7.3400   37.6540  -24.7400 C.ar  397  TRP397      0.0012
     57  CZ2      -10.0780   37.1290  -25.2850 C.ar  397  TRP397      0.0191
     58  CZ3       -7.8120   37.5480  -26.0400 C.ar  397  TRP397      0.0001
     59  CH2       -9.1560   37.2580  -26.2980 C.ar  397  TRP397      0.0015
     60  N        -19.0840   42.0720  -24.3370 N.3   457  HIS457     -0.1241
     61  CA       -18.9540   41.2170  -25.5120 C.3   457  HIS457      0.1621
     62  C        -19.7150   39.9340  -25.1140 C.2   457  HIS457      0.2264
     63  O        -19.1240   38.9940  -24.6040 O.2   457  HIS457     -0.2867
     64  CB       -17.4770   40.9410  -25.8310 C.3   457  HIS457      0.0745
     65  CG       -17.2710   40.1940  -27.1090 C.ar  457  HIS457      0.0817
     66  ND1      -17.1000   40.8570  -28.3150 N.ar  457  HIS457     -0.2268
     67  CD2      -17.2440   38.8560  -27.3360 C.ar  457  HIS457      0.1154
     68  CE1      -16.9410   39.9130  -29.2280 C.ar  457  HIS457      0.1986
     69  NE2      -17.0310   38.6900  -28.6930 N.ar  457  HIS457     -0.2212
     70  N        -23.0510   37.7450  -26.8220 N.3   459  ARG459     -0.1245
     71  CA       -24.0220   37.6160  -27.9140 C.3   459  ARG459      0.1563
     72  C        -25.4830   37.8230  -27.5150 C.2   459  ARG459      0.2260
     73  O        -26.0780   38.7230  -28.1160 O.2   459  ARG459     -0.2867
     74  CB       -23.7780   36.3780  -28.7950 C.3   459  ARG459      0.0307
     75  CG       -22.5700   36.5330  -29.7210 C.3   459  ARG459      0.0489
     76  CD       -22.1880   35.2350  -30.4400 C.3   459  ARG459      0.2205
     77  NE       -21.0260   35.4340  -31.3240 N.pl3 459  ARG459     -0.0865
     78  CZ       -19.7680   35.5410  -30.9120 C.cat 459  ARG459      0.5346
     79  NH1      -19.4790   35.5100  -29.6170 N.pl3 459  ARG459      0.1354
     80  NH2      -18.7930   35.7170  -31.7870 N.pl3 459  ARG459      0.1354
     81  N        -17.1340   45.2220  -28.7930 N.3   505  ASP505     -0.1239
     82  CA       -16.1620   44.5550  -29.6410 C.3   505  ASP505      0.1674
     83  C        -14.8770   44.2930  -28.8990 C.2   505  ASP505      0.2266
     84  O        -14.0170   43.5960  -29.4180 O.2   505  ASP505     -0.2867
     85  CB       -15.9230   45.3690  -30.9260 C.3   505  ASP505      0.1410
     86  CG       -17.1330   45.4030  -31.8530 C.2   505  ASP505      0.3668
     87  OD1      -17.7370   44.3250  -32.0850 O.co2 505  ASP505     -0.2456
     88  OD2      -17.4420   46.4940  -32.3830 O.co2 505  ASP505     -0.2456
     89  N        -13.4630   42.1120  -26.8860 N.3   507  TYR507     -0.1241
     90  CA       -13.5450   40.7860  -26.2540 C.3   507  TYR507      0.1605
     91  C        -12.3790   40.5000  -25.3080 C.2   507  TYR507      0.2264
     92  O        -12.5230   39.6520  -24.4330 O.2   507  TYR507     -0.2867
     93  CB       -13.6800   39.6770  -27.3080 C.3   507  TYR507      0.0534
     94  CG       -12.6670   39.7520  -28.4340 C.ar  507  TYR507     -0.0201
     95  CD1      -11.3880   39.2270  -28.2830 C.ar  507  TYR507     -0.0009
     96  CD2      -13.0000   40.3130  -29.6620 C.ar  507  TYR507     -0.0009
     97  CE1      -10.4630   39.2560  -29.3290 C.ar  507  TYR507      0.0417
     98  CE2      -12.0970   40.3230  -30.7240 C.ar  507  TYR507      0.0417
     99  CZ       -10.8270   39.7980  -30.5510 C.ar  507  TYR507      0.1957
    100  OH        -9.9230   39.8330  -31.5780 O.3   507  TYR507     -0.2866
    101  N        -15.3350   40.7480  -22.2850 N.3   511  GLU511     -0.1245
    102  CA       -16.1560   39.5430  -22.4230 C.3   511  GLU511      0.1567
    103  C        -16.5580   39.1150  -21.0130 C.2   511  GLU511      0.2260
    104  O        -16.0630   39.6560  -20.0280 O.2   511  GLU511     -0.2867
    105  CB       -15.3910   38.3930  -23.1260 C.3   511  GLU511      0.0388
    106  CG       -16.3410   37.3290  -23.6870 C.3   511  GLU511      0.1160
    107  CD       -15.8660   36.4410  -24.8250 C.2   511  GLU511      0.3649
    108  OE1      -14.6590   36.4590  -25.1630 O.co2 511  GLU511     -0.2457
    109  OE2      -16.7130   35.6950  -25.3640 O.co2 511  GLU511     -0.2457
@<TRIPOS>BOND
     1    32    33    1
     2    32    31    1
     3    33    27    1
     4    31    28    1
     5    12    11    2
     6    27    28    1
     7    27    22   am
     8    28    29    1
     9    21    22    1
    10    21    24    1
    11    21    20    1
    12    22    23    2
    13    11    20   am
    14    11    10    1
    15     9    10    1
    16    24    25    1
    17    20    26    1
    18    29    34   am
    19    29    30    2
    20    10    13    1
    21    34    35    1
    22    13    14    1
    23    25    26    1
    24    16    14   ar
    25    16    18   ar
    26    35    36    1
    27    35    38    1
    28    14    15   ar
    29    88    86   ar
    30    36    37    2
    31    38    39    1
    32    87    86   ar
    33    86    85    1
    34    80    78    1
    35   100    99    1
    36    18    19   ar
    37    77    78    2
    38    77    76    1
    39    15    17   ar
    40    85    82    1
    41    78    79    1
    42    39    41    1
    43    39    40    1
    44    98    99   ar
    45    98    96   ar
    46    99    97   ar
    47    76    75    1
    48    19    17   ar
    49    75    74    1
    50    96    94   ar
    51    82    83    1
    52    82    81    1
    53    42    43    1
    54    84    83    2
    55    97    95   ar
    56    68    69   ar
    57    68    66   ar
    58    74    71    1
    59    69    67   ar
    60    94    95   ar
    61    94    93    1
    62    43    44    1
    63    66    65   ar
    64    44    45    2
    65    73    72    2
    66     5     2    1
    67     5     6    1
    68    71    72    1
    69    71    70    1
    70     8     6   ar
    71     2     3    1
    72     2     1    1
    73    67    65   ar
    74    93    90    1
    75     6     7   ar
    76    65    64    1
    77     3     4    2
    78    89    90    1
    79    59    58   ar
    80    59    57   ar
    81    90    91    1
    82    58    56   ar
    83    64    61    1
    84    61    62    1
    85    61    60    1
    86   109   107   ar
    87    91    92    2
    88    57    55   ar
    89   108   107   ar
    90    62    63    2
    91   107   106    1
    92    56    53   ar
    93    55    53   ar
    94    55    54   ar
    95   106   105    1
    96    53    51   ar
    97   105   102    1
    98    54    52   ar
    99   102   101    1
   100   102   103    1
   101    51    52   ar
   102    51    50    1
   103    50    47    1
   104   103   104    2
   105    47    46    1
   106    47    48    1
   107    48    49    2
