@<TRIPOS>MOLECULE
tmp/3rx7A00.pdb
 187 185 0 0 0
SMALL
GASTEIGER

@<TRIPOS>ATOM
      1  N        -20.3430   28.8840  -22.6490 N.3   139  ASP139     -0.1225
      2  CA       -19.1240   29.2460  -21.9510 C.3   139  ASP139      0.1805
      3  C        -19.0150   30.7110  -21.5700 C.2   139  ASP139      0.2597
      4  O        -18.6850   31.0240  -20.4300 O.2   139  ASP139     -0.2718
      5  CB       -17.9490   28.8650  -22.8590 C.3   139  ASP139      0.1424
      6  CG       -16.5760   29.0770  -22.2730 C.2   139  ASP139      0.3668
      7  OD1      -16.2420   28.3730  -21.2890 O.co2 139  ASP139     -0.2456
      8  OD2      -15.7990   29.8880  -22.8570 O.co2 139  ASP139     -0.2456
      9  N        -19.2720   31.6010  -22.5130 N.am  140  ALA140     -0.1979
     10  CA       -18.9810   33.0020  -22.3370 C.3   140  ALA140      0.1597
     11  C        -19.9040   33.8730  -23.1880 C.2   140  ALA140      0.2287
     12  O        -21.1280   33.8060  -23.0340 O.2   140  ALA140     -0.2864
     13  CB       -17.5180   33.2080  -22.7590 C.3   140  ALA140      0.0319
     14  N        -19.7960   33.5230  -26.3850 N.3   142  ASP142     -0.1239
     15  CA       -20.0770   32.6020  -27.5000 C.3   142  ASP142      0.1674
     16  C        -20.9310   31.4210  -26.9730 C.2   142  ASP142      0.2266
     17  O        -21.2260   31.3590  -25.7750 O.2   142  ASP142     -0.2867
     18  CB       -18.7690   32.1090  -28.1530 C.3   142  ASP142      0.1410
     19  CG       -17.9980   31.1210  -27.2960 C.2   142  ASP142      0.3668
     20  OD1      -17.7190   31.4450  -26.1180 O.co2 142  ASP142     -0.2456
     21  OD2      -17.7360   30.0010  -27.7750 O.co2 142  ASP142     -0.2456
     22  N        -17.1830   24.1070  -23.4650 N.3   146  TYR146     -0.1241
     23  CA       -15.8170   23.5820  -23.3560 C.3   146  TYR146      0.1605
     24  C        -15.5690   22.9550  -22.0080 C.2   146  TYR146      0.2264
     25  O        -15.7460   23.6070  -20.9830 O.2   146  TYR146     -0.2867
     26  CB       -14.8030   24.7080  -23.5720 C.3   146  TYR146      0.0534
     27  CG       -15.0840   25.6290  -24.7360 C.ar  146  TYR146     -0.0201
     28  CD1      -16.0010   26.6700  -24.6210 C.ar  146  TYR146     -0.0009
     29  CD2      -14.3400   25.5480  -25.9070 C.ar  146  TYR146     -0.0009
     30  CE1      -16.2080   27.5750  -25.6620 C.ar  146  TYR146      0.0417
     31  CE2      -14.5340   26.4530  -26.9530 C.ar  146  TYR146      0.0417
     32  CZ       -15.4520   27.4760  -26.8170 C.ar  146  TYR146      0.1957
     33  OH       -15.6490   28.3610  -27.8460 O.3   146  TYR146     -0.2866
     34  N        -17.2650   30.8140  -34.8380 N.3   217  PHE217     -0.1241
     35  CA       -18.0840   31.7360  -34.0560 C.3   217  PHE217      0.1605
     36  C        -19.1540   32.3920  -34.9520 C.2   217  PHE217      0.2264
     37  O        -18.8230   32.8910  -36.0320 O.2   217  PHE217     -0.2867
     38  CB       -17.2390   32.8230  -33.3730 C.3   217  PHE217      0.0534
     39  CG       -16.2030   32.3510  -32.3760 C.ar  217  PHE217     -0.0203
     40  CD1      -16.5870   31.7750  -31.1640 C.ar  217  PHE217     -0.0042
     41  CD2      -14.8500   32.5770  -32.6000 C.ar  217  PHE217     -0.0042
     42  CE1      -15.6330   31.4030  -30.2120 C.ar  217  PHE217     -0.0003
     43  CE2      -13.8940   32.2240  -31.6380 C.ar  217  PHE217     -0.0003
     44  CZ       -14.2910   31.6350  -30.4480 C.ar  217  PHE217     -0.0000
     45  N        -12.8980   28.6550  -29.5200 N.3   294  GLY294     -0.1210
     46  CA       -11.9660   28.7140  -28.3940 C.3   294  GLY294      0.1956
     47  C        -11.1850   27.4410  -28.2190 C.2   294  GLY294      0.2612
     48  O        -11.7510   26.3490  -28.1330 O.2   294  GLY294     -0.2717
     49  N         -9.8760   27.5550  -28.2590 N.am  295  GLU295     -0.1965
     50  CA        -9.0620   26.3500  -28.1940 C.3   295  GLU295      0.1733
     51  C         -8.9300   25.7300  -26.7980 C.2   295  GLU295      0.2616
     52  O         -8.9000   24.4900  -26.6770 O.2   295  GLU295     -0.2715
     53  CB        -7.6870   26.6680  -28.7680 C.3   295  GLU295      0.0429
     54  CG        -6.8480   25.4360  -29.0050 C.3   295  GLU295      0.1163
     55  CD        -5.6030   25.7470  -29.8010 C.2   295  GLU295      0.3649
     56  OE1       -4.6760   26.3640  -29.2270 O.co2 295  GLU295     -0.2457
     57  OE2       -5.5760   25.4230  -31.0110 O.co2 295  GLU295     -0.2457
     58  N         -8.7460   26.5940  -25.7690 N.am  296  TYR296     -0.1974
     59  CA        -8.4590   26.1950  -24.3750 C.3   296  TYR296      0.1639
     60  C         -7.3130   25.1710  -24.3600 C.2   296  TYR296      0.2290
     61  O         -7.4180   24.0750  -23.7960 O.2   296  TYR296     -0.2864
     62  CB        -9.7060   25.7020  -23.6360 C.3   296  TYR296      0.0560
     63  CG       -10.6810   26.8140  -23.3220 C.ar  296  TYR296     -0.0198
     64  CD1      -10.4270   27.7210  -22.2940 C.ar  296  TYR296     -0.0009
     65  CD2      -11.8570   26.9640  -24.0530 C.ar  296  TYR296     -0.0009
     66  CE1      -11.3080   28.7640  -22.0190 C.ar  296  TYR296      0.0417
     67  CE2      -12.7600   27.9840  -23.7660 C.ar  296  TYR296      0.0417
     68  CZ       -12.5080   28.8460  -22.7080 C.ar  296  TYR296      0.1957
     69  OH       -13.3870   29.8650  -22.4410 O.3   296  TYR296     -0.2866
     70  N         -7.9220   28.9020  -15.4960 N.3   339  TRP339     -0.1241
     71  CA        -8.4530   27.6810  -16.1200 C.3   339  TRP339      0.1605
     72  C         -7.3580   26.6970  -16.6050 C.2   339  TRP339      0.2264
     73  O         -7.6190   25.5010  -16.6940 O.2   339  TRP339     -0.2867
     74  CB        -9.4390   28.0310  -17.2740 C.3   339  TRP339      0.0550
     75  CG        -8.8030   28.7780  -18.4160 C.ar  339  TRP339      0.0003
     76  CD1       -8.7890   30.1270  -18.5960 C.ar  339  TRP339      0.0946
     77  CD2       -8.0680   28.2160  -19.5200 C.ar  339  TRP339      0.0152
     78  NE1       -8.0850   30.4470  -19.7410 N.ar  339  TRP339     -0.2442
     79  CE2       -7.6370   29.2940  -20.3300 C.ar  339  TRP339      0.0810
     80  CE3       -7.6860   26.9060  -19.8810 C.ar  339  TRP339      0.0012
     81  CZ2       -6.8740   29.1030  -21.4970 C.ar  339  TRP339      0.0191
     82  CZ3       -6.9220   26.7190  -21.0320 C.ar  339  TRP339      0.0001
     83  CH2       -6.5160   27.8080  -21.8180 C.ar  339  TRP339      0.0015
     84  N          1.8460   43.6280  -14.4570 N.3   393  ASP393     -0.1239
     85  CA         1.9730   42.4740  -15.3520 C.3   393  ASP393      0.1674
     86  C          0.8570   41.4320  -15.2150 C.2   393  ASP393      0.2266
     87  O          0.7090   40.5970  -16.1020 O.2   393  ASP393     -0.2867
     88  CB         3.3660   41.8300  -15.2740 C.3   393  ASP393      0.1410
     89  CG         3.8430   41.3590  -13.9110 C.2   393  ASP393      0.3668
     90  OD1        5.0520   41.0540  -13.7790 O.co2 393  ASP393     -0.2456
     91  OD2        3.0100   41.2790  -12.9780 O.co2 393  ASP393     -0.2456
     92  N         -3.8480   40.9520  -17.4910 N.3   396  ILE396     -0.1231
     93  CA        -3.9220   40.1730  -18.7360 C.3   396  ILE396      0.1692
     94  C         -5.3980   39.8690  -19.0100 C.2   396  ILE396      0.2592
     95  O         -6.2660   40.2890  -18.2420 O.2   396  ILE396     -0.2718
     96  CB        -3.1310   38.8430  -18.5180 C.3   396  ILE396      0.0266
     97  CG1       -3.6890   38.0470  -17.2900 C.3   396  ILE396      0.0019
     98  CG2       -1.6270   39.1280  -18.3730 C.3   396  ILE396      0.0020
     99  CD1       -3.2310   36.5340  -17.1300 C.3   396  ILE396      0.0001
    100  N         -5.6670   39.0810  -20.0640 N.am  397  TRP397     -0.1976
    101  CA        -7.0060   38.6320  -20.4290 C.3   397  TRP397      0.1640
    102  C         -7.6110   37.9040  -19.2250 C.2   397  TRP397      0.2290
    103  O         -6.9840   36.9960  -18.6770 O.2   397  TRP397     -0.2864
    104  CB        -6.9050   37.6930  -21.6400 C.3   397  TRP397      0.0576
    105  CG        -8.1840   37.5050  -22.3960 C.ar  397  TRP397      0.0006
    106  CD1       -9.4150   37.2140  -21.8780 C.ar  397  TRP397      0.0946
    107  CD2       -8.3110   37.4010  -23.8210 C.ar  397  TRP397      0.0152
    108  NE1      -10.3190   37.0180  -22.8950 N.ar  397  TRP397     -0.2442
    109  CE2       -9.6610   37.0900  -24.1000 C.ar  397  TRP397      0.0810
    110  CE3       -7.3990   37.5120  -24.8940 C.ar  397  TRP397      0.0012
    111  CZ2      -10.1380   36.9330  -25.4100 C.ar  397  TRP397      0.0191
    112  CZ3       -7.8720   37.3660  -26.1910 C.ar  397  TRP397      0.0001
    113  CH2       -9.2180   37.0520  -26.4380 C.ar  397  TRP397      0.0015
    114  N        -10.5440   37.6140  -13.1230 N.3   401  MET401     -0.1245
    115  CA       -10.4700   36.2400  -12.6320 C.3   401  MET401      0.1570
    116  C         -9.1270   36.0200  -11.9500 C.2   401  MET401      0.2261
    117  O         -9.0800   35.3260  -10.9310 O.2   401  MET401     -0.2867
    118  CB       -10.6860   35.2210  -13.7520 C.3   401  MET401      0.0387
    119  CG       -10.6440   33.7330  -13.2850 C.3   401  MET401      0.0595
    120  SD       -10.0490   32.6220  -14.5890 S.3   401  MET401     -0.1393
    121  CE        -8.3290   33.2140  -14.7900 C.3   401  MET401      0.0692
    122  N         -2.3250   43.8480  -22.8260 N.3   481  HIS481     -0.1241
    123  CA        -1.7950   43.2700  -24.0540 C.3   481  HIS481      0.1621
    124  C         -2.5320   43.6670  -25.3020 C.2   481  HIS481      0.2264
    125  O         -2.0770   43.3480  -26.3970 O.2   481  HIS481     -0.2867
    126  CB        -1.5950   41.7640  -23.9020 C.3   481  HIS481      0.0745
    127  CG        -0.6030   41.4640  -22.8290 C.ar  481  HIS481      0.0817
    128  ND1        0.7560   41.5160  -23.0730 N.ar  481  HIS481     -0.2268
    129  CD2       -0.8020   41.1930  -21.5190 C.ar  481  HIS481      0.1154
    130  CE1        1.3380   41.2400  -21.9180 C.ar  481  HIS481      0.1986
    131  NE2        0.4410   41.0170  -20.9600 N.ar  481  HIS481     -0.2212
    132  N         -5.4480   42.8360  -26.8290 N.3   483  GLN483     -0.1245
    133  CA        -5.7050   41.6610  -27.6420 C.3   483  GLN483      0.1566
    134  C         -6.9490   41.6370  -28.5080 C.2   483  GLN483      0.2260
    135  O         -7.4190   40.5640  -28.8940 O.2   483  GLN483     -0.2867
    136  CB        -5.4640   40.3750  -26.8530 C.3   483  GLN483      0.0367
    137  CG        -3.9890   40.2060  -26.5070 C.3   483  GLN483      0.0905
    138  CD        -3.7510   39.1860  -25.4330 C.2   483  GLN483      0.2608
    139  OE1       -4.4620   39.1260  -24.4250 O.2   483  GLN483     -0.2717
    140  NE2       -2.6670   38.4320  -25.5760 N.am  483  GLN483     -0.0878
    141  N        -15.4880   40.6660  -22.3690 N.3   511  GLU511     -0.1231
    142  CA       -16.2920   39.4540  -22.5060 C.3   511  GLU511      0.1699
    143  C        -16.6620   38.9900  -21.0730 C.2   511  GLU511      0.2592
    144  O        -16.1770   39.5440  -20.0980 O.2   511  GLU511     -0.2718
    145  CB       -15.5160   38.3510  -23.2610 C.3   511  GLU511      0.0402
    146  CG       -16.4070   37.1800  -23.6900 C.3   511  GLU511      0.1161
    147  CD       -15.9730   36.3180  -24.8650 C.2   511  GLU511      0.3649
    148  OE1      -14.7900   36.3890  -25.2630 O.co2 511  GLU511     -0.2457
    149  OE2      -16.8070   35.5210  -25.3510 O.co2 511  GLU511     -0.2457
    150  N        -17.5060   37.9710  -20.9670 N.am  512  VAL512     -0.1966
    151  CA       -18.0120   37.3810  -19.7270 C.3   512  VAL512      0.1727
    152  C        -17.6740   35.8800  -19.8650 C.2   512  VAL512      0.2616
    153  O        -17.3410   35.4510  -20.9680 O.2   512  VAL512     -0.2715
    154  CB       -19.5590   37.6320  -19.5840 C.3   512  VAL512      0.0290
    155  CG1      -19.8770   39.1260  -19.5430 C.3   512  VAL512      0.0023
    156  CG2      -20.3570   36.9350  -20.6940 C.3   512  VAL512      0.0023
    157  N        -17.7290   35.1030  -18.7800 N.am  513  ALA513     -0.1977
    158  CA       -17.4160   33.6570  -18.8080 C.3   513  ALA513      0.1597
    159  C        -17.9580   33.0070  -17.5580 C.2   513  ALA513      0.2287
    160  O        -17.9650   33.6210  -16.4890 O.2   513  ALA513     -0.2864
    161  CB       -15.9060   33.4430  -18.8630 C.3   513  ALA513      0.0319
    162  N        -16.5030   30.7550  -15.8040 N.3   515  TYR515     -0.1227
    163  CA       -15.3560   30.6070  -14.8730 C.3   515  TYR515      0.1736
    164  C        -14.7540   31.9740  -14.4220 C.2   515  TYR515      0.2595
    165  O        -13.6570   32.0180  -13.8410 O.2   515  TYR515     -0.2718
    166  CB       -14.2730   29.6980  -15.4910 C.3   515  TYR515      0.0548
    167  CG       -13.7920   30.2000  -16.8440 C.ar  515  TYR515     -0.0200
    168  CD1      -12.6150   30.9260  -16.9600 C.ar  515  TYR515     -0.0009
    169  CD2      -14.5110   29.9290  -18.0090 C.ar  515  TYR515     -0.0009
    170  CE1      -12.1650   31.3870  -18.2010 C.ar  515  TYR515      0.0417
    171  CE2      -14.0650   30.3740  -19.2580 C.ar  515  TYR515      0.0417
    172  CZ       -12.8920   31.1070  -19.3470 C.ar  515  TYR515      0.1957
    173  OH       -12.4650   31.5910  -20.5590 O.3   515  TYR515     -0.2866
    174  N        -15.4460   33.0730  -14.7340 N.am  516  TRP516     -0.1976
    175  CA       -15.1320   34.3980  -14.2420 C.3   516  TRP516      0.1640
    176  C        -16.2020   34.7120  -13.2110 C.2   516  TRP516      0.2290
    177  O        -15.8990   35.3030  -12.1690 O.2   516  TRP516     -0.2864
    178  CB       -15.0730   35.4460  -15.3610 C.3   516  TRP516      0.0576
    179  CG       -13.8760   35.2980  -16.2600 C.ar  516  TRP516      0.0006
    180  CD1      -12.7940   34.4850  -16.0750 C.ar  516  TRP516      0.0946
    181  CD2      -13.7020   35.9110  -17.5320 C.ar  516  TRP516      0.0152
    182  NE1      -11.9620   34.5510  -17.1610 N.ar  516  TRP516     -0.2442
    183  CE2      -12.4800   35.4400  -18.0620 C.ar  516  TRP516      0.0810
    184  CE3      -14.4680   36.8100  -18.2900 C.ar  516  TRP516      0.0012
    185  CZ2      -11.9990   35.8490  -19.3140 C.ar  516  TRP516      0.0191
    186  CZ3      -14.0190   37.1620  -19.5520 C.ar  516  TRP516      0.0001
    187  CH2      -12.7730   36.7270  -20.0270 C.ar  516  TRP516      0.0015
@<TRIPOS>BOND
     1    37    36    2
     2    36    35    1
     3    34    35    1
     4    35    38    1
     5    38    39    1
     6    41    39   ar
     7    41    43   ar
     8    39    40   ar
     9    43    44   ar
    10    40    42   ar
    11    57    55   ar
    12    44    42   ar
    13    55    56   ar
    14    55    54    1
    15    45    46    1
    16    54    53    1
    17   135   134    2
    18    53    50    1
    19   134   133    1
    20    46    47    1
    21    49    47   am
    22    49    50    1
    23    47    48    2
    24    50    51    1
    25    18    15    1
    26    18    19    1
    27    33    32    1
    28    21    19   ar
    29   133   136    1
    30   133   132    1
    31    15    16    1
    32    15    14    1
    33    19    20   ar
    34    16    17    2
    35    31    32   ar
    36    31    29   ar
    37   136   137    1
    38    32    30   ar
    39    51    52    2
    40    51    58   am
    41   137   138    1
    42   113   112   ar
    43   113   111   ar
    44   125   124    2
    45   112   110   ar
    46    29    27   ar
    47    58    59    1
    48    30    28   ar
    49   140   138   am
    50   138   139    2
    51   111   109   ar
    52   149   147   ar
    53   124   123    1
    54   148   147   ar
    55   110   107   ar
    56   147   146    1
    57    27    28   ar
    58    27    26    1
    59    59    60    1
    60    59    62    1
    61    60    61    2
    62   109   107   ar
    63   109   108   ar
    64   123   126    1
    65   123   122    1
    66    65    67   ar
    67    65    63   ar
    68   126   127    1
    69   107   105   ar
    70    67    68   ar
    71   146   145    1
    72    62    63    1
    73    26    23    1
    74    22    23    1
    75    23    24    1
    76    63    64   ar
    77   145   142    1
    78    11    12    2
    79    11    10    1
    80   128   127   ar
    81   128   130   ar
    82   108   106   ar
    83     5     6    1
    84     5     2    1
    85     8     6   ar
    86   127   129   ar
    87    13    10    1
    88    68    69    1
    89    68    66   ar
    90     1     2    1
    91     9    10    1
    92     9     3   am
    93   142   141    1
    94   142   143    1
    95   105   106   ar
    96   105   104    1
    97    64    66   ar
    98     6     7   ar
    99    24    25    2
   100     2     3    1
   101   130   131   ar
   102    83    81   ar
   103    83    82   ar
   104   104   101    1
   105     3     4    2
   106   129   131   ar
   107    81    79   ar
   108   143   150   am
   109   143   144    2
   110    82    80   ar
   111   153   152    2
   112   150   151    1
   113   156   154    1
   114   173   172    1
   115   101   100    1
   116   101   102    1
   117    79    78   ar
   118    79    77   ar
   119   100    94   am
   120   187   186   ar
   121   187   185   ar
   122    80    77   ar
   123   152   151    1
   124   152   157   am
   125    78    76   ar
   126   151   154    1
   127   154   155    1
   128   186   184   ar
   129    77    75   ar
   130   172   171   ar
   131   172   170   ar
   132   185   183   ar
   133   171   169   ar
   134   102   103    2
   135    94    93    1
   136    94    95    2
   137   161   158    1
   138   158   157    1
   139   158   159    1
   140    93    96    1
   141    93    92    1
   142    76    75   ar
   143    96    98    1
   144    96    97    1
   145    75    74    1
   146   184   181   ar
   147   170   168   ar
   148   183   181   ar
   149   183   182   ar
   150   169   167   ar
   151   159   160    2
   152   181   179   ar
   153    97    99    1
   154    74    71    1
   155   182   180   ar
   156   168   167   ar
   157   167   166    1
   158    73    72    2
   159    72    71    1
   160   179   180   ar
   161   179   178    1
   162    71    70    1
   163    87    86    2
   164   162   163    1
   165   166   163    1
   166   178   175    1
   167    85    88    1
   168    85    86    1
   169    85    84    1
   170    88    89    1
   171   163   164    1
   172   121   120    1
   173   174   164   am
   174   174   175    1
   175   120   119    1
   176   164   165    2
   177   175   176    1
   178    89    90   ar
   179    89    91   ar
   180   118   119    1
   181   118   115    1
   182   176   177    2
   183   114   115    1
   184   115   116    1
   185   116   117    2
