@<TRIPOS>MOLECULE
tmp/3rx7A01.pdb
 109 107 0 0 0
SMALL
GASTEIGER

@<TRIPOS>ATOM
      1  N        -19.7960   33.5230  -26.3850 N.3   142  ASP142     -0.1239
      2  CA       -20.0770   32.6020  -27.5000 C.3   142  ASP142      0.1674
      3  C        -20.9310   31.4210  -26.9730 C.2   142  ASP142      0.2266
      4  O        -21.2260   31.3590  -25.7750 O.2   142  ASP142     -0.2867
      5  CB       -18.7690   32.1090  -28.1530 C.3   142  ASP142      0.1410
      6  CG       -17.9980   31.1210  -27.2960 C.2   142  ASP142      0.3668
      7  OD1      -17.7190   31.4450  -26.1180 O.co2 142  ASP142     -0.2456
      8  OD2      -17.7360   30.0010  -27.7750 O.co2 142  ASP142     -0.2456
      9  N        -17.2650   30.8140  -34.8380 N.3   217  PHE217     -0.1228
     10  CA       -18.0840   31.7360  -34.0560 C.3   217  PHE217      0.1721
     11  C        -19.1540   32.3920  -34.9520 C.2   217  PHE217      0.2437
     12  O        -18.8230   32.8910  -36.0320 O.2   217  PHE217     -0.2733
     13  CB       -17.2390   32.8230  -33.3730 C.3   217  PHE217      0.0547
     14  CG       -16.2030   32.3510  -32.3760 C.ar  217  PHE217     -0.0202
     15  CD1      -16.5870   31.7750  -31.1640 C.ar  217  PHE217     -0.0042
     16  CD2      -14.8500   32.5770  -32.6000 C.ar  217  PHE217     -0.0042
     17  CE1      -15.6330   31.4030  -30.2120 C.ar  217  PHE217     -0.0003
     18  CE2      -13.8940   32.2240  -31.6380 C.ar  217  PHE217     -0.0003
     19  CZ       -14.2910   31.6350  -30.4480 C.ar  217  PHE217     -0.0000
     20  N        -20.4340   32.4030  -34.5280 N.am  218  PRO218     -0.2718
     21  CA       -21.4550   33.0810  -35.3330 C.3   218  PRO218      0.1520
     22  C        -21.3140   34.6080  -35.1680 C.2   218  PRO218      0.2440
     23  O        -20.5620   35.0440  -34.2800 O.2   218  PRO218     -0.2731
     24  CB       -22.7670   32.5900  -34.7120 C.3   218  PRO218      0.0310
     25  CG       -22.4290   32.3160  -33.2820 C.3   218  PRO218      0.0237
     26  CD       -20.9890   31.8830  -33.2610 C.3   218  PRO218      0.0939
     27  N        -22.0550   35.4540  -35.9300 N.am  219  PRO219     -0.2716
     28  CA       -21.9590   36.9080  -35.6980 C.3   219  PRO219      0.1536
     29  C        -22.3540   37.2840  -34.2700 C.2   219  PRO219      0.2598
     30  O        -23.0930   36.5460  -33.6210 O.2   219  PRO219     -0.2715
     31  CB       -22.9550   37.4880  -36.7050 C.3   219  PRO219      0.0310
     32  CG       -23.0380   36.4640  -37.7730 C.3   219  PRO219      0.0237
     33  CD       -22.9820   35.1590  -37.0410 C.3   219  PRO219      0.0939
     34  N        -21.8410   38.4250  -33.7760 N.am  220  LEU220     -0.1978
     35  CA       -22.1170   38.9470  -32.4340 C.3   220  LEU220      0.1596
     36  C        -23.6170   39.1740  -32.2100 C.2   220  LEU220      0.2287
     37  O        -24.1100   39.0620  -31.0870 O.2   220  LEU220     -0.2864
     38  CB       -21.3080   40.2420  -32.2040 C.3   220  LEU220      0.0297
     39  CG       -21.0600   40.6630  -30.7490 C.3   220  LEU220      0.0022
     40  CD1      -20.5790   39.4670  -29.8650 C.3   220  LEU220      0.0001
     41  CD2      -20.0790   41.8220  -30.6920 C.3   220  LEU220      0.0001
     42  N        -12.8980   28.6550  -29.5200 N.3   294  GLY294     -0.1225
     43  CA       -11.9660   28.7140  -28.3940 C.3   294  GLY294      0.1811
     44  C        -11.1850   27.4410  -28.2190 C.2   294  GLY294      0.2280
     45  O        -11.7510   26.3490  -28.1330 O.2   294  GLY294     -0.2866
     46  N         -5.6670   39.0810  -20.0640 N.3   397  TRP397     -0.1241
     47  CA        -7.0060   38.6320  -20.4290 C.3   397  TRP397      0.1605
     48  C         -7.6110   37.9040  -19.2250 C.2   397  TRP397      0.2264
     49  O         -6.9840   36.9960  -18.6770 O.2   397  TRP397     -0.2867
     50  CB        -6.9050   37.6930  -21.6400 C.3   397  TRP397      0.0550
     51  CG        -8.1840   37.5050  -22.3960 C.ar  397  TRP397      0.0003
     52  CD1       -9.4150   37.2140  -21.8780 C.ar  397  TRP397      0.0946
     53  CD2       -8.3110   37.4010  -23.8210 C.ar  397  TRP397      0.0152
     54  NE1      -10.3190   37.0180  -22.8950 N.ar  397  TRP397     -0.2442
     55  CE2       -9.6610   37.0900  -24.1000 C.ar  397  TRP397      0.0810
     56  CE3       -7.3990   37.5120  -24.8940 C.ar  397  TRP397      0.0012
     57  CZ2      -10.1380   36.9330  -25.4100 C.ar  397  TRP397      0.0191
     58  CZ3       -7.8720   37.3660  -26.1910 C.ar  397  TRP397      0.0001
     59  CH2       -9.2180   37.0520  -26.4380 C.ar  397  TRP397      0.0015
     60  N        -19.2270   41.9330  -24.4260 N.3   457  HIS457     -0.1241
     61  CA       -19.0940   41.0590  -25.5800 C.3   457  HIS457      0.1621
     62  C        -19.8390   39.7610  -25.1680 C.2   457  HIS457      0.2264
     63  O        -19.2320   38.8360  -24.6270 O.2   457  HIS457     -0.2867
     64  CB       -17.6090   40.7820  -25.8780 C.3   457  HIS457      0.0745
     65  CG       -17.4060   39.9700  -27.1120 C.ar  457  HIS457      0.0817
     66  ND1      -17.2720   40.5680  -28.3440 N.ar  457  HIS457     -0.2268
     67  CD2      -17.3720   38.6220  -27.2690 C.ar  457  HIS457      0.1154
     68  CE1      -17.1090   39.5800  -29.2120 C.ar  457  HIS457      0.1986
     69  NE2      -17.1690   38.3880  -28.6130 N.ar  457  HIS457     -0.2212
     70  N        -23.2050   37.4460  -26.7940 N.3   459  ARG459     -0.1245
     71  CA       -24.1860   37.2720  -27.8670 C.3   459  ARG459      0.1563
     72  C        -25.6530   37.5030  -27.5020 C.2   459  ARG459      0.2260
     73  O        -26.2540   38.3570  -28.1540 O.2   459  ARG459     -0.2867
     74  CB       -23.9440   36.0200  -28.7130 C.3   459  ARG459      0.0307
     75  CG       -22.8730   36.2200  -29.7950 C.3   459  ARG459      0.0489
     76  CD       -22.3880   34.9050  -30.3980 C.3   459  ARG459      0.2205
     77  NE       -21.2250   35.0880  -31.2790 N.pl3 459  ARG459     -0.0865
     78  CZ       -19.9740   35.2650  -30.8600 C.cat 459  ARG459      0.5346
     79  NH1      -19.6980   35.3130  -29.5560 N.pl3 459  ARG459      0.1354
     80  NH2      -18.9930   35.4100  -31.7340 N.pl3 459  ARG459      0.1354
     81  N        -17.2660   45.0010  -28.8780 N.3   505  ASP505     -0.1239
     82  CA       -16.2730   44.3370  -29.7260 C.3   505  ASP505      0.1674
     83  C        -14.9920   44.0670  -28.9740 C.2   505  ASP505      0.2266
     84  O        -14.1040   43.4240  -29.5150 O.2   505  ASP505     -0.2867
     85  CB       -16.0260   45.1140  -31.0420 C.3   505  ASP505      0.1410
     86  CG       -17.2520   45.2380  -31.9270 C.2   505  ASP505      0.3668
     87  OD1      -18.0190   44.2530  -32.0240 O.co2 505  ASP505     -0.2456
     88  OD2      -17.4370   46.3180  -32.5350 O.co2 505  ASP505     -0.2456
     89  N        -13.6140   41.8450  -26.9500 N.3   507  TYR507     -0.1241
     90  CA       -13.6640   40.5020  -26.3540 C.3   507  TYR507      0.1605
     91  C        -12.5000   40.2670  -25.3820 C.2   507  TYR507      0.2264
     92  O        -12.6430   39.4800  -24.4500 O.2   507  TYR507     -0.2867
     93  CB       -13.7240   39.4010  -27.4230 C.3   507  TYR507      0.0534
     94  CG       -12.6960   39.5380  -28.5300 C.ar  507  TYR507     -0.0201
     95  CD1      -11.4120   39.0140  -28.3870 C.ar  507  TYR507     -0.0009
     96  CD2      -13.0250   40.1370  -29.7440 C.ar  507  TYR507     -0.0009
     97  CE1      -10.4740   39.1040  -29.4200 C.ar  507  TYR507      0.0417
     98  CE2      -12.1060   40.2180  -30.7860 C.ar  507  TYR507      0.0417
     99  CZ       -10.8310   39.7030  -30.6210 C.ar  507  TYR507      0.1957
    100  OH        -9.9300   39.8010  -31.6510 O.3   507  TYR507     -0.2866
    101  N        -15.4880   40.6660  -22.3690 N.3   511  GLU511     -0.1245
    102  CA       -16.2920   39.4540  -22.5060 C.3   511  GLU511      0.1567
    103  C        -16.6620   38.9900  -21.0730 C.2   511  GLU511      0.2260
    104  O        -16.1770   39.5440  -20.0980 O.2   511  GLU511     -0.2867
    105  CB       -15.5160   38.3510  -23.2610 C.3   511  GLU511      0.0388
    106  CG       -16.4070   37.1800  -23.6900 C.3   511  GLU511      0.1160
    107  CD       -15.9730   36.3180  -24.8650 C.2   511  GLU511      0.3649
    108  OE1      -14.7900   36.3890  -25.2630 O.co2 511  GLU511     -0.2457
    109  OE2      -16.8070   35.5210  -25.3510 O.co2 511  GLU511     -0.2457
@<TRIPOS>BOND
     1    32    33    1
     2    32    31    1
     3    33    27    1
     4    31    28    1
     5    12    11    2
     6    27    28    1
     7    27    22   am
     8    28    29    1
     9    21    22    1
    10    21    24    1
    11    21    20    1
    12    22    23    2
    13    11    20   am
    14    11    10    1
    15     9    10    1
    16    24    25    1
    17    20    26    1
    18    29    34   am
    19    29    30    2
    20    10    13    1
    21    34    35    1
    22    13    14    1
    23    25    26    1
    24    16    14   ar
    25    16    18   ar
    26    88    86   ar
    27    35    36    1
    28    35    38    1
    29    14    15   ar
    30    36    37    2
    31    38    39    1
    32    87    86   ar
    33    86    85    1
    34    80    78    1
    35   100    99    1
    36    18    19   ar
    37    77    78    2
    38    77    76    1
    39    15    17   ar
    40    85    82    1
    41    78    79    1
    42    98    99   ar
    43    98    96   ar
    44    39    41    1
    45    39    40    1
    46    99    97   ar
    47    19    17   ar
    48    76    75    1
    49    75    74    1
    50    96    94   ar
    51    82    83    1
    52    82    81    1
    53    42    43    1
    54    84    83    2
    55    97    95   ar
    56    68    69   ar
    57    68    66   ar
    58    74    71    1
    59    69    67   ar
    60    94    95   ar
    61    94    93    1
    62    43    44    1
    63    66    65   ar
    64    44    45    2
    65    73    72    2
    66     5     2    1
    67     5     6    1
    68    71    72    1
    69    71    70    1
    70     8     6   ar
    71     2     3    1
    72     2     1    1
    73    93    90    1
    74     6     7   ar
    75    67    65   ar
    76    65    64    1
    77     3     4    2
    78    89    90    1
    79    59    58   ar
    80    59    57   ar
    81    90    91    1
    82    58    56   ar
    83    64    61    1
    84    61    62    1
    85    61    60    1
    86    57    55   ar
    87    91    92    2
    88   109   107   ar
    89   108   107   ar
    90    62    63    2
    91    56    53   ar
    92   107   106    1
    93    55    53   ar
    94    55    54   ar
    95    53    51   ar
    96   106   105    1
    97   105   102    1
    98    54    52   ar
    99   102   101    1
   100   102   103    1
   101    51    52   ar
   102    51    50    1
   103    50    47    1
   104   103   104    2
   105    47    46    1
   106    47    48    1
   107    48    49    2
