@<TRIPOS>MOLECULE
tmp/3rxbA00.pdb
 110 109 0 0 0
SMALL
GASTEIGER

@<TRIPOS>ATOM
      1  N          7.2020  -16.8130    8.6550 N.3    40  HIS40      -0.1241
      2  CA         6.2160  -17.8980    8.6540 C.3    40  HIS40       0.1621
      3  C          5.1480  -17.7140    7.5610 C.2    40  HIS40       0.2264
      4  O          4.3720  -18.6330    7.3020 O.2    40  HIS40      -0.2867
      5  CB         5.6090  -18.1310   10.0550 C.3    40  HIS40       0.0745
      6  CG         4.4960  -17.1990   10.4250 C.ar   40  HIS40       0.0817
      7  ND1        4.6820  -16.1030   11.2430 N.ar   40  HIS40      -0.2268
      8  CD2        3.1720  -17.2330   10.1380 C.ar   40  HIS40       0.1154
      9  CE1        3.5280  -15.4850   11.4160 C.ar   40  HIS40       0.1986
     10  NE2        2.5940  -16.1540   10.7620 N.ar   40  HIS40      -0.2212
     11  N         -6.9430   -8.3710   20.4160 N.3   171  ASP171     -0.1225
     12  CA        -5.7260   -9.0520   19.9690 C.3   171  ASP171      0.1805
     13  C         -5.6810   -9.1330   18.4440 C.2   171  ASP171      0.2598
     14  O         -6.6820   -8.8950   17.7670 O.2   171  ASP171     -0.2718
     15  CB        -5.7170  -10.4740   20.5540 C.3   171  ASP171      0.1424
     16  CG        -4.3200  -11.0890   20.6700 C.2   171  ASP171      0.3668
     17  OD1       -3.3180  -10.5060   20.2090 O.co2 171  ASP171     -0.2456
     18  OD2       -4.2430  -12.1990   21.2400 O.co2 171  ASP171     -0.2456
     19  N         -4.5120   -9.4720   17.9110 N.am  172  SER172     -0.1938
     20  CA        -4.4120   -9.9370   16.5300 C.3   172  SER172      0.2055
     21  C         -4.8160  -11.4120   16.5070 C.2   172  SER172      0.2643
     22  O         -5.0180  -12.0280   17.5600 O.2   172  SER172     -0.2714
     23  CB        -3.0010   -9.7350   15.9690 C.3   172  SER172      0.2130
     24  OG        -2.0230  -10.3570   16.7800 O.3   172  SER172     -0.2179
     25  N         -4.9570  -11.9780   15.3130 N.am  173  CYS173     -0.1953
     26  CA        -5.4430  -13.3500   15.1880 C.3   173  CYS173      0.1843
     27  C         -5.0110  -13.9840   13.8620 C.2   173  CYS173      0.2625
     28  O         -4.2400  -13.3880   13.1100 O.2   173  CYS173     -0.2714
     29  CB        -6.9670  -13.3620   15.3530 C.3   173  CYS173      0.0997
     30  SG        -7.6830  -14.9230   15.9180 S.3   173  CYS173     -0.0797
     31  N         -5.4860  -15.2030   13.5990 N.am  174  GLN174     -0.1963
     32  CA        -5.1200  -15.9310   12.3840 C.3   174  GLN174      0.1733
     33  C         -5.4450  -15.0960   11.1550 C.2   174  GLN174      0.2616
     34  O         -6.5410  -14.5540   11.0580 O.2   174  GLN174     -0.2715
     35  CB        -5.8720  -17.2650   12.2800 C.3   174  GLN174      0.0408
     36  CG        -5.7090  -18.2090   13.4740 C.3   174  GLN174      0.0908
     37  CD        -6.8670  -18.1510   14.4600 C.2   174  GLN174      0.2608
     38  OE1       -8.0290  -17.9860   14.0710 O.2   174  GLN174     -0.2717
     39  NE2       -6.5570  -18.3000   15.7450 N.am  174  GLN174     -0.0878
     40  N         -4.5020  -15.0090   10.2190 N.am  175  GLY175     -0.1955
     41  CA        -4.6910  -14.2050    9.0120 C.3   175  GLY175      0.1869
     42  C         -4.1270  -12.8000    9.1220 C.2   175  GLY175      0.2309
     43  O         -3.9710  -12.1250    8.1100 O.2   175  GLY175     -0.2863
     44  N         -1.1680  -12.4980   10.4460 N.3   177  SER177     -0.1217
     45  CA         0.2480  -12.8530   10.2990 C.3   177  SER177      0.1889
     46  C          0.9800  -11.9780    9.2990 C.2   177  SER177      0.2288
     47  O          0.4840  -11.7540    8.1940 O.2   177  SER177     -0.2866
     48  CB         0.3690  -14.2970    9.8080 C.3   177  SER177      0.2089
     49  OG         0.0470  -15.2200   10.8230 O.3   177  SER177     -0.2183
     50  N          3.2440   -9.0520   13.0770 N.3   191  VAL191     -0.1231
     51  CA         2.3620  -10.0600   13.6820 C.3   191  VAL191      0.1692
     52  C          2.9960  -11.4390   13.5220 C.2   191  VAL191      0.2593
     53  O          3.1720  -11.9150   12.4020 O.2   191  VAL191     -0.2718
     54  CB         0.9570  -10.0540   13.0460 C.3   191  VAL191      0.0266
     55  CG1        0.0660  -11.1170   13.6920 C.3   191  VAL191      0.0020
     56  CG2        0.3210   -8.6720   13.1670 C.3   191  VAL191      0.0020
     57  N          3.3450  -12.0740   14.6410 N.am  192  SER192     -0.1938
     58  CA         4.1470  -13.3040   14.5970 C.3   192  SER192      0.2055
     59  C          3.4120  -14.5240   15.1610 C.2   192  SER192      0.2643
     60  O          3.1510  -15.4780   14.4360 O.2   192  SER192     -0.2714
     61  CB         5.4830  -13.0910   15.3150 C.3   192  SER192      0.2130
     62  OG         6.3290  -14.2160   15.1820 O.3   192  SER192     -0.2179
     63  N          3.0920  -14.5170   16.4480 N.am  193  TRP193     -0.1959
     64  CA         2.4260  -15.6700   17.0420 C.3   193  TRP193      0.1771
     65  C          1.6880  -15.3470   18.3350 C.2   193  TRP193      0.2620
     66  O          1.6630  -14.2030   18.7910 O.2   193  TRP193     -0.2715
     67  CB         3.4270  -16.8230   17.2490 C.3   193  TRP193      0.0590
     68  CG         4.5540  -16.5560   18.2170 C.ar  193  TRP193      0.0006
     69  CD1        5.7260  -15.9100   17.9520 C.ar  193  TRP193      0.0946
     70  CD2        4.6300  -16.9710   19.5890 C.ar  193  TRP193      0.0152
     71  NE1        6.5210  -15.8790   19.0740 N.ar  193  TRP193     -0.2442
     72  CE2        5.8730  -16.5250   20.0930 C.ar  193  TRP193      0.0810
     73  CE3        3.7630  -17.6640   20.4440 C.ar  193  TRP193      0.0012
     74  CZ2        6.2710  -16.7520   21.4130 C.ar  193  TRP193      0.0191
     75  CZ3        4.1600  -17.8900   21.7560 C.ar  193  TRP193      0.0001
     76  CH2        5.4050  -17.4370   22.2250 C.ar  193  TRP193      0.0015
     77  N          1.0430  -16.3630   18.8900 N.am  194  GLY194     -0.1954
     78  CA         0.3760  -16.2360   20.1750 C.3   194  GLY194      0.1869
     79  C         -0.0940  -17.5950   20.6340 C.2   194  GLY194      0.2309
     80  O          0.4320  -18.6130   20.1980 O.2   194  GLY194     -0.2863
     81  N         -3.8340  -18.9770   20.6910 N.3   196  GLY196     -0.1210
     82  CA        -5.1750  -18.5280   20.3460 C.3   196  GLY196      0.1956
     83  C         -5.1740  -17.0170   20.1770 C.2   196  GLY196      0.2612
     84  O         -4.1190  -16.4190   19.9420 O.2   196  GLY196     -0.2717
     85  N         -6.3450  -16.4010   20.3150 N.am  197  CYS197     -0.1970
     86  CA        -6.4880  -14.9460   20.1720 C.3   197  CYS197      0.1712
     87  C         -7.3510  -14.3710   21.2720 C.2   197  CYS197      0.2296
     88  O         -8.3940  -14.9320   21.5970 O.2   197  CYS197     -0.2864
     89  CB        -7.1350  -14.5910   18.8370 C.3   197  CYS197      0.0983
     90  SG        -6.5030  -15.5150   17.4530 S.3   197  CYS197     -0.0798
     91  N         -2.6490  -14.1250   27.4450 N.3   202  LYS202     -0.1231
     92  CA        -2.0130  -14.6380   26.2370 C.3   202  LYS202      0.1678
     93  C         -2.0770  -13.5850   25.1400 C.2   202  LYS202      0.2434
     94  O         -2.7930  -13.7460   24.1540 O.2   202  LYS202     -0.2733
     95  CB        -2.6650  -15.9540   25.7980 C.3   202  LYS202      0.0284
     96  CG        -2.4370  -17.1140   26.7800 C.3   202  LYS202      0.0035
     97  CD        -0.9620  -17.5260   26.8460 C.3   202  LYS202      0.0206
     98  CE        -0.7360  -18.7080   27.7680 C.3   202  LYS202      0.1093
     99  NZ         0.7090  -19.0470   27.9170 N.3   202  LYS202     -0.1314
    100  N         -1.3210  -12.4880   25.3170 N.am  203  PRO203     -0.2718
    101  CA        -1.3150  -11.4230   24.3220 C.3   203  PRO203      0.1535
    102  C         -0.5450  -11.8390   23.0730 C.2   203  PRO203      0.2599
    103  O          0.1930  -12.8230   23.0970 O.2   203  PRO203     -0.2715
    104  CB        -0.5920  -10.2860   25.0430 C.3   203  PRO203      0.0310
    105  CG         0.3610  -10.9830   25.9460 C.3   203  PRO203      0.0237
    106  CD        -0.3470  -12.2330   26.3950 C.3   203  PRO203      0.0939
    107  N         -0.7130  -11.0870   21.9940 N.am  204  GLY204     -0.1955
    108  CA         0.0240  -11.3510   20.7700 C.3   204  GLY204      0.1869
    109  C          1.5120  -11.1250   20.9370 C.2   204  GLY204      0.2309
    110  O          1.9380  -10.2320   21.6790 O.2   204  GLY204     -0.2863
@<TRIPOS>BOND
     1     4     3    2
     2     3     2    1
     3    43    42    2
     4    47    46    2
     5     2     1    1
     6     2     5    1
     7    41    42    1
     8    41    40    1
     9    46    45    1
    10    48    45    1
    11    48    49    1
    12     5     6    1
    13     8     6   ar
    14     8    10   ar
    15    40    33   am
    16    45    44    1
    17     6     7   ar
    18    10     9   ar
    19    34    33    2
    20    33    32    1
    21     7     9   ar
    22    35    32    1
    23    35    36    1
    24    32    31    1
    25    53    52    2
    26    54    56    1
    27    54    51    1
    28    54    55    1
    29    50    51    1
    30    28    27    2
    31    36    37    1
    32    52    51    1
    33    52    57   am
    34    31    27   am
    35    27    26    1
    36    38    37    2
    37    60    59    2
    38    37    39   am
    39    58    57    1
    40    58    59    1
    41    58    61    1
    42    59    63   am
    43    62    61    1
    44    26    25    1
    45    26    29    1
    46    25    21   am
    47    29    30    1
    48    30    90    1
    49    23    20    1
    50    23    24    1
    51    63    64    1
    52    21    20    1
    53    21    22    2
    54    20    19    1
    55    64    67    1
    56    64    65    1
    57    67    68    1
    58    90    89    1
    59    14    13    2
    60    19    13   am
    61    69    68   ar
    62    69    71   ar
    63    68    70   ar
    64    65    66    2
    65    65    77   am
    66    13    12    1
    67    89    86    1
    68    77    78    1
    69    71    72   ar
    70    70    72   ar
    71    70    73   ar
    72    84    83    2
    73    12    11    1
    74    12    15    1
    75    72    74   ar
    76    86    85    1
    77    86    87    1
    78    78    79    1
    79    83    85   am
    80    83    82    1
    81    80    79    2
    82    17    16   ar
    83    82    81    1
    84    73    75   ar
    85    15    16    1
    86    16    18   ar
    87   108   109    1
    88   108   107    1
    89   109   110    2
    90    87    88    2
    91    74    76   ar
    92    75    76   ar
    93   107   102   am
    94   102   103    2
    95   102   101    1
    96    94    93    2
    97   101   104    1
    98   101   100    1
    99   104   105    1
   100    93   100   am
   101    93    92    1
   102   100   106    1
   103    95    92    1
   104    95    96    1
   105   105   106    1
   106    92    91    1
   107    96    97    1
   108    97    98    1
   109    98    99    1
