@<TRIPOS>MOLECULE
tmp/3rxdA00.pdb
 113 112 0 0 0
SMALL
GASTEIGER

@<TRIPOS>ATOM
      1  N          7.2880  -16.6790    8.6780 N.3    40  HIS40      -0.1241
      2  CA         6.3050  -17.7700    8.6680 C.3    40  HIS40       0.1621
      3  C          5.2290  -17.5740    7.5820 C.2    40  HIS40       0.2264
      4  O          4.4450  -18.4880    7.3200 O.2    40  HIS40      -0.2867
      5  CB         5.6980  -17.9990   10.0620 C.3    40  HIS40       0.0745
      6  CG         4.5570  -17.0900   10.4100 C.ar   40  HIS40       0.0817
      7  ND1        4.7070  -15.9810   11.2150 N.ar   40  HIS40      -0.2268
      8  CD2        3.2370  -17.1620   10.1130 C.ar   40  HIS40       0.1154
      9  CE1        3.5350  -15.3900   11.3740 C.ar   40  HIS40       0.1986
     10  NE2        2.6240  -16.0920   10.7230 N.ar   40  HIS40      -0.2212
     11  N         -6.8860   -8.1110   20.2860 N.3   171  ASP171     -0.1225
     12  CA        -5.6650   -8.8110   19.8830 C.3   171  ASP171      0.1805
     13  C         -5.6140   -8.9410   18.3600 C.2   171  ASP171      0.2598
     14  O         -6.6170   -8.7450   17.6730 O.2   171  ASP171     -0.2718
     15  CB        -5.6700  -10.2140   20.5200 C.3   171  ASP171      0.1424
     16  CG        -4.2970  -10.8990   20.5330 C.2   171  ASP171      0.3668
     17  OD1       -3.2730  -10.2900   20.1590 O.co2 171  ASP171     -0.2456
     18  OD2       -4.2640  -12.0850   20.9410 O.co2 171  ASP171     -0.2456
     19  N         -4.4370   -9.2640   17.8380 N.am  172  SER172     -0.1938
     20  CA        -4.3140   -9.7290   16.4640 C.3   172  SER172      0.2055
     21  C         -4.6870  -11.2150   16.4080 C.2   172  SER172      0.2643
     22  O         -4.8500  -11.8660   17.4460 O.2   172  SER172     -0.2714
     23  CB        -2.8910   -9.5180   15.9480 C.3   172  SER172      0.2130
     24  OG        -1.9560  -10.2180   16.7460 O.3   172  SER172     -0.2179
     25  N         -4.8230  -11.7530   15.2010 N.am  173  CYS173     -0.1953
     26  CA        -5.2260  -13.1500   15.0500 C.3   173  CYS173      0.1843
     27  C         -4.7980  -13.7110   13.6890 C.2   173  CYS173      0.2625
     28  O         -4.1840  -13.0060   12.8870 O.2   173  CYS173     -0.2714
     29  CB        -6.7460  -13.2620   15.2490 C.3   173  CYS173      0.0997
     30  SG        -7.3690  -14.8960   15.7530 S.3   173  CYS173     -0.0797
     31  N         -5.1170  -14.9840   13.4500 N.am  174  GLN174     -0.1977
     32  CA        -4.7980  -15.6640   12.1930 C.3   174  GLN174      0.1601
     33  C         -5.2050  -14.8260   10.9920 C.2   174  GLN174      0.2287
     34  O         -6.3500  -14.3910   10.9090 O.2   174  GLN174     -0.2864
     35  CB        -5.5400  -17.0020   12.1020 C.3   174  GLN174      0.0394
     36  CG        -5.0970  -18.0560   13.0950 C.3   174  GLN174      0.0908
     37  CD        -5.8430  -19.3660   12.9060 C.2   174  GLN174      0.2608
     38  OE1       -6.5520  -19.8270   13.8070 O.2   174  GLN174     -0.2717
     39  NE2       -5.6970  -19.9700   11.7270 N.am  174  GLN174     -0.0878
     40  N         -1.1590  -12.1460   10.4430 N.3   177  SER177     -0.1217
     41  CA         0.2310  -12.5850   10.3110 C.3   177  SER177      0.1889
     42  C          1.0100  -11.8070    9.2810 C.2   177  SER177      0.2288
     43  O          0.5560  -11.6500    8.1570 O.2   177  SER177     -0.2866
     44  CB         0.2660  -14.0540    9.8960 C.3   177  SER177      0.2089
     45  OG        -0.0740  -14.8620   10.9900 O.3   177  SER177     -0.2183
     46  N          3.3330   -8.8160   12.9930 N.3   191  VAL191     -0.1231
     47  CA         2.4400   -9.7930   13.6250 C.3   191  VAL191      0.1692
     48  C          3.0460  -11.1860   13.4620 C.2   191  VAL191      0.2593
     49  O          3.2180  -11.6600   12.3430 O.2   191  VAL191     -0.2718
     50  CB         1.0240   -9.7570   13.0160 C.3   191  VAL191      0.0266
     51  CG1        0.1140  -10.7820   13.6970 C.3   191  VAL191      0.0020
     52  CG2        0.4260   -8.3490   13.1280 C.3   191  VAL191      0.0020
     53  N          3.3780  -11.8250   14.5850 N.am  192  SER192     -0.1938
     54  CA         4.1750  -13.0540   14.5570 C.3   192  SER192      0.2055
     55  C          3.4250  -14.2550   15.1310 C.2   192  SER192      0.2643
     56  O          3.1710  -15.2150   14.4140 O.2   192  SER192     -0.2714
     57  CB         5.5070  -12.8420   15.2820 C.3   192  SER192      0.2130
     58  OG         6.3520  -13.9760   15.1630 O.3   192  SER192     -0.2179
     59  N          3.0790  -14.2170   16.4120 N.am  193  TRP193     -0.1959
     60  CA         2.4140  -15.3650   17.0300 C.3   193  TRP193      0.1771
     61  C          1.6930  -15.0510   18.3400 C.2   193  TRP193      0.2620
     62  O          1.6780  -13.9150   18.8080 O.2   193  TRP193     -0.2715
     63  CB         3.4220  -16.5090   17.2360 C.3   193  TRP193      0.0590
     64  CG         4.5180  -16.2490   18.2370 C.ar  193  TRP193      0.0006
     65  CD1        5.7130  -15.6260   18.0050 C.ar  193  TRP193      0.0946
     66  CD2        4.5470  -16.6620   19.6140 C.ar  193  TRP193      0.0152
     67  NE1        6.4740  -15.6050   19.1520 N.ar  193  TRP193     -0.2442
     68  CE2        5.7820  -16.2320   20.1540 C.ar  193  TRP193      0.0810
     69  CE3        3.6440  -17.3410   20.4450 C.ar  193  TRP193      0.0012
     70  CZ2        6.1430  -16.4680   21.4830 C.ar  193  TRP193      0.0191
     71  CZ3        4.0050  -17.5730   21.7720 C.ar  193  TRP193      0.0001
     72  CH2        5.2440  -17.1400   22.2710 C.ar  193  TRP193      0.0015
     73  N          1.0640  -16.0800   18.8940 N.am  194  GLY194     -0.1954
     74  CA         0.4270  -16.0050   20.2040 C.3   194  GLY194      0.1869
     75  C         -0.2520  -17.3280   20.4920 C.2   194  GLY194      0.2309
     76  O         -0.2160  -18.2370   19.6660 O.2   194  GLY194     -0.2863
     77  N         -3.7020  -18.7130   20.6880 N.3   196  GLY196     -0.1210
     78  CA        -5.0540  -18.3030   20.3250 C.3   196  GLY196      0.1956
     79  C         -5.0940  -16.8010   20.1130 C.2   196  GLY196      0.2612
     80  O         -4.0700  -16.1870   19.8000 O.2   196  GLY196     -0.2717
     81  N         -6.2730  -16.2070   20.2880 N.am  197  CYS197     -0.1970
     82  CA        -6.4460  -14.7670   20.0920 C.3   197  CYS197      0.1712
     83  C         -7.3460  -14.1660   21.1590 C.2   197  CYS197      0.2296
     84  O         -8.4010  -14.7170   21.4700 O.2   197  CYS197     -0.2864
     85  CB        -7.0480  -14.4820   18.7170 C.3   197  CYS197      0.0983
     86  SG        -6.2650  -15.3930   17.3790 S.3   197  CYS197     -0.0798
     87  N         -2.6530  -13.9100   27.4170 N.3   202  LYS202     -0.1231
     88  CA        -1.9900  -14.4280   26.2210 C.3   202  LYS202      0.1678
     89  C         -2.0180  -13.3630   25.1330 C.2   202  LYS202      0.2434
     90  O         -2.7370  -13.4830   24.1420 O.2   202  LYS202     -0.2733
     91  CB        -2.6440  -15.7350   25.7600 C.3   202  LYS202      0.0284
     92  CG        -2.4640  -16.9060   26.7480 C.3   202  LYS202      0.0035
     93  CD        -0.9910  -17.3130   26.9010 C.3   202  LYS202      0.0206
     94  CE        -0.8110  -18.4930   27.8430 C.3   202  LYS202      0.1093
     95  NZ         0.6330  -18.8290   28.0690 N.3   202  LYS202     -0.1314
     96  N         -1.2310  -12.2970   25.3260 N.am  203  PRO203     -0.2718
     97  CA        -1.2150  -11.2090   24.3560 C.3   203  PRO203      0.1535
     98  C         -0.5030  -11.6050   23.0630 C.2   203  PRO203      0.2599
     99  O          0.1920  -12.6210   23.0210 O.2   203  PRO203     -0.2715
    100  CB        -0.4380  -10.1110   25.0850 C.3   203  PRO203      0.0310
    101  CG         0.4840  -10.8500   25.9740 C.3   203  PRO203      0.0237
    102  CD        -0.2730  -12.0660   26.4240 C.3   203  PRO203      0.0939
    103  N         -0.6810  -10.8090   22.0150 N.am  204  GLY204     -0.1941
    104  CA         0.0440  -11.0200   20.7690 C.3   204  GLY204      0.2014
    105  C          1.5410  -10.8300   20.9290 C.2   204  GLY204      0.2638
    106  O          1.9920  -10.0060   21.7330 O.2   204  GLY204     -0.2714
    107  N          2.3070  -11.6050   20.1640 N.am  205  VAL205     -0.1977
    108  CA         3.7620  -11.5070   20.1500 C.3   205  VAL205      0.1596
    109  C          4.1980  -11.0380   18.7660 C.2   205  VAL205      0.2287
    110  O          3.6680  -11.4930   17.7490 O.2   205  VAL205     -0.2864
    111  CB         4.4410  -12.8420   20.5160 C.3   205  VAL205      0.0276
    112  CG1        5.9430  -12.6370   20.6730 C.3   205  VAL205      0.0022
    113  CG2        3.8380  -13.4090   21.8010 C.3   205  VAL205      0.0022
@<TRIPOS>BOND
     1     4     3    2
     2     3     2    1
     3    43    42    2
     4     2     1    1
     5     2     5    1
     6    42    41    1
     7    44    41    1
     8    44    45    1
     9     5     6    1
    10     8     6   ar
    11     8    10   ar
    12    41    40    1
    13     6     7   ar
    14    10     9   ar
    15    34    33    2
    16    33    32    1
    17     7     9   ar
    18    39    37   am
    19    35    32    1
    20    35    36    1
    21    32    31    1
    22    49    48    2
    23    28    27    2
    24    37    36    1
    25    37    38    2
    26    46    47    1
    27    50    52    1
    28    50    47    1
    29    50    51    1
    30    31    27   am
    31    48    47    1
    32    48    53   am
    33    27    26    1
    34    56    55    2
    35    54    53    1
    36    54    55    1
    37    54    57    1
    38    26    25    1
    39    26    29    1
    40    55    59   am
    41    58    57    1
    42    25    21   am
    43    29    30    1
    44    30    86    1
    45    23    20    1
    46    23    24    1
    47    21    20    1
    48    21    22    2
    49    59    60    1
    50    20    19    1
    51    60    63    1
    52    60    61    1
    53    63    64    1
    54    86    85    1
    55    14    13    2
    56   110   109    2
    57    19    13   am
    58    65    64   ar
    59    65    67   ar
    60    64    66   ar
    61    61    62    2
    62    61    73   am
    63    13    12    1
    64    85    82    1
    65   109   108    1
    66    73    74    1
    67    67    68   ar
    68    66    68   ar
    69    66    69   ar
    70    76    75    2
    71    80    79    2
    72    12    11    1
    73    12    15    1
    74    82    81    1
    75    82    83    1
    76    79    81   am
    77    79    78    1
    78   108   107    1
    79   108   111    1
    80    68    70   ar
    81    17    16   ar
    82   107   105   am
    83    74    75    1
    84    78    77    1
    85    69    71   ar
    86   111   112    1
    87   111   113    1
    88    15    16    1
    89    16    18   ar
    90   104   105    1
    91   104   103    1
    92   105   106    2
    93    83    84    2
    94    70    72   ar
    95    71    72   ar
    96   103    98   am
    97    99    98    2
    98    98    97    1
    99    90    89    2
   100    97   100    1
   101    97    96    1
   102   100   101    1
   103    89    96   am
   104    89    88    1
   105    96   102    1
   106    91    88    1
   107    91    92    1
   108   101   102    1
   109    88    87    1
   110    92    93    1
   111    93    94    1
   112    94    95    1
