@<TRIPOS>MOLECULE
tmp/3rxfA00.pdb
 87 85 0 0 0
SMALL
GASTEIGER

@<TRIPOS>ATOM
      1  N         -6.7980   -8.2470   20.3460 N.3   171  ASP171     -0.1225
      2  CA        -5.5850   -8.9490   19.9290 C.3   171  ASP171      0.1805
      3  C         -5.5210   -9.0890   18.4090 C.2   171  ASP171      0.2598
      4  O         -6.5020   -8.8460   17.7070 O.2   171  ASP171     -0.2718
      5  CB        -5.5900  -10.3560   20.5510 C.3   171  ASP171      0.1424
      6  CG        -4.1940  -10.9290   20.7960 C.2   171  ASP171      0.3668
      7  OD1       -3.1720  -10.3280   20.4040 O.co2 171  ASP171     -0.2456
      8  OD2       -4.1350  -12.0200   21.4030 O.co2 171  ASP171     -0.2456
      9  N         -4.3550   -9.4830   17.9140 N.am  172  SER172     -0.1938
     10  CA        -4.2220   -9.9580   16.5410 C.3   172  SER172      0.2055
     11  C         -4.6780  -11.4210   16.5040 C.2   172  SER172      0.2643
     12  O         -4.8800  -12.0390   17.5510 O.2   172  SER172     -0.2714
     13  CB        -2.7750   -9.8200   16.0650 C.3   172  SER172      0.2130
     14  OG        -1.8900  -10.5340   16.9100 O.3   172  SER172     -0.2179
     15  N         -4.8390  -11.9780   15.3070 N.am  173  CYS173     -0.1953
     16  CA        -5.3200  -13.3520   15.1790 C.3   173  CYS173      0.1843
     17  C         -4.8860  -13.9600   13.8450 C.2   173  CYS173      0.2625
     18  O         -4.1720  -13.3190   13.0750 O.2   173  CYS173     -0.2714
     19  CB        -6.8450  -13.3810   15.3400 C.3   173  CYS173      0.0997
     20  SG        -7.5630  -14.9720   15.8430 S.3   173  CYS173     -0.0797
     21  N         -5.3510  -15.1700   13.5670 N.am  174  GLN174     -0.1977
     22  CA        -5.0080  -15.8840   12.3610 C.3   174  GLN174      0.1601
     23  C         -5.3170  -15.0130   11.1360 C.2   174  GLN174      0.2287
     24  O         -6.3800  -14.5030   11.0710 O.2   174  GLN174     -0.2864
     25  CB        -5.8070  -17.2030   12.2520 C.3   174  GLN174      0.0394
     26  CG        -5.4230  -17.8870   10.9930 C.3   174  GLN174      0.0908
     27  CD        -5.7510  -19.3530   10.8760 C.2   174  GLN174      0.2608
     28  OE1       -6.5010  -19.9070   11.6640 O.2   174  GLN174     -0.2717
     29  NE2       -5.1670  -19.9870    9.8780 N.am  174  GLN174     -0.0878
     30  N         -1.0390  -12.3650   10.4880 N.3   177  SER177     -0.1217
     31  CA         0.3720  -12.7310   10.3610 C.3   177  SER177      0.1889
     32  C          1.1130  -11.9050    9.3300 C.2   177  SER177      0.2288
     33  O          0.6420  -11.7500    8.2040 O.2   177  SER177     -0.2866
     34  CB         0.4800  -14.1980    9.9530 C.3   177  SER177      0.2089
     35  OG         0.1570  -15.0400   11.0360 O.3   177  SER177     -0.2183
     36  N          3.3780   -8.9020   13.0300 N.3   191  VAL191     -0.1231
     37  CA         2.4910   -9.8980   13.6410 C.3   191  VAL191      0.1692
     38  C          3.1250  -11.2720   13.4620 C.2   191  VAL191      0.2593
     39  O          3.3280  -11.7150   12.3390 O.2   191  VAL191     -0.2718
     40  CB         1.0830   -9.8950   13.0070 C.3   191  VAL191      0.0266
     41  CG1        0.1950  -10.9170   13.6910 C.3   191  VAL191      0.0020
     42  CG2        0.4540   -8.5110   13.0970 C.3   191  VAL191      0.0020
     43  N          3.4430  -11.9340   14.5750 N.am  192  SER192     -0.1938
     44  CA         4.2180  -13.1770   14.5330 C.3   192  SER192      0.2055
     45  C          3.4430  -14.3700   15.0910 C.2   192  SER192      0.2643
     46  O          3.1580  -15.3180   14.3600 O.2   192  SER192     -0.2714
     47  CB         5.5440  -12.9980   15.2820 C.3   192  SER192      0.2130
     48  OG         6.3690  -14.1420   15.1610 O.3   192  SER192     -0.2179
     49  N          3.1140  -14.3450   16.3770 N.am  193  TRP193     -0.1959
     50  CA         2.4320  -15.4880   16.9750 C.3   193  TRP193      0.1771
     51  C          1.7000  -15.1820   18.2740 C.2   193  TRP193      0.2620
     52  O          1.8170  -14.0980   18.8360 O.2   193  TRP193     -0.2715
     53  CB         3.4160  -16.6450   17.1880 C.3   193  TRP193      0.0590
     54  CG         4.5140  -16.4020   18.1950 C.ar  193  TRP193      0.0006
     55  CD1        5.7180  -15.7990   17.9700 C.ar  193  TRP193      0.0946
     56  CD2        4.5160  -16.7950   19.5720 C.ar  193  TRP193      0.0152
     57  NE1        6.4680  -15.7840   19.1230 N.ar  193  TRP193     -0.2442
     58  CE2        5.7540  -16.3900   20.1220 C.ar  193  TRP193      0.0810
     59  CE3        3.5910  -17.4480   20.3970 C.ar  193  TRP193      0.0012
     60  CZ2        6.0900  -16.6210   21.4590 C.ar  193  TRP193      0.0191
     61  CZ3        3.9310  -17.6790   21.7270 C.ar  193  TRP193      0.0001
     62  CH2        5.1660  -17.2640   22.2400 C.ar  193  TRP193      0.0015
     63  N          0.9190  -16.1570   18.7200 N.am  194  GLY194     -0.1954
     64  CA         0.2290  -16.0700   19.9990 C.3   194  GLY194      0.1869
     65  C         -0.3770  -17.4170   20.3260 C.2   194  GLY194      0.2309
     66  O         -0.3300  -18.3300   19.5110 O.2   194  GLY194     -0.2863
     67  N         -3.7750  -18.9330   20.7570 N.3   196  GLY196     -0.1210
     68  CA        -5.1370  -18.4970   20.4560 C.3   196  GLY196      0.1956
     69  C         -5.1300  -17.0000   20.1870 C.2   196  GLY196      0.2612
     70  O         -4.0820  -16.4290   19.8710 O.2   196  GLY196     -0.2717
     71  N         -6.2920  -16.3660   20.3140 N.am  197  CYS197     -0.1970
     72  CA        -6.4150  -14.9120   20.1220 C.3   197  CYS197      0.1712
     73  C         -7.2600  -14.2780   21.2140 C.2   197  CYS197      0.2296
     74  O         -8.3160  -14.7970   21.5670 O.2   197  CYS197     -0.2864
     75  CB        -7.0550  -14.5950   18.7720 C.3   197  CYS197      0.0983
     76  SG        -6.4350  -15.5780   17.4170 S.3   197  CYS197     -0.0798
     77  N         -0.6980  -11.0100   21.9640 N.3   204  GLY204     -0.1210
     78  CA         0.0500  -11.2700   20.7450 C.3   204  GLY204      0.1956
     79  C          1.5370  -11.0160   20.9090 C.2   204  GLY204      0.2611
     80  O          1.9510  -10.1370   21.6750 O.2   204  GLY204     -0.2717
     81  N          2.3350  -11.8010   20.1890 N.am  205  VAL205     -0.1979
     82  CA         3.7860  -11.6560   20.1780 C.3   205  VAL205      0.1595
     83  C          4.2190  -11.1830   18.7960 C.2   205  VAL205      0.2287
     84  O          3.6880  -11.6350   17.7700 O.2   205  VAL205     -0.2864
     85  CB         4.4930  -12.9740   20.5480 C.3   205  VAL205      0.0276
     86  CG1        6.0030  -12.7510   20.6830 C.3   205  VAL205      0.0022
     87  CG2        3.9180  -13.5250   21.8420 C.3   205  VAL205      0.0022
@<TRIPOS>BOND
     1    33    32    2
     2    32    31    1
     3    29    27   am
     4    34    31    1
     5    34    35    1
     6    31    30    1
     7    27    26    1
     8    27    28    2
     9    26    25    1
    10    24    23    2
    11    23    22    1
    12    25    22    1
    13    39    38    2
    14    22    21    1
    15    40    42    1
    16    40    37    1
    17    40    41    1
    18    36    37    1
    19    18    17    2
    20    38    37    1
    21    38    43   am
    22    21    17   am
    23    17    16    1
    24    46    45    2
    25    44    43    1
    26    44    45    1
    27    44    47    1
    28    45    49   am
    29    48    47    1
    30    16    15    1
    31    16    19    1
    32    15    11   am
    33    19    20    1
    34    20    76    1
    35    13    10    1
    36    13    14    1
    37    49    50    1
    38    11    10    1
    39    11    12    2
    40    10     9    1
    41    50    53    1
    42    50    51    1
    43    53    54    1
    44    76    75    1
    45     4     3    2
    46    84    83    2
    47     9     3   am
    48    55    54   ar
    49    55    57   ar
    50    54    56   ar
    51    51    63   am
    52    51    52    2
    53     3     2    1
    54    63    64    1
    55    75    72    1
    56    83    82    1
    57    57    58   ar
    58    66    65    2
    59    56    58   ar
    60    56    59   ar
    61    70    69    2
    62     2     1    1
    63     2     5    1
    64    64    65    1
    65    58    60   ar
    66    72    71    1
    67    72    73    1
    68    82    81    1
    69    82    85    1
    70    69    71   am
    71    69    68    1
    72    81    79   am
    73    59    61   ar
    74     7     6   ar
    75    68    67    1
    76    85    86    1
    77    85    87    1
    78     5     6    1
    79    78    79    1
    80    78    77    1
    81     6     8   ar
    82    79    80    2
    83    73    74    2
    84    60    62   ar
    85    61    62   ar
