@<TRIPOS>MOLECULE
tmp/3rxgA00.pdb
 97 95 0 0 0
SMALL
GASTEIGER

@<TRIPOS>ATOM
      1  N          7.3340  -16.7500    8.6320 N.3    40  HIS40      -0.1241
      2  CA         6.3590  -17.8430    8.5870 C.3    40  HIS40       0.1621
      3  C          5.2900  -17.6370    7.4960 C.2    40  HIS40       0.2264
      4  O          4.5210  -18.5530    7.2120 O.2    40  HIS40      -0.2867
      5  CB         5.7380  -18.1020    9.9670 C.3    40  HIS40       0.0745
      6  CG         4.6320  -17.1640   10.3390 C.ar   40  HIS40       0.0817
      7  ND1        4.8160  -16.1040   11.2010 N.ar   40  HIS40      -0.2268
      8  CD2        3.3190  -17.1540   10.0050 C.ar   40  HIS40       0.1154
      9  CE1        3.6720  -15.4640   11.3590 C.ar   40  HIS40       0.1986
     10  NE2        2.7460  -16.0830   10.6470 N.ar   40  HIS40      -0.2212
     11  N         -6.8140   -8.3400   20.3670 N.3   171  ASP171     -0.1225
     12  CA        -5.5860   -9.0020   19.9230 C.3   171  ASP171      0.1805
     13  C         -5.5620   -9.1220   18.4010 C.2   171  ASP171      0.2598
     14  O         -6.5830   -8.9160   17.7370 O.2   171  ASP171     -0.2718
     15  CB        -5.5360  -10.4060   20.5510 C.3   171  ASP171      0.1424
     16  CG        -4.1290  -10.9990   20.6310 C.2   171  ASP171      0.3668
     17  OD1       -3.1410  -10.3800   20.1830 O.co2 171  ASP171     -0.2456
     18  OD2       -4.0240  -12.1300   21.1590 O.co2 171  ASP171     -0.2456
     19  N         -4.3920   -9.4360   17.8550 N.am  172  SER172     -0.1938
     20  CA        -4.2920   -9.8990   16.4710 C.3   172  SER172      0.2055
     21  C         -4.6210  -11.3890   16.4400 C.2   172  SER172      0.2643
     22  O         -4.5770  -12.0630   17.4730 O.2   172  SER172     -0.2714
     23  CB        -2.8940   -9.6470   15.9040 C.3   172  SER172      0.2130
     24  OG        -1.8920  -10.1910   16.7440 O.3   172  SER172     -0.2179
     25  N         -4.9340  -11.9110   15.2580 N.am  173  CYS173     -0.1953
     26  CA        -5.3800  -13.2970   15.1490 C.3   173  CYS173      0.1843
     27  C         -4.9950  -13.9110   13.8000 C.2   173  CYS173      0.2625
     28  O         -4.2610  -13.3060   13.0240 O.2   173  CYS173     -0.2714
     29  CB        -6.8950  -13.3600   15.3860 C.3   173  CYS173      0.0997
     30  SG        -7.5620  -14.9600   15.9140 S.3   173  CYS173     -0.0797
     31  N         -5.4790  -15.1240   13.5410 N.am  174  GLN174     -0.1977
     32  CA        -5.1260  -15.8560   12.3280 C.3   174  GLN174      0.1601
     33  C         -5.4780  -15.0320   11.0870 C.2   174  GLN174      0.2287
     34  O         -6.6020  -14.5540   10.9590 O.2   174  GLN174     -0.2864
     35  CB        -5.8350  -17.2170   12.2860 C.3   174  GLN174      0.0394
     36  CG        -5.1580  -18.3320   13.1050 C.3   174  GLN174      0.0908
     37  CD        -5.2980  -18.1910   14.6190 C.2   174  GLN174      0.2608
     38  OE1       -4.3140  -18.3020   15.3480 O.2   174  GLN174     -0.2717
     39  NE2       -6.5140  -17.9750   15.0950 N.am  174  GLN174     -0.0878
     40  N         -1.0800  -12.3630   10.4840 N.3   177  SER177     -0.1217
     41  CA         0.3450  -12.7040   10.3650 C.3   177  SER177      0.1889
     42  C          1.0760  -11.8720    9.3440 C.2   177  SER177      0.2288
     43  O          0.5960  -11.7130    8.2240 O.2   177  SER177     -0.2866
     44  CB         0.5160  -14.1490    9.8960 C.3   177  SER177      0.2089
     45  OG         0.1860  -15.0620   10.8950 O.3   177  SER177     -0.2183
     46  N          3.3500   -8.8690   13.0560 N.3   191  VAL191     -0.1231
     47  CA         2.4490   -9.8540   13.6810 C.3   191  VAL191      0.1692
     48  C          3.0600  -11.2450   13.5120 C.2   191  VAL191      0.2593
     49  O          3.2620  -11.7020   12.3890 O.2   191  VAL191     -0.2718
     50  CB         1.0300   -9.8240   13.0710 C.3   191  VAL191      0.0266
     51  CG1        0.1130  -10.8010   13.8000 C.3   191  VAL191      0.0020
     52  CG2        0.4450   -8.4170   13.1290 C.3   191  VAL191      0.0020
     53  N          3.3680  -11.9040   14.6300 N.am  192  SER192     -0.1938
     54  CA         4.1450  -13.1450   14.6000 C.3   192  SER192      0.2055
     55  C          3.3830  -14.3400   15.1760 C.2   192  SER192      0.2643
     56  O          3.0790  -15.2810   14.4480 O.2   192  SER192     -0.2714
     57  CB         5.4800  -12.9550   15.3270 C.3   192  SER192      0.2130
     58  OG         6.3280  -14.0800   15.1630 O.3   192  SER192     -0.2179
     59  N          3.0950  -14.3230   16.4730 N.am  193  TRP193     -0.1959
     60  CA         2.4700  -15.4810   17.1080 C.3   193  TRP193      0.1771
     61  C          1.7820  -15.1810   18.4360 C.2   193  TRP193      0.2620
     62  O          1.8310  -14.0640   18.9430 O.2   193  TRP193     -0.2715
     63  CB         3.4970  -16.6120   17.2860 C.3   193  TRP193      0.0590
     64  CG         4.6120  -16.3480   18.2740 C.ar  193  TRP193      0.0006
     65  CD1        5.7920  -15.7050   18.0300 C.ar  193  TRP193      0.0946
     66  CD2        4.6610  -16.7660   19.6430 C.ar  193  TRP193      0.0152
     67  NE1        6.5680  -15.6800   19.1650 N.ar  193  TRP193     -0.2442
     68  CE2        5.8980  -16.3240   20.1720 C.ar  193  TRP193      0.0810
     69  CE3        3.7760  -17.4600   20.4810 C.ar  193  TRP193      0.0012
     70  CZ2        6.2730  -16.5600   21.5000 C.ar  193  TRP193      0.0191
     71  CZ3        4.1520  -17.6920   21.8030 C.ar  193  TRP193      0.0001
     72  CH2        5.3880  -17.2460   22.2940 C.ar  193  TRP193      0.0015
     73  N          1.1020  -16.1940   18.9570 N.am  194  GLY194     -0.1954
     74  CA         0.4530  -16.1130   20.2540 C.3   194  GLY194      0.1869
     75  C         -0.2680  -17.4130   20.5400 C.2   194  GLY194      0.2309
     76  O         -0.3660  -18.2730   19.6720 O.2   194  GLY194     -0.2863
     77  N         -3.6420  -18.8970   20.9340 N.3   196  GLY196     -0.1210
     78  CA        -5.0000  -18.4650   20.6020 C.3   196  GLY196      0.1956
     79  C         -5.0000  -16.9780   20.2840 C.2   196  GLY196      0.2612
     80  O         -3.9480  -16.4080   19.9710 O.2   196  GLY196     -0.2717
     81  N         -6.1710  -16.3530   20.3640 N.am  197  CYS197     -0.1970
     82  CA        -6.3030  -14.9030   20.1650 C.3   197  CYS197      0.1712
     83  C         -7.1640  -14.2910   21.2530 C.2   197  CYS197      0.2296
     84  O         -8.2290  -14.8190   21.5810 O.2   197  CYS197     -0.2864
     85  CB        -6.9480  -14.5810   18.8190 C.3   197  CYS197      0.0983
     86  SG        -6.3560  -15.5460   17.4300 S.3   197  CYS197     -0.0798
     87  N         -0.6290  -10.9630   22.1550 N.3   204  GLY204     -0.1210
     88  CA         0.0780  -11.1960   20.9080 C.3   204  GLY204      0.1956
     89  C          1.5690  -10.9550   21.0450 C.2   204  GLY204      0.2611
     90  O          2.0080  -10.0670   21.7970 O.2   204  GLY204     -0.2717
     91  N          2.3440  -11.7630   20.3240 N.am  205  VAL205     -0.1979
     92  CA         3.7940  -11.6360   20.2750 C.3   205  VAL205      0.1595
     93  C          4.2020  -11.1730   18.8800 C.2   205  VAL205      0.2287
     94  O          3.6440  -11.6280   17.8740 O.2   205  VAL205     -0.2864
     95  CB         4.4890  -12.9680   20.6340 C.3   205  VAL205      0.0276
     96  CG1        5.9910  -12.7620   20.7710 C.3   205  VAL205      0.0022
     97  CG2        3.9140  -13.5090   21.9260 C.3   205  VAL205      0.0022
@<TRIPOS>BOND
     1     4     3    2
     2     3     2    1
     3    43    42    2
     4     2     1    1
     5     2     5    1
     6    42    41    1
     7    44    41    1
     8    44    45    1
     9     5     6    1
    10     8     6   ar
    11     8    10   ar
    12     6     7   ar
    13    41    40    1
    14    10     9   ar
    15    34    33    2
    16    33    32    1
    17     7     9   ar
    18    35    32    1
    19    35    36    1
    20    32    31    1
    21    49    48    2
    22    28    27    2
    23    46    47    1
    24    50    52    1
    25    50    47    1
    26    50    51    1
    27    36    37    1
    28    48    47    1
    29    48    53   am
    30    31    27   am
    31    27    26    1
    32    56    55    2
    33    54    53    1
    34    54    55    1
    35    54    57    1
    36    37    39   am
    37    37    38    2
    38    26    25    1
    39    26    29    1
    40    58    57    1
    41    55    59   am
    42    25    21   am
    43    29    30    1
    44    23    20    1
    45    23    24    1
    46    30    86    1
    47    21    20    1
    48    21    22    2
    49    20    19    1
    50    59    60    1
    51    60    63    1
    52    60    61    1
    53    63    64    1
    54    86    85    1
    55    14    13    2
    56    19    13   am
    57    94    93    2
    58    65    64   ar
    59    65    67   ar
    60    64    66   ar
    61    13    12    1
    62    61    62    2
    63    61    73   am
    64    85    82    1
    65    93    92    1
    66    73    74    1
    67    67    68   ar
    68    66    68   ar
    69    66    69   ar
    70    76    75    2
    71    12    11    1
    72    12    15    1
    73    80    79    2
    74    82    81    1
    75    82    83    1
    76    68    70   ar
    77    17    16   ar
    78    74    75    1
    79    92    91    1
    80    92    95    1
    81    79    81   am
    82    79    78    1
    83    91    89   am
    84    69    71   ar
    85    15    16    1
    86    78    77    1
    87    16    18   ar
    88    95    96    1
    89    95    97    1
    90    88    89    1
    91    88    87    1
    92    89    90    2
    93    83    84    2
    94    70    72   ar
    95    71    72   ar
