@<TRIPOS>MOLECULE
tmp/3rxhA00.pdb
 109 108 0 0 0
SMALL
GASTEIGER

@<TRIPOS>ATOM
      1  N          7.2900  -16.7580    8.6720 N.3    40  HIS40      -0.1241
      2  CA         6.3030  -17.8430    8.6360 C.3    40  HIS40       0.1621
      3  C          5.2290  -17.6300    7.5490 C.2    40  HIS40       0.2264
      4  O          4.4150  -18.5220    7.3050 O.2    40  HIS40      -0.2867
      5  CB         5.6890  -18.0940   10.0230 C.3    40  HIS40       0.0745
      6  CG         4.5710  -17.1660   10.3880 C.ar   40  HIS40       0.0817
      7  ND1        4.7500  -16.0720   11.2070 N.ar   40  HIS40      -0.2268
      8  CD2        3.2500  -17.1970   10.0860 C.ar   40  HIS40       0.1154
      9  CE1        3.5940  -15.4510   11.3690 C.ar   40  HIS40       0.1986
     10  NE2        2.6660  -16.1160   10.7040 N.ar   40  HIS40      -0.2212
     11  N         -6.8370   -8.2430   20.3160 N.3   171  ASP171     -0.1225
     12  CA        -5.6190   -8.9290   19.8800 C.3   171  ASP171      0.1805
     13  C         -5.5730   -9.0490   18.3560 C.2   171  ASP171      0.2598
     14  O         -6.5780   -8.8330   17.6780 O.2   171  ASP171     -0.2718
     15  CB        -5.6070  -10.3380   20.4920 C.3   171  ASP171      0.1424
     16  CG        -4.2050  -10.9360   20.6410 C.2   171  ASP171      0.3668
     17  OD1       -3.2040  -10.3380   20.1990 O.co2 171  ASP171     -0.2456
     18  OD2       -4.1230  -12.0440   21.2130 O.co2 171  ASP171     -0.2456
     19  N         -4.4030   -9.3920   17.8290 N.am  172  SER172     -0.1938
     20  CA        -4.2860   -9.8590   16.4510 C.3   172  SER172      0.2055
     21  C         -4.6690  -11.3390   16.4180 C.2   172  SER172      0.2643
     22  O         -4.7550  -11.9890   17.4660 O.2   172  SER172     -0.2714
     23  CB        -2.8640   -9.6590   15.9190 C.3   172  SER172      0.2130
     24  OG        -1.9120  -10.3080   16.7380 O.3   172  SER172     -0.2179
     25  N         -4.9000  -11.8760   15.2240 N.am  173  CYS173     -0.1953
     26  CA        -5.3670  -13.2540   15.1050 C.3   173  CYS173      0.1843
     27  C         -4.9930  -13.8550   13.7500 C.2   173  CYS173      0.2625
     28  O         -4.3340  -13.2060   12.9400 O.2   173  CYS173     -0.2714
     29  CB        -6.8810  -13.2980   15.3370 C.3   173  CYS173      0.0997
     30  SG        -7.5550  -14.9010   15.8380 S.3   173  CYS173     -0.0797
     31  N         -5.4010  -15.1020   13.5150 N.am  174  GLN174     -0.1977
     32  CA        -5.0520  -15.7980   12.2820 C.3   174  GLN174      0.1601
     33  C         -5.4180  -14.9740   11.0540 C.2   174  GLN174      0.2287
     34  O         -6.5430  -14.4940   10.9400 O.2   174  GLN174     -0.2864
     35  CB        -5.7400  -17.1610   12.2000 C.3   174  GLN174      0.0394
     36  CG        -5.5320  -17.8310   10.8480 C.3   174  GLN174      0.0908
     37  CD        -5.7230  -19.3240   10.8680 C.2   174  GLN174      0.2608
     38  OE1       -6.4160  -19.8710   11.7330 O.2   174  GLN174     -0.2717
     39  NE2       -5.1050  -20.0040    9.9050 N.am  174  GLN174     -0.0878
     40  N         -1.1070  -12.3440   10.4520 N.3   177  SER177     -0.1217
     41  CA         0.2980  -12.7350   10.2920 C.3   177  SER177      0.1889
     42  C          1.0490  -11.8890    9.2880 C.2   177  SER177      0.2288
     43  O          0.5870  -11.7110    8.1640 O.2   177  SER177     -0.2866
     44  CB         0.3800  -14.1830    9.8050 C.3   177  SER177      0.2089
     45  OG         0.1220  -15.0810   10.8540 O.3   177  SER177     -0.2183
     46  N          3.3230   -8.9270   13.0150 N.3   191  VAL191     -0.1231
     47  CA         2.4330   -9.9160   13.6320 C.3   191  VAL191      0.1692
     48  C          3.0620  -11.2980   13.4610 C.2   191  VAL191      0.2593
     49  O          3.2520  -11.7590   12.3360 O.2   191  VAL191     -0.2718
     50  CB         1.0250   -9.8980   13.0080 C.3   191  VAL191      0.0266
     51  CG1        0.1180  -10.9190   13.6960 C.3   191  VAL191      0.0020
     52  CG2        0.4190   -8.5010   13.0920 C.3   191  VAL191      0.0020
     53  N          3.3970  -11.9410   14.5800 N.am  192  SER192     -0.1938
     54  CA         4.1900  -13.1730   14.5540 C.3   192  SER192      0.2055
     55  C          3.4410  -14.3760   15.1280 C.2   192  SER192      0.2643
     56  O          3.1660  -15.3240   14.4030 O.2   192  SER192     -0.2714
     57  CB         5.5170  -12.9650   15.2860 C.3   192  SER192      0.2130
     58  OG         6.3500  -14.1050   15.1620 O.3   192  SER192     -0.2179
     59  N          3.1250  -14.3590   16.4180 N.am  193  TRP193     -0.1959
     60  CA         2.4490  -15.5040   17.0240 C.3   193  TRP193      0.1771
     61  C          1.7140  -15.1880   18.3190 C.2   193  TRP193      0.2620
     62  O          1.7720  -14.0750   18.8350 O.2   193  TRP193     -0.2715
     63  CB         3.4400  -16.6570   17.2420 C.3   193  TRP193      0.0590
     64  CG         4.5470  -16.4020   18.2360 C.ar  193  TRP193      0.0006
     65  CD1        5.7450  -15.7990   17.9930 C.ar  193  TRP193      0.0946
     66  CD2        4.5730  -16.7980   19.6160 C.ar  193  TRP193      0.0152
     67  NE1        6.5100  -15.7730   19.1360 N.ar  193  TRP193     -0.2442
     68  CE2        5.8150  -16.3830   20.1460 C.ar  193  TRP193      0.0810
     69  CE3        3.6650  -17.4580   20.4550 C.ar  193  TRP193      0.0012
     70  CZ2        6.1740  -16.6060   21.4800 C.ar  193  TRP193      0.0191
     71  CZ3        4.0240  -17.6800   21.7810 C.ar  193  TRP193      0.0001
     72  CH2        5.2670  -17.2570   22.2760 C.ar  193  TRP193      0.0015
     73  N          0.9950  -16.1870   18.8130 N.am  194  GLY194     -0.1954
     74  CA         0.3200  -16.0950   20.0980 C.3   194  GLY194      0.1869
     75  C         -0.2790  -17.4420   20.4490 C.2   194  GLY194      0.2309
     76  O         -0.1090  -18.4080   19.7150 O.2   194  GLY194     -0.2863
     77  N         -3.7870  -18.8830   20.7350 N.3   196  GLY196     -0.1210
     78  CA        -5.1370  -18.4440   20.3810 C.3   196  GLY196      0.1956
     79  C         -5.1390  -16.9410   20.1410 C.2   196  GLY196      0.2612
     80  O         -4.1020  -16.3610   19.8080 O.2   196  GLY196     -0.2717
     81  N         -6.2970  -16.3100   20.3120 N.am  197  CYS197     -0.1970
     82  CA        -6.4240  -14.8580   20.1230 C.3   197  CYS197      0.1712
     83  C         -7.2770  -14.2400   21.2110 C.2   197  CYS197      0.2296
     84  O         -8.3320  -14.7760   21.5550 O.2   197  CYS197     -0.2864
     85  CB        -7.0670  -14.5410   18.7740 C.3   197  CYS197      0.0983
     86  SG        -6.4020  -15.4750   17.4090 S.3   197  CYS197     -0.0798
     87  N         -0.7020  -10.9110   22.0510 N.3   204  GLY204     -0.1210
     88  CA         0.0180  -11.1530   20.8140 C.3   204  GLY204      0.1956
     89  C          1.5110  -10.9400   20.9670 C.2   204  GLY204      0.2612
     90  O          1.9510  -10.0770   21.7360 O.2   204  GLY204     -0.2717
     91  N          2.2840  -11.7420   20.2370 N.am  205  VAL205     -0.1965
     92  CA         3.7360  -11.6300   20.1940 C.3   205  VAL205      0.1727
     93  C          4.1610  -11.1530   18.8070 C.2   205  VAL205      0.2616
     94  O          3.6140  -11.5940   17.7820 O.2   205  VAL205     -0.2715
     95  CB         4.4250  -12.9720   20.5340 C.3   205  VAL205      0.0290
     96  CG1        5.9310  -12.7770   20.6540 C.3   205  VAL205      0.0023
     97  CG2        3.8550  -13.5420   21.8270 C.3   205  VAL205      0.0023
     98  N          5.1350  -10.2440   18.7900 N.am  206  TYR206     -0.1974
     99  CA         5.5270   -9.5270   17.5880 C.3   206  TYR206      0.1639
    100  C          7.0320   -9.5530   17.3750 C.2   206  TYR206      0.2290
    101  O          7.8060   -9.5020   18.3320 O.2   206  TYR206     -0.2864
    102  CB         5.0120   -8.0810   17.6810 C.3   206  TYR206      0.0560
    103  CG         3.5110   -8.0680   17.8280 C.ar  206  TYR206     -0.0198
    104  CD1        2.6910   -8.1070   16.7100 C.ar  206  TYR206     -0.0009
    105  CD2        2.9100   -8.1030   19.0850 C.ar  206  TYR206     -0.0009
    106  CE1        1.3180   -8.1390   16.8260 C.ar  206  TYR206      0.0417
    107  CE2        1.5270   -8.1370   19.2150 C.ar  206  TYR206      0.0417
    108  CZ         0.7380   -8.1570   18.0780 C.ar  206  TYR206      0.1957
    109  OH        -0.6350   -8.1960   18.1740 O.3   206  TYR206     -0.2866
@<TRIPOS>BOND
     1     4     3    2
     2     3     2    1
     3    43    42    2
     4     2     1    1
     5     2     5    1
     6    42    41    1
     7    44    41    1
     8    44    45    1
     9    39    37   am
    10     5     6    1
    11     8     6   ar
    12     8    10   ar
    13    41    40    1
    14     6     7   ar
    15    10     9   ar
    16    36    37    1
    17    36    35    1
    18    37    38    2
    19    34    33    2
    20    33    32    1
    21     7     9   ar
    22    35    32    1
    23    32    31    1
    24    49    48    2
    25    28    27    2
    26    50    52    1
    27    50    47    1
    28    50    51    1
    29    46    47    1
    30    48    47    1
    31    48    53   am
    32    31    27   am
    33    27    26    1
    34    56    55    2
    35    54    53    1
    36    54    55    1
    37    54    57    1
    38    26    25    1
    39    26    29    1
    40    55    59   am
    41    58    57    1
    42    25    21   am
    43    29    30    1
    44    30    86    1
    45    23    20    1
    46    23    24    1
    47    21    20    1
    48    21    22    2
    49    59    60    1
    50    20    19    1
    51   104   106   ar
    52   104   103   ar
    53   106   108   ar
    54    60    63    1
    55    60    61    1
    56    63    64    1
    57   100    99    1
    58   100   101    2
    59    86    85    1
    60    99   102    1
    61    99    98    1
    62    14    13    2
    63   102   103    1
    64    94    93    2
    65   103   105   ar
    66    19    13   am
    67    65    64   ar
    68    65    67   ar
    69   108   109    1
    70   108   107   ar
    71    64    66   ar
    72    61    73   am
    73    61    62    2
    74    13    12    1
    75    85    82    1
    76    98    93   am
    77    93    92    1
    78    73    74    1
    79   105   107   ar
    80    67    68   ar
    81    66    68   ar
    82    66    69   ar
    83    76    75    2
    84    80    79    2
    85    12    11    1
    86    12    15    1
    87    74    75    1
    88    82    81    1
    89    82    83    1
    90    79    81   am
    91    79    78    1
    92    68    70   ar
    93    92    91    1
    94    92    95    1
    95    17    16   ar
    96    91    89   am
    97    78    77    1
    98    69    71   ar
    99    15    16    1
   100    95    96    1
   101    95    97    1
   102    16    18   ar
   103    88    89    1
   104    88    87    1
   105    89    90    2
   106    83    84    2
   107    70    72   ar
   108    71    72   ar
