@<TRIPOS>MOLECULE
tmp/3rxkA00.pdb
 97 95 0 0 0
SMALL
GASTEIGER

@<TRIPOS>ATOM
      1  N          7.2920  -16.7750    8.6720 N.3    40  HIS40      -0.1241
      2  CA         6.3120  -17.8690    8.6400 C.3    40  HIS40       0.1621
      3  C          5.2420  -17.6600    7.5550 C.2    40  HIS40       0.2264
      4  O          4.4500  -18.5670    7.2870 O.2    40  HIS40      -0.2867
      5  CB         5.7010  -18.1230   10.0290 C.3    40  HIS40       0.0745
      6  CG         4.5890  -17.1920   10.4070 C.ar   40  HIS40       0.0817
      7  ND1        4.7810  -16.0970   11.2220 N.ar   40  HIS40      -0.2268
      8  CD2        3.2640  -17.2240   10.1280 C.ar   40  HIS40       0.1154
      9  CE1        3.6280  -15.4770   11.4030 C.ar   40  HIS40       0.1986
     10  NE2        2.6890  -16.1430   10.7530 N.ar   40  HIS40      -0.2212
     11  N         -6.7900   -8.2230   20.3110 N.3   171  ASP171     -0.1225
     12  CA        -5.5770   -8.9250   19.8900 C.3   171  ASP171      0.1805
     13  C         -5.5240   -9.0620   18.3720 C.2   171  ASP171      0.2598
     14  O         -6.5270   -8.8590   17.6870 O.2   171  ASP171     -0.2718
     15  CB        -5.5800  -10.3280   20.5210 C.3   171  ASP171      0.1424
     16  CG        -4.1940  -10.9500   20.6410 C.2   171  ASP171      0.3668
     17  OD1       -3.1880  -10.3650   20.1900 O.co2 171  ASP171     -0.2456
     18  OD2       -4.1220  -12.0640   21.2010 O.co2 171  ASP171     -0.2456
     19  N         -4.3490   -9.3960   17.8510 N.am  172  SER172     -0.1938
     20  CA        -4.2320   -9.8600   16.4710 C.3   172  SER172      0.2055
     21  C         -4.5890  -11.3460   16.4490 C.2   172  SER172      0.2643
     22  O         -4.6510  -11.9920   17.5000 O.2   172  SER172     -0.2714
     23  CB        -2.8190   -9.6350   15.9240 C.3   172  SER172      0.2130
     24  OG        -1.8480  -10.2830   16.7210 O.3   172  SER172     -0.2179
     25  N         -4.8130  -11.8920   15.2600 N.am  173  CYS173     -0.1953
     26  CA        -5.2410  -13.2800   15.1420 C.3   173  CYS173      0.1843
     27  C         -4.7870  -13.8900   13.8150 C.2   173  CYS173      0.2625
     28  O         -4.0610  -13.2610   13.0500 O.2   173  CYS173     -0.2714
     29  CB        -6.7670  -13.3540   15.2990 C.3   173  CYS173      0.0997
     30  SG        -7.4290  -14.9620   15.8200 S.3   173  CYS173     -0.0797
     31  N         -5.2000  -15.1300   13.5740 N.am  174  GLN174     -0.1977
     32  CA        -4.8920  -15.8470   12.3410 C.3   174  GLN174      0.1601
     33  C         -5.2550  -15.0170   11.1110 C.2   174  GLN174      0.2287
     34  O         -6.3630  -14.4920   11.0210 O.2   174  GLN174     -0.2864
     35  CB        -5.6580  -17.1730   12.3340 C.3   174  GLN174      0.0394
     36  CG        -5.4230  -18.0450   11.1240 C.3   174  GLN174      0.0908
     37  CD        -5.9820  -19.4460   11.2940 C.2   174  GLN174      0.2608
     38  OE1       -6.6650  -19.7530   12.2830 O.2   174  GLN174     -0.2717
     39  NE2       -5.6950  -20.3080   10.3260 N.am  174  GLN174     -0.0878
     40  N         -1.0280  -12.3580   10.4780 N.3   177  SER177     -0.1217
     41  CA         0.3790  -12.7380   10.3140 C.3   177  SER177      0.1889
     42  C          1.1190  -11.8850    9.2980 C.2   177  SER177      0.2288
     43  O          0.6510  -11.7100    8.1750 O.2   177  SER177     -0.2866
     44  CB         0.4690  -14.1870    9.8240 C.3   177  SER177      0.2089
     45  OG         0.1720  -15.1130   10.8450 O.3   177  SER177     -0.2183
     46  N          3.3560   -8.8990   13.0370 N.3   191  VAL191     -0.1231
     47  CA         2.4700   -9.8960   13.6430 C.3   191  VAL191      0.1692
     48  C          3.0980  -11.2830   13.4790 C.2   191  VAL191      0.2593
     49  O          3.2870  -11.7520   12.3580 O.2   191  VAL191     -0.2718
     50  CB         1.0590   -9.8710   13.0160 C.3   191  VAL191      0.0266
     51  CG1        0.1620  -10.9070   13.6840 C.3   191  VAL191      0.0020
     52  CG2        0.4370   -8.4790   13.1300 C.3   191  VAL191      0.0020
     53  N          3.4380  -11.9180   14.6000 N.am  192  SER192     -0.1938
     54  CA         4.2080  -13.1570   14.5820 C.3   192  SER192      0.2055
     55  C          3.4140  -14.3420   15.1270 C.2   192  SER192      0.2643
     56  O          3.1040  -15.2620   14.3850 O.2   192  SER192     -0.2714
     57  CB         5.5170  -12.9810   15.3580 C.3   192  SER192      0.2130
     58  OG         6.3410  -14.1230   15.2110 O.3   192  SER192     -0.2179
     59  N          3.0920  -14.3350   16.4160 N.am  193  TRP193     -0.1959
     60  CA         2.4110  -15.4830   17.0060 C.3   193  TRP193      0.1771
     61  C          1.6850  -15.1810   18.3130 C.2   193  TRP193      0.2620
     62  O          1.7650  -14.0820   18.8470 O.2   193  TRP193     -0.2715
     63  CB         3.4050  -16.6390   17.2040 C.3   193  TRP193      0.0590
     64  CG         4.5090  -16.3940   18.2120 C.ar  193  TRP193      0.0006
     65  CD1        5.7110  -15.7900   17.9860 C.ar  193  TRP193      0.0946
     66  CD2        4.5180  -16.7960   19.5880 C.ar  193  TRP193      0.0152
     67  NE1        6.4640  -15.7740   19.1370 N.ar  193  TRP193     -0.2442
     68  CE2        5.7560  -16.3900   20.1350 C.ar  193  TRP193      0.0810
     69  CE3        3.6020  -17.4610   20.4110 C.ar  193  TRP193      0.0012
     70  CZ2        6.0950  -16.6220   21.4690 C.ar  193  TRP193      0.0191
     71  CZ3        3.9420  -17.6930   21.7320 C.ar  193  TRP193      0.0001
     72  CH2        5.1780  -17.2750   22.2480 C.ar  193  TRP193      0.0015
     73  N          0.9490  -16.1790   18.7910 N.am  194  GLY194     -0.1954
     74  CA         0.2890  -16.1190   20.0870 C.3   194  GLY194      0.1869
     75  C         -0.3390  -17.4620   20.4030 C.2   194  GLY194      0.2309
     76  O         -0.3190  -18.3680   19.5730 O.2   194  GLY194     -0.2863
     77  N         -3.7210  -18.9120   20.7640 N.3   196  GLY196     -0.1210
     78  CA        -5.0710  -18.4640   20.4300 C.3   196  GLY196      0.1956
     79  C         -5.0620  -16.9600   20.2130 C.2   196  GLY196      0.2612
     80  O         -4.0050  -16.3750   19.9630 O.2   196  GLY196     -0.2717
     81  N         -6.2320  -16.3340   20.3080 N.am  197  CYS197     -0.1970
     82  CA        -6.3510  -14.8830   20.1280 C.3   197  CYS197      0.1712
     83  C         -7.2280  -14.2660   21.2000 C.2   197  CYS197      0.2296
     84  O         -8.2930  -14.7930   21.5140 O.2   197  CYS197     -0.2864
     85  CB        -6.9540  -14.5480   18.7640 C.3   197  CYS197      0.0983
     86  SG        -6.2930  -15.5120   17.4160 S.3   197  CYS197     -0.0798
     87  N         -0.6490  -10.9150   22.0920 N.3   204  GLY204     -0.1210
     88  CA         0.0590  -11.1610   20.8490 C.3   204  GLY204      0.1956
     89  C          1.5540  -10.9570   20.9980 C.2   204  GLY204      0.2611
     90  O          2.0010  -10.0950   21.7640 O.2   204  GLY204     -0.2717
     91  N          2.3190  -11.7640   20.2640 N.am  205  VAL205     -0.1979
     92  CA         3.7750  -11.6700   20.2290 C.3   205  VAL205      0.1595
     93  C          4.1910  -11.2070   18.8390 C.2   205  VAL205      0.2287
     94  O          3.6260  -11.6460   17.8290 O.2   205  VAL205     -0.2864
     95  CB         4.4470  -13.0200   20.5710 C.3   205  VAL205      0.0276
     96  CG1        5.9570  -12.8440   20.7170 C.3   205  VAL205      0.0022
     97  CG2        3.8560  -13.5850   21.8560 C.3   205  VAL205      0.0022
@<TRIPOS>BOND
     1     4     3    2
     2     3     2    1
     3    43    42    2
     4     2     1    1
     5     2     5    1
     6    42    41    1
     7    44    41    1
     8    44    45    1
     9     5     6    1
    10     8     6   ar
    11     8    10   ar
    12    41    40    1
    13    39    37   am
    14     6     7   ar
    15    10     9   ar
    16    34    33    2
    17    33    32    1
    18    36    37    1
    19    36    35    1
    20     7     9   ar
    21    37    38    2
    22    35    32    1
    23    32    31    1
    24    49    48    2
    25    50    52    1
    26    50    47    1
    27    50    51    1
    28    46    47    1
    29    28    27    2
    30    48    47    1
    31    48    53   am
    32    31    27   am
    33    27    26    1
    34    56    55    2
    35    54    53    1
    36    54    55    1
    37    54    57    1
    38    55    59   am
    39    26    25    1
    40    26    29    1
    41    58    57    1
    42    25    21   am
    43    29    30    1
    44    30    86    1
    45    23    20    1
    46    23    24    1
    47    59    60    1
    48    21    20    1
    49    21    22    2
    50    20    19    1
    51    60    63    1
    52    60    61    1
    53    63    64    1
    54    86    85    1
    55    14    13    2
    56    94    93    2
    57    19    13   am
    58    65    64   ar
    59    65    67   ar
    60    64    66   ar
    61    61    73   am
    62    61    62    2
    63    13    12    1
    64    85    82    1
    65    73    74    1
    66    93    92    1
    67    67    68   ar
    68    76    75    2
    69    66    68   ar
    70    66    69   ar
    71    12    11    1
    72    12    15    1
    73    80    79    2
    74    74    75    1
    75    82    81    1
    76    82    83    1
    77    68    70   ar
    78    17    16   ar
    79    79    81   am
    80    79    78    1
    81    92    91    1
    82    92    95    1
    83    91    89   am
    84    69    71   ar
    85    78    77    1
    86    15    16    1
    87    95    96    1
    88    95    97    1
    89    16    18   ar
    90    88    89    1
    91    88    87    1
    92    89    90    2
    93    83    84    2
    94    70    72   ar
    95    71    72   ar
