@<TRIPOS>MOLECULE
tmp/3rxlA00.pdb
 89 86 0 0 0
SMALL
GASTEIGER

@<TRIPOS>ATOM
      1  N         -6.8600   -8.1840   20.3290 N.3   171  ASP171     -0.1225
      2  CA        -5.6490   -8.8960   19.9180 C.3   171  ASP171      0.1805
      3  C         -5.5960   -9.0370   18.3960 C.2   171  ASP171      0.2598
      4  O         -6.5960   -8.8360   17.7070 O.2   171  ASP171     -0.2718
      5  CB        -5.6590  -10.2970   20.5580 C.3   171  ASP171      0.1424
      6  CG        -4.2820  -10.9620   20.6190 C.2   171  ASP171      0.3668
      7  OD1       -3.2540  -10.3530   20.2620 O.co2 171  ASP171     -0.2456
      8  OD2       -4.2430  -12.1350   21.0510 O.co2 171  ASP171     -0.2456
      9  N         -4.4180   -9.3700   17.8800 N.am  172  SER172     -0.1938
     10  CA        -4.2890   -9.8590   16.5140 C.3   172  SER172      0.2055
     11  C         -4.7210  -11.3290   16.4830 C.2   172  SER172      0.2643
     12  O         -4.8930  -11.9540   17.5330 O.2   172  SER172     -0.2714
     13  CB        -2.8480   -9.7160   16.0240 C.3   172  SER172      0.2130
     14  OG        -1.9510  -10.4130   16.8690 O.3   172  SER172     -0.2179
     15  N         -4.8870  -11.8830   15.2860 N.am  173  CYS173     -0.1953
     16  CA        -5.3430  -13.2640   15.1510 C.3   173  CYS173      0.1843
     17  C         -4.9360  -13.8540   13.7990 C.2   173  CYS173      0.2625
     18  O         -4.3110  -13.1720   12.9850 O.2   173  CYS173     -0.2714
     19  CB        -6.8620  -13.3170   15.3490 C.3   173  CYS173      0.0997
     20  SG        -7.5290  -14.9110   15.8740 S.3   173  CYS173     -0.0797
     21  N         -5.2820  -15.1220   13.5710 N.am  174  GLN174     -0.1977
     22  CA        -4.9420  -15.8040   12.3230 C.3   174  GLN174      0.1601
     23  C         -5.3400  -14.9700   11.1090 C.2   174  GLN174      0.2287
     24  O         -6.4690  -14.4880   11.0290 O.2   174  GLN174     -0.2864
     25  CB        -5.6220  -17.1750   12.2480 C.3   174  GLN174      0.0394
     26  CG        -5.4690  -17.8510   10.8880 C.3   174  GLN174      0.0908
     27  CD        -5.7100  -19.3420   10.9170 C.2   174  GLN174      0.2608
     28  OE1       -6.4770  -19.8530   11.7440 O.2   174  GLN174     -0.2717
     29  NE2       -5.0550  -20.0590   10.0040 N.am  174  GLN174     -0.0878
     30  N         -1.0650  -12.3310   10.4710 N.3   177  SER177     -0.1217
     31  CA         0.3440  -12.7120   10.3010 C.3   177  SER177      0.1889
     32  C          1.0890  -11.8440    9.3100 C.2   177  SER177      0.2288
     33  O          0.6210  -11.6500    8.1920 O.2   177  SER177     -0.2866
     34  CB         0.4280  -14.1480    9.7810 C.3   177  SER177      0.2089
     35  OG         0.1260  -15.0710   10.7940 O.3   177  SER177     -0.2183
     36  N          3.3600   -8.8560   13.0040 N.3   191  VAL191     -0.1231
     37  CA         2.4730   -9.8430   13.6280 C.3   191  VAL191      0.1692
     38  C          3.0870  -11.2300   13.4650 C.2   191  VAL191      0.2593
     39  O          3.2840  -11.6950   12.3460 O.2   191  VAL191     -0.2718
     40  CB         1.0600   -9.8280   13.0130 C.3   191  VAL191      0.0266
     41  CG1        0.1640  -10.8330   13.7210 C.3   191  VAL191      0.0020
     42  CG2        0.4510   -8.4350   13.0900 C.3   191  VAL191      0.0020
     43  N          3.3920  -11.8800   14.5880 N.am  192  SER192     -0.1938
     44  CA         4.1730  -13.1190   14.5640 C.3   192  SER192      0.2055
     45  C          3.3990  -14.2990   15.1570 C.2   192  SER192      0.2643
     46  O          3.0670  -15.2320   14.4410 O.2   192  SER192     -0.2714
     47  CB         5.5060  -12.9110   15.2870 C.3   192  SER192      0.2130
     48  OG         6.3430  -14.0470   15.1820 O.3   192  SER192     -0.2179
     49  N          3.1080  -14.2670   16.4520 N.am  193  TRP193     -0.1959
     50  CA         2.4560  -15.4100   17.0870 C.3   193  TRP193      0.1771
     51  C          1.7420  -15.0910   18.3980 C.2   193  TRP193      0.2620
     52  O          1.6930  -13.9440   18.8370 O.2   193  TRP193     -0.2715
     53  CB         3.4650  -16.5540   17.2800 C.3   193  TRP193      0.0590
     54  CG         4.5840  -16.2950   18.2560 C.ar  193  TRP193      0.0006
     55  CD1        5.7690  -15.6670   17.9980 C.ar  193  TRP193      0.0946
     56  CD2        4.6430  -16.7100   19.6260 C.ar  193  TRP193      0.0152
     57  NE1        6.5530  -15.6450   19.1270 N.ar  193  TRP193     -0.2442
     58  CE2        5.8870  -16.2760   20.1420 C.ar  193  TRP193      0.0810
     59  CE3        3.7610  -17.3920   20.4750 C.ar  193  TRP193      0.0012
     60  CZ2        6.2740  -16.5130   21.4630 C.ar  193  TRP193      0.0191
     61  CZ3        4.1480  -17.6240   21.7920 C.ar  193  TRP193      0.0001
     62  CH2        5.3940  -17.1890   22.2670 C.ar  193  TRP193      0.0015
     63  N          1.1340  -16.1200   18.9730 N.am  194  GLY194     -0.1954
     64  CA         0.5110  -16.0330   20.2880 C.3   194  GLY194      0.1869
     65  C         -0.0680  -17.3870   20.6390 C.2   194  GLY194      0.2309
     66  O          0.3040  -18.3920   20.0430 O.2   194  GLY194     -0.2863
     67  N         -3.8280  -18.7960   20.8480 N.3   196  GLY196     -0.1210
     68  CA        -5.1960  -18.3660   20.5640 C.3   196  GLY196      0.1956
     69  C         -5.2220  -16.8690   20.3010 C.2   196  GLY196      0.2612
     70  O         -4.1830  -16.2690   20.0180 O.2   196  GLY196     -0.2717
     71  N         -6.4000  -16.2610   20.4020 N.am  197  CYS197     -0.1970
     72  CA        -6.5370  -14.8140   20.1890 C.3   197  CYS197      0.1712
     73  C         -7.3960  -14.1790   21.2610 C.2   197  CYS197      0.2296
     74  O         -8.4650  -14.6930   21.5930 O.2   197  CYS197     -0.2864
     75  CB        -7.1620  -14.5210   18.8280 C.3   197  CYS197      0.0983
     76  SG        -6.4240  -15.4400   17.4920 S.3   197  CYS197     -0.0798
     77  N         -2.6200  -13.9200   27.4860 N.3   202  LYS202     -0.1245
     78  CA        -1.9620  -14.4230   26.2820 C.3   202  LYS202      0.1561
     79  C         -2.0030  -13.3590   25.1900 C.2   202  LYS202      0.2260
     80  O         -2.7230  -13.4920   24.2050 O.2   202  LYS202     -0.2867
     81  CB        -2.6120  -15.7280   25.8150 C.3   202  LYS202      0.0271
     82  CG        -2.4160  -16.9000   26.7870 C.3   202  LYS202      0.0035
     83  CD        -0.9460  -17.2990   26.9140 C.3   202  LYS202      0.0206
     84  CE        -0.7480  -18.4850   27.8400 C.3   202  LYS202      0.1093
     85  NZ         0.6920  -18.8760   27.9520 N.3   202  LYS202     -0.1314
     86  N         -0.6600  -10.8760   22.0310 N.3   204  GLY204     -0.1225
     87  CA         0.0800  -11.1000   20.8010 C.3   204  GLY204      0.1811
     88  C          1.5720  -10.8880   20.9690 C.2   204  GLY204      0.2280
     89  O          2.0080  -10.0350   21.7500 O.2   204  GLY204     -0.2866
@<TRIPOS>BOND
     1    33    32    2
     2    32    31    1
     3    34    31    1
     4    34    35    1
     5    29    27   am
     6    31    30    1
     7    26    27    1
     8    26    25    1
     9    27    28    2
    10    24    23    2
    11    23    22    1
    12    25    22    1
    13    22    21    1
    14    39    38    2
    15    18    17    2
    16    36    37    1
    17    40    42    1
    18    40    37    1
    19    40    41    1
    20    38    37    1
    21    38    43   am
    22    21    17   am
    23    17    16    1
    24    46    45    2
    25    44    43    1
    26    44    45    1
    27    44    47    1
    28    16    15    1
    29    16    19    1
    30    45    49   am
    31    48    47    1
    32    15    11   am
    33    19    20    1
    34    20    76    1
    35    13    10    1
    36    13    14    1
    37    49    50    1
    38    11    10    1
    39    11    12    2
    40    10     9    1
    41    50    53    1
    42    50    51    1
    43    53    54    1
    44    76    75    1
    45     4     3    2
    46     9     3   am
    47    55    54   ar
    48    55    57   ar
    49    54    56   ar
    50     3     2    1
    51    51    52    2
    52    51    63   am
    53    75    72    1
    54    63    64    1
    55    57    58   ar
    56    56    58   ar
    57    56    59   ar
    58     2     1    1
    59     2     5    1
    60    70    69    2
    61    66    65    2
    62    58    60   ar
    63    72    71    1
    64    72    73    1
    65     7     6   ar
    66    64    65    1
    67    69    71   am
    68    69    68    1
    69    59    61   ar
    70     5     6    1
    71    68    67    1
    72     6     8   ar
    73    87    88    1
    74    87    86    1
    75    88    89    2
    76    73    74    2
    77    60    62   ar
    78    61    62   ar
    79    80    79    2
    80    79    78    1
    81    81    78    1
    82    81    82    1
    83    78    77    1
    84    82    83    1
    85    83    84    1
    86    84    85    1
