@<TRIPOS>MOLECULE
tmp/3rxpA00.pdb
 96 93 0 0 0
SMALL
GASTEIGER

@<TRIPOS>ATOM
      1  N         -6.8430   -8.1710   20.3350 N.3   171  ASP171     -0.1225
      2  CA        -5.6370   -8.8930   19.9260 C.3   171  ASP171      0.1805
      3  C         -5.5840   -9.0370   18.4070 C.2   171  ASP171      0.2598
      4  O         -6.5820   -8.8170   17.7200 O.2   171  ASP171     -0.2718
      5  CB        -5.6600  -10.2890   20.5740 C.3   171  ASP171      0.1424
      6  CG        -4.2910  -10.9560   20.6480 C.2   171  ASP171      0.3668
      7  OD1       -3.2650  -10.3490   20.2800 O.co2 171  ASP171     -0.2456
      8  OD2       -4.2570  -12.1250   21.0930 O.co2 171  ASP171     -0.2456
      9  N         -4.4120   -9.3900   17.8900 N.am  172  SER172     -0.1938
     10  CA        -4.2940   -9.8640   16.5140 C.3   172  SER172      0.2055
     11  C         -4.7190  -11.3330   16.4810 C.2   172  SER172      0.2643
     12  O         -4.8940  -11.9590   17.5310 O.2   172  SER172     -0.2714
     13  CB        -2.8620   -9.7070   16.0020 C.3   172  SER172      0.2130
     14  OG        -1.9430  -10.3560   16.8560 O.3   172  SER172     -0.2179
     15  N         -4.8840  -11.8830   15.2830 N.am  173  CYS173     -0.1953
     16  CA        -5.3530  -13.2550   15.1490 C.3   173  CYS173      0.1843
     17  C         -4.9570  -13.8500   13.7990 C.2   173  CYS173      0.2625
     18  O         -4.2890  -13.1970   12.9960 O.2   173  CYS173     -0.2714
     19  CB        -6.8740  -13.2970   15.3520 C.3   173  CYS173      0.0997
     20  SG        -7.5510  -14.8940   15.8860 S.3   173  CYS173     -0.0797
     21  N         -5.3500  -15.1000   13.5710 N.am  174  GLN174     -0.1977
     22  CA        -5.0360  -15.8030   12.3290 C.3   174  GLN174      0.1601
     23  C         -5.3850  -14.9650   11.1040 C.2   174  GLN174      0.2287
     24  O         -6.5010  -14.4660   10.9890 O.2   174  GLN174     -0.2864
     25  CB        -5.7910  -17.1310   12.2740 C.3   174  GLN174      0.0394
     26  CG        -5.5590  -17.9150   10.9930 C.3   174  GLN174      0.0908
     27  CD        -5.9930  -19.3610   11.0860 C.2   174  GLN174      0.2608
     28  OE1       -6.5980  -19.7920   12.0750 O.2   174  GLN174     -0.2717
     29  NE2       -5.6790  -20.1280   10.0480 N.am  174  GLN174     -0.0878
     30  N         -1.0670  -12.3340   10.4520 N.3   177  SER177     -0.1217
     31  CA         0.3410  -12.7160   10.2790 C.3   177  SER177      0.1889
     32  C          1.0870  -11.8520    9.2840 C.2   177  SER177      0.2288
     33  O          0.6250  -11.6670    8.1570 O.2   177  SER177     -0.2866
     34  CB         0.4310  -14.1560    9.7630 C.3   177  SER177      0.2089
     35  OG         0.1390  -15.0880   10.7740 O.3   177  SER177     -0.2183
     36  N          3.3600   -8.8850   13.0220 N.3   191  VAL191     -0.1231
     37  CA         2.4710   -9.8860   13.6340 C.3   191  VAL191      0.1692
     38  C          3.0870  -11.2780   13.4680 C.2   191  VAL191      0.2593
     39  O          3.2770  -11.7420   12.3460 O.2   191  VAL191     -0.2718
     40  CB         1.0610   -9.8540   13.0080 C.3   191  VAL191      0.0266
     41  CG1        0.1440  -10.8590   13.6940 C.3   191  VAL191      0.0020
     42  CG2        0.4540   -8.4500   13.0900 C.3   191  VAL191      0.0020
     43  N          3.4220  -11.9230   14.5880 N.am  192  SER192     -0.1938
     44  CA         4.2180  -13.1500   14.5590 C.3   192  SER192      0.2055
     45  C          3.4730  -14.3520   15.1360 C.2   192  SER192      0.2643
     46  O          3.2180  -15.3130   14.4170 O.2   192  SER192     -0.2714
     47  CB         5.5450  -12.9330   15.2960 C.3   192  SER192      0.2130
     48  OG         6.3850  -14.0730   15.2070 O.3   192  SER192     -0.2179
     49  N          3.1370  -14.3210   16.4220 N.am  193  TRP193     -0.1959
     50  CA         2.4860  -15.4790   17.0340 C.3   193  TRP193      0.1771
     51  C          1.7310  -15.1810   18.3220 C.2   193  TRP193      0.2620
     52  O          1.7610  -14.0700   18.8410 O.2   193  TRP193     -0.2715
     53  CB         3.5050  -16.6170   17.2490 C.3   193  TRP193      0.0590
     54  CG         4.6130  -16.3540   18.2430 C.ar  193  TRP193      0.0006
     55  CD1        5.8190  -15.7590   17.9990 C.ar  193  TRP193      0.0946
     56  CD2        4.6320  -16.7370   19.6230 C.ar  193  TRP193      0.0152
     57  NE1        6.5790  -15.7260   19.1460 N.ar  193  TRP193     -0.2442
     58  CE2        5.8730  -16.3240   20.1570 C.ar  193  TRP193      0.0810
     59  CE3        3.7180  -17.3850   20.4610 C.ar  193  TRP193      0.0012
     60  CZ2        6.2200  -16.5360   21.4910 C.ar  193  TRP193      0.0191
     61  CZ3        4.0670  -17.5960   21.7860 C.ar  193  TRP193      0.0001
     62  CH2        5.3060  -17.1740   22.2860 C.ar  193  TRP193      0.0015
     63  N          1.0230  -16.1920   18.8090 N.am  194  GLY194     -0.1954
     64  CA         0.3390  -16.1090   20.0890 C.3   194  GLY194      0.1869
     65  C         -0.2000  -17.4680   20.4750 C.2   194  GLY194      0.2309
     66  O          0.1850  -18.4730   19.8860 O.2   194  GLY194     -0.2863
     67  N         -3.9410  -18.8650   20.7900 N.3   196  GLY196     -0.1210
     68  CA        -5.3010  -18.4160   20.5250 C.3   196  GLY196      0.1956
     69  C         -5.2910  -16.9190   20.2630 C.2   196  GLY196      0.2612
     70  O         -4.2450  -16.3400   19.9510 O.2   196  GLY196     -0.2717
     71  N         -6.4510  -16.2860   20.3970 N.am  197  CYS197     -0.1970
     72  CA        -6.5620  -14.8390   20.2010 C.3   197  CYS197      0.1712
     73  C         -7.4080  -14.2110   21.2860 C.2   197  CYS197      0.2296
     74  O         -8.4600  -14.7390   21.6440 O.2   197  CYS197     -0.2864
     75  CB        -7.1760  -14.5250   18.8390 C.3   197  CYS197      0.0983
     76  SG        -6.4190  -15.4210   17.4860 S.3   197  CYS197     -0.0798
     77  N         -2.6250  -13.9300   27.4590 N.3   202  LYS202     -0.1245
     78  CA        -1.9830  -14.4420   26.2480 C.3   202  LYS202      0.1561
     79  C         -2.0220  -13.3730   25.1580 C.2   202  LYS202      0.2260
     80  O         -2.7500  -13.5010   24.1690 O.2   202  LYS202     -0.2867
     81  CB        -2.6530  -15.7360   25.7810 C.3   202  LYS202      0.0271
     82  CG        -2.4760  -16.9110   26.7450 C.3   202  LYS202      0.0035
     83  CD        -1.0120  -17.3310   26.8530 C.3   202  LYS202      0.0206
     84  CE        -0.8270  -18.5080   27.7880 C.3   202  LYS202      0.1093
     85  NZ         0.6110  -18.8440   27.9480 N.3   202  LYS202     -0.1314
     86  N         -0.6520  -10.8590   22.0220 N.3   204  GLY204     -0.1210
     87  CA         0.0680  -11.1080   20.7870 C.3   204  GLY204      0.1956
     88  C          1.5640  -10.9370   20.9470 C.2   204  GLY204      0.2611
     89  O          2.0260  -10.1120   21.7440 O.2   204  GLY204     -0.2717
     90  N          2.3200  -11.7300   20.1890 N.am  205  VAL205     -0.1979
     91  CA         3.7750  -11.6380   20.1560 C.3   205  VAL205      0.1595
     92  C          4.2000  -11.1730   18.7670 C.2   205  VAL205      0.2287
     93  O          3.6450  -11.6100   17.7480 O.2   205  VAL205     -0.2864
     94  CB         4.4510  -12.9800   20.5140 C.3   205  VAL205      0.0276
     95  CG1        5.9540  -12.7930   20.6420 C.3   205  VAL205      0.0022
     96  CG2        3.8750  -13.5340   21.8090 C.3   205  VAL205      0.0022
@<TRIPOS>BOND
     1    33    32    2
     2    32    31    1
     3    34    31    1
     4    34    35    1
     5    29    27   am
     6    31    30    1
     7    24    23    2
     8    26    27    1
     9    26    25    1
    10    27    28    2
    11    23    22    1
    12    25    22    1
    13    22    21    1
    14    39    38    2
    15    18    17    2
    16    40    42    1
    17    40    37    1
    18    40    41    1
    19    36    37    1
    20    38    37    1
    21    38    43   am
    22    21    17   am
    23    17    16    1
    24    46    45    2
    25    44    43    1
    26    44    45    1
    27    44    47    1
    28    45    49   am
    29    16    15    1
    30    16    19    1
    31    48    47    1
    32    15    11   am
    33    19    20    1
    34    20    76    1
    35    13    10    1
    36    13    14    1
    37    49    50    1
    38    11    10    1
    39    11    12    2
    40    10     9    1
    41    50    53    1
    42    50    51    1
    43    53    54    1
    44    76    75    1
    45     4     3    2
    46    93    92    2
    47     9     3   am
    48    55    54   ar
    49    55    57   ar
    50    54    56   ar
    51    51    63   am
    52    51    52    2
    53     3     2    1
    54    92    91    1
    55    63    64    1
    56    75    72    1
    57    57    58   ar
    58    56    58   ar
    59    56    59   ar
    60    66    65    2
    61     2     1    1
    62     2     5    1
    63    70    69    2
    64    64    65    1
    65    91    90    1
    66    91    94    1
    67    58    60   ar
    68    90    88   am
    69    72    71    1
    70    72    73    1
    71    69    71   am
    72    69    68    1
    73     7     6   ar
    74    59    61   ar
    75    94    95    1
    76    94    96    1
    77    68    67    1
    78     5     6    1
    79     6     8   ar
    80    87    88    1
    81    87    86    1
    82    88    89    2
    83    73    74    2
    84    60    62   ar
    85    61    62   ar
    86    80    79    2
    87    79    78    1
    88    81    78    1
    89    81    82    1
    90    78    77    1
    91    82    83    1
    92    83    84    1
    93    84    85    1
