@<TRIPOS>MOLECULE
tmp/3rxrA00.pdb
 109 108 0 0 0
SMALL
GASTEIGER

@<TRIPOS>ATOM
      1  N          7.2850  -16.6570    8.6510 N.3    40  HIS40      -0.1241
      2  CA         6.3070  -17.7470    8.6160 C.3    40  HIS40       0.1621
      3  C          5.2290  -17.5430    7.5410 C.2    40  HIS40       0.2264
      4  O          4.4330  -18.4530    7.2820 O.2    40  HIS40      -0.2867
      5  CB         5.7140  -18.0160   10.0000 C.3    40  HIS40       0.0745
      6  CG         4.6570  -17.0500   10.4270 C.ar   40  HIS40       0.0817
      7  ND1        3.3290  -17.2210   10.1090 N.ar   40  HIS40      -0.2268
      8  CD2        4.7190  -15.9450   11.2050 C.ar   40  HIS40       0.1154
      9  CE1        2.6220  -16.2450   10.6490 C.ar   40  HIS40       0.1986
     10  NE2        3.4410  -15.4540   11.3190 N.ar   40  HIS40      -0.2212
     11  N         -6.7830   -8.2300   20.2240 N.3   171  ASP171     -0.1225
     12  CA        -5.5580   -8.9110   19.7830 C.3   171  ASP171      0.1805
     13  C         -5.5280   -9.0420   18.2620 C.2   171  ASP171      0.2598
     14  O         -6.5460   -8.8530   17.5960 O.2   171  ASP171     -0.2718
     15  CB        -5.5160  -10.3180   20.4090 C.3   171  ASP171      0.1424
     16  CG        -4.1070  -10.9110   20.5040 C.2   171  ASP171      0.3668
     17  OD1       -3.1190  -10.2870   20.0580 O.co2 171  ASP171     -0.2456
     18  OD2       -4.0080  -12.0410   21.0320 O.co2 171  ASP171     -0.2456
     19  N         -4.3560   -9.3660   17.7230 N.am  172  SER172     -0.1938
     20  CA        -4.2380   -9.8270   16.3440 C.3   172  SER172      0.2055
     21  C         -4.5590  -11.3190   16.3140 C.2   172  SER172      0.2643
     22  O         -4.5090  -11.9860   17.3470 O.2   172  SER172     -0.2714
     23  CB        -2.8340   -9.5630   15.7940 C.3   172  SER172      0.2130
     24  OG        -1.8340  -10.1200   16.6280 O.3   172  SER172     -0.2179
     25  N         -4.8950  -11.8430   15.1380 N.am  173  CYS173     -0.1953
     26  CA        -5.3520  -13.2280   15.0330 C.3   173  CYS173      0.1843
     27  C         -4.9750  -13.8290   13.6760 C.2   173  CYS173      0.2625
     28  O         -4.2380  -13.2140   12.9060 O.2   173  CYS173     -0.2714
     29  CB        -6.8660  -13.2840   15.2880 C.3   173  CYS173      0.0997
     30  SG        -7.5290  -14.8900   15.8080 S.3   173  CYS173     -0.0797
     31  N         -5.4900  -15.0170   13.3810 N.am  174  GLN174     -0.1977
     32  CA        -5.1140  -15.7210   12.1780 C.3   174  GLN174      0.1601
     33  C         -5.4130  -14.8720   10.9500 C.2   174  GLN174      0.2287
     34  O         -6.4700  -14.3700   10.8440 O.2   174  GLN174     -0.2864
     35  CB        -5.8850  -17.0350   12.0780 C.3   174  GLN174      0.0394
     36  CG        -5.5560  -17.9510   13.1690 C.3   174  GLN174      0.0908
     37  CD        -6.5860  -18.0190   14.2900 C.2   174  GLN174      0.2608
     38  OE1       -7.7740  -18.0020   14.0200 O.2   174  GLN174     -0.2717
     39  NE2       -6.1260  -18.0320   15.5530 N.am  174  GLN174     -0.0878
     40  N         -1.0800  -12.2520   10.4390 N.3   177  SER177     -0.1217
     41  CA         0.3250  -12.6270   10.3180 C.3   177  SER177      0.1889
     42  C          1.0690  -11.7890    9.3020 C.2   177  SER177      0.2288
     43  O          0.5910  -11.6090    8.1890 O.2   177  SER177     -0.2866
     44  CB         0.4230  -14.0790    9.8640 C.3   177  SER177      0.2089
     45  OG         0.0870  -14.9620   10.9100 O.3   177  SER177     -0.2183
     46  N          3.3640   -8.7960   12.9740 N.3   191  VAL191     -0.1231
     47  CA         2.4680   -9.7870   13.5950 C.3   191  VAL191      0.1692
     48  C          3.0840  -11.1760   13.4380 C.2   191  VAL191      0.2593
     49  O          3.2590  -11.6570   12.3160 O.2   191  VAL191     -0.2718
     50  CB         1.0570   -9.7760   12.9660 C.3   191  VAL191      0.0266
     51  CG1        0.1380  -10.7630   13.6820 C.3   191  VAL191      0.0020
     52  CG2        0.4560   -8.3710   13.0000 C.3   191  VAL191      0.0020
     53  N          3.4100  -11.8120   14.5650 N.am  192  SER192     -0.1938
     54  CA         4.2000  -13.0480   14.5450 C.3   192  SER192      0.2055
     55  C          3.4480  -14.2510   15.1200 C.2   192  SER192      0.2643
     56  O          3.1510  -15.2000   14.3930 O.2   192  SER192     -0.2714
     57  CB         5.5270  -12.8320   15.2830 C.3   192  SER192      0.2130
     58  OG         6.3690  -13.9680   15.1790 O.3   192  SER192     -0.2179
     59  N          3.1510  -14.2250   16.4150 N.am  193  TRP193     -0.1959
     60  CA         2.5160  -15.3770   17.0590 C.3   193  TRP193      0.1771
     61  C          1.8210  -15.0640   18.3730 C.2   193  TRP193      0.2620
     62  O          1.8690  -13.9440   18.8740 O.2   193  TRP193     -0.2715
     63  CB         3.5340  -16.5070   17.2670 C.3   193  TRP193      0.0590
     64  CG         4.6350  -16.2420   18.2650 C.ar  193  TRP193      0.0006
     65  CD1        5.8190  -15.6120   18.0230 C.ar  193  TRP193      0.0946
     66  CD2        4.6750  -16.6540   19.6430 C.ar  193  TRP193      0.0152
     67  NE1        6.5880  -15.5820   19.1650 N.ar  193  TRP193     -0.2442
     68  CE2        5.9090  -16.2130   20.1740 C.ar  193  TRP193      0.0810
     69  CE3        3.7830  -17.3360   20.4830 C.ar  193  TRP193      0.0012
     70  CZ2        6.2790  -16.4430   21.5060 C.ar  193  TRP193      0.0191
     71  CZ3        4.1510  -17.5600   21.8080 C.ar  193  TRP193      0.0001
     72  CH2        5.3870  -17.1150   22.3040 C.ar  193  TRP193      0.0015
     73  N          1.1430  -16.0800   18.8940 N.am  194  GLY194     -0.1954
     74  CA         0.4600  -15.9990   20.1770 C.3   194  GLY194      0.1869
     75  C         -0.1960  -17.3340   20.4650 C.2   194  GLY194      0.2309
     76  O         -0.2020  -18.2230   19.6130 O.2   194  GLY194     -0.2863
     77  N         -3.5790  -18.7940   20.7970 N.3   196  GLY196     -0.1210
     78  CA        -4.9270  -18.3520   20.4480 C.3   196  GLY196      0.1956
     79  C         -4.9270  -16.8540   20.1910 C.2   196  GLY196      0.2612
     80  O         -3.8710  -16.2600   19.9600 O.2   196  GLY196     -0.2717
     81  N         -6.1080  -16.2450   20.2310 N.am  197  CYS197     -0.1970
     82  CA        -6.2440  -14.7970   20.0520 C.3   197  CYS197      0.1712
     83  C         -7.1280  -14.2020   21.1310 C.2   197  CYS197      0.2296
     84  O         -8.1890  -14.7420   21.4310 O.2   197  CYS197     -0.2864
     85  CB        -6.8700  -14.4650   18.6940 C.3   197  CYS197      0.0983
     86  SG        -6.3150  -15.4640   17.3260 S.3   197  CYS197     -0.0798
     87  N         -0.6360  -10.8360   22.0610 N.3   204  GLY204     -0.1210
     88  CA         0.0740  -11.0880   20.8220 C.3   204  GLY204      0.1956
     89  C          1.5650  -10.8590   20.9660 C.2   204  GLY204      0.2612
     90  O          1.9980   -9.9890   21.7310 O.2   204  GLY204     -0.2717
     91  N          2.3440  -11.6530   20.2340 N.am  205  VAL205     -0.1965
     92  CA         3.7960  -11.5220   20.2030 C.3   205  VAL205      0.1727
     93  C          4.2110  -11.0620   18.8120 C.2   205  VAL205      0.2616
     94  O          3.6670  -11.5270   17.7970 O.2   205  VAL205     -0.2715
     95  CB         4.5040  -12.8480   20.5700 C.3   205  VAL205      0.0290
     96  CG1        6.0000  -12.6100   20.7620 C.3   205  VAL205      0.0023
     97  CG2        3.8900  -13.4300   21.8290 C.3   205  VAL205      0.0023
     98  N          5.1660  -10.1350   18.7880 N.am  206  TYR206     -0.1974
     99  CA         5.5460   -9.4060   17.5850 C.3   206  TYR206      0.1639
    100  C          7.0570   -9.4110   17.3770 C.2   206  TYR206      0.2290
    101  O          7.8310   -9.3420   18.3390 O.2   206  TYR206     -0.2864
    102  CB         5.0150   -7.9710   17.6880 C.3   206  TYR206      0.0560
    103  CG         3.5140   -7.9620   17.8270 C.ar  206  TYR206     -0.0198
    104  CD1        2.7030   -8.0160   16.7050 C.ar  206  TYR206     -0.0009
    105  CD2        2.9050   -7.9790   19.0820 C.ar  206  TYR206     -0.0009
    106  CE1        1.3240   -8.0490   16.8130 C.ar  206  TYR206      0.0417
    107  CE2        1.5120   -8.0180   19.2040 C.ar  206  TYR206      0.0417
    108  CZ         0.7320   -8.0490   18.0590 C.ar  206  TYR206      0.1957
    109  OH        -0.6400   -8.0870   18.1400 O.3   206  TYR206     -0.2866
@<TRIPOS>BOND
     1     4     3    2
     2     3     2    1
     3    43    42    2
     4     2     1    1
     5     2     5    1
     6    42    41    1
     7    44    41    1
     8    44    45    1
     9     5     6    1
    10     7     6   ar
    11     7     9   ar
    12    41    40    1
    13     6     8   ar
    14     9    10   ar
    15    34    33    2
    16    33    32    1
    17     8    10   ar
    18    35    32    1
    19    35    36    1
    20    32    31    1
    21    49    48    2
    22    28    27    2
    23    50    52    1
    24    50    47    1
    25    50    51    1
    26    46    47    1
    27    36    37    1
    28    31    27   am
    29    48    47    1
    30    48    53   am
    31    27    26    1
    32    38    37    2
    33    37    39   am
    34    56    55    2
    35    54    53    1
    36    54    55    1
    37    54    57    1
    38    26    25    1
    39    26    29    1
    40    55    59   am
    41    25    21   am
    42    58    57    1
    43    29    30    1
    44    23    20    1
    45    23    24    1
    46    30    86    1
    47    21    20    1
    48    21    22    2
    49    20    19    1
    50    59    60    1
    51   104   106   ar
    52   104   103   ar
    53   106   108   ar
    54    60    63    1
    55    60    61    1
    56    63    64    1
    57    86    85    1
    58   100    99    1
    59   100   101    2
    60    99   102    1
    61    99    98    1
    62    14    13    2
    63   102   103    1
    64    19    13   am
    65    94    93    2
    66   103   105   ar
    67    65    64   ar
    68    65    67   ar
    69   108   109    1
    70   108   107   ar
    71    13    12    1
    72    64    66   ar
    73    61    62    2
    74    61    73   am
    75    85    82    1
    76    98    93   am
    77    93    92    1
    78    73    74    1
    79   105   107   ar
    80    67    68   ar
    81    76    75    2
    82    66    68   ar
    83    66    69   ar
    84    12    11    1
    85    12    15    1
    86    80    79    2
    87    82    81    1
    88    82    83    1
    89    17    16   ar
    90    68    70   ar
    91    74    75    1
    92    79    81   am
    93    79    78    1
    94    92    91    1
    95    92    95    1
    96    91    89   am
    97    15    16    1
    98    78    77    1
    99    69    71   ar
   100    16    18   ar
   101    95    96    1
   102    95    97    1
   103    88    89    1
   104    88    87    1
   105    89    90    2
   106    83    84    2
   107    70    72   ar
   108    71    72   ar
