@<TRIPOS>MOLECULE
tmp/3rxwA01.pdb
 97 90 0 0 0
SMALL
GASTEIGER

@<TRIPOS>ATOM
      1  N          5.4630    5.2280    6.5510 N.3    44  SER44      -0.1217
      2  CA         4.7640    3.9370    6.6770 C.3    44  SER44       0.1889
      3  C          4.3800    3.6010    8.1150 C.2    44  SER44       0.2288
      4  O          3.6880    2.6010    8.3410 O.2    44  SER44      -0.2866
      5  CB         5.6360    2.7830    6.0960 C.3    44  SER44       0.2089
      6  OG         5.7210    2.8580    4.6850 O.3    44  SER44      -0.2183
      7  N          0.8500    2.5670    9.3330 N.3    47  LYS47      -0.1245
      8  CA         0.2240    1.2540    9.0860 C.3    47  LYS47       0.1561
      9  C         -0.0140    0.4860   10.3900 C.2    47  LYS47       0.2260
     10  O         -0.9140   -0.3540   10.4530 O.2    47  LYS47      -0.2867
     11  CB         1.0860    0.4480    8.1090 C.3    47  LYS47       0.0271
     12  CG         1.1120    1.0150    6.6910 C.3    47  LYS47       0.0035
     13  CD         2.2270    0.4150    5.8310 C.3    47  LYS47       0.0206
     14  CE         2.2520    1.1150    4.4940 C.3    47  LYS47       0.1093
     15  NZ         3.5160    0.8980    3.6950 N.3    47  LYS47      -0.1314
     16  N          6.0950   -2.2020   -3.7640 N.3    79  TRP79      -0.1241
     17  CA         6.3550   -2.6670   -2.3870 C.3    79  TRP79       0.1605
     18  C          5.1010   -3.2470   -1.7520 C.2    79  TRP79       0.2264
     19  O          4.6400   -2.8070   -0.6800 O.2    79  TRP79      -0.2867
     20  CB         6.9570   -1.5750   -1.4800 C.3    79  TRP79       0.0550
     21  CG         7.5320   -2.1150   -0.1560 C.ar   79  TRP79       0.0003
     22  CD1        6.8470   -2.6910    0.9040 C.ar   79  TRP79       0.0946
     23  CD2        8.9110   -2.1130    0.2240 C.ar   79  TRP79       0.0152
     24  NE1        7.7250   -3.0520    1.8930 N.ar   79  TRP79      -0.2442
     25  CE2        8.9950   -2.7010    1.5120 C.ar   79  TRP79       0.0810
     26  CE3       10.0880   -1.6710   -0.3990 C.ar   79  TRP79       0.0012
     27  CZ2       10.2130   -2.8670    2.1790 C.ar   79  TRP79       0.0191
     28  CZ3       11.2980   -1.8270    0.2720 C.ar   79  TRP79       0.0001
     29  CH2       11.3480   -2.4190    1.5470 C.ar   79  TRP79       0.0015
     30  N          5.2060   -3.8660    5.7610 N.3   104  SER104     -0.1217
     31  CA         4.8740   -2.5410    5.2550 C.3   104  SER104      0.1889
     32  C          4.1980   -2.6210    3.8910 C.2   104  SER104      0.2288
     33  O          4.3270   -1.7320    3.0540 O.2   104  SER104     -0.2866
     34  CB         6.1080   -1.6450    5.2070 C.3   104  SER104      0.2089
     35  OG         5.7420   -0.3250    5.5460 O.3   104  SER104     -0.2183
     36  N          2.1170   -2.1970    0.8210 N.3   106  ASN106     -0.1240
     37  CA         1.3670   -1.0030    0.4260 C.3   106  ASN106      0.1653
     38  C         -0.0360   -1.2800   -0.0660 C.2   106  ASN106      0.2266
     39  O         -0.9900   -0.5850    0.3100 O.2   106  ASN106     -0.2867
     40  CB         2.1340   -0.1940   -0.6140 C.3   106  ASN106      0.1155
     41  CG         3.2090    0.6190   -0.0090 C.2   106  ASN106      0.2627
     42  OD1        3.0640    1.1560    1.0880 O.2   106  ASN106     -0.2716
     43  ND2        4.2980    0.7610   -0.7180 N.am  106  ASN106     -0.0877
     44  N         10.8300   -5.4870    9.5260 N.3   190  THR190     -0.1218
     45  CA        11.5390   -4.3570    8.9090 C.3   190  THR190      0.1862
     46  C         12.3650   -3.5120    9.8680 C.2   190  THR190      0.2287
     47  O         12.9910   -2.5540    9.4300 O.2   190  THR190     -0.2866
     48  CB        10.5690   -3.4120    8.2140 C.3   190  THR190      0.1770
     49  OG1        9.7330   -2.7840    9.1960 O.3   190  THR190     -0.2211
     50  CG2        9.7060   -4.1340    7.1810 C.3   190  THR190      0.0375
     51  N         16.7520   -0.6810   13.9270 N.3   194  ARG194     -0.1245
     52  CA        16.2610    0.5390   14.5680 C.3   194  ARG194      0.1563
     53  C         16.1210    0.3380   16.0640 C.2   194  ARG194      0.2260
     54  O         17.1160   -0.0150   16.7070 O.2   194  ARG194     -0.2867
     55  CB        15.0170    1.0500   13.8290 C.3   194  ARG194      0.0307
     56  CG        15.3600    1.4520   12.3960 C.3   194  ARG194      0.0489
     57  CD        14.1940    1.9880   11.6030 C.3   194  ARG194      0.2205
     58  NE        14.5740    2.0610   10.1960 N.pl3 194  ARG194     -0.0865
     59  CZ        13.8730    2.6650    9.2310 C.cat 194  ARG194      0.5346
     60  NH1       12.7520    3.3340    9.4980 N.pl3 194  ARG194      0.1354
     61  NH2       14.3210    2.6040    7.9830 N.pl3 194  ARG194      0.1354
     62  N          6.8970   -0.7660   14.6560 N.3   208  LYS208     -0.1231
     63  CA         6.5680   -0.4450   13.2680 C.3   208  LYS208      0.1693
     64  C          7.4630    0.6800   12.7840 C.2   208  LYS208      0.2593
     65  O          7.5600    1.7270   13.4410 O.2   208  LYS208     -0.2718
     66  CB         5.1140   -0.0120   13.1240 C.3   208  LYS208      0.0285
     67  CG         4.7070    0.3850   11.6640 C.3   208  LYS208      0.0035
     68  CD         4.5180   -0.8350   10.7710 C.3   208  LYS208      0.0206
     69  CE         4.5440   -0.5080    9.2670 C.3   208  LYS208      0.1093
     70  NZ         5.9170   -0.3550    8.7130 N.3   208  LYS208     -0.1314
     71  N          8.0890    0.4740   11.6250 N.am  209  THR209     -0.1939
     72  CA         8.9790    1.4520   10.9910 C.3   209  THR209      0.2028
     73  C          8.2470    2.3520   10.0010 C.2   209  THR209      0.2643
     74  O          7.1520    2.0440    9.5180 O.2   209  THR209     -0.2714
     75  CB        10.1000    0.7230   10.2270 C.3   209  THR209      0.1808
     76  OG1        9.4990   -0.1540    9.2700 O.3   209  THR209     -0.2208
     77  CG2       11.0020   -0.0750   11.1480 C.3   209  THR209      0.0379
     78  N          8.9100    3.4550    9.6680 N.am  210  GLY210     -0.1939
     79  CA         8.4920    4.3000    8.5460 C.3   210  GLY210      0.2014
     80  C          9.7390    4.8100    7.8560 C.2   210  GLY210      0.2639
     81  O         10.7100    5.1480    8.5390 O.2   210  GLY210     -0.2714
     82  N          9.7210    4.8810    6.5230 N.am  211  THR211     -0.1950
     83  CA        10.8930    5.3590    5.8140 C.3   211  THR211      0.1897
     84  C         10.4750    6.1560    4.5850 C.2   211  THR211      0.2313
     85  O         10.4990    5.6280    3.4580 O.2   211  THR211     -0.2863
     86  CB        11.8210    4.2020    5.3970 C.3   211  THR211      0.1794
     87  OG1       12.0300    3.3220    6.5080 O.3   211  THR211     -0.2208
     88  CG2       13.1570    4.7300    4.9100 C.3   211  THR211      0.0378
     89  N         19.3950    4.6550    9.8080 N.3   249  GLU249     -0.1245
     90  CA        18.9270    3.7160   10.8090 C.3   249  GLU249      0.1567
     91  C         19.7890    3.7630   12.0690 C.2   249  GLU249      0.2260
     92  O         19.2720    3.6370   13.1700 O.2   249  GLU249     -0.2867
     93  CB        18.8860    2.3030   10.2450 C.3   249  GLU249      0.0388
     94  CG        17.9660    2.1780    9.0560 C.3   249  GLU249      0.1160
     95  CD        17.5960    0.7460    8.7710 C.2   249  GLU249      0.3649
     96  OE1       18.4370    0.0050    8.1970 O.co2 249  GLU249     -0.2457
     97  OE2       16.4800    0.3240    9.1190 O.co2 249  GLU249     -0.2457
@<TRIPOS>BOND
     1    16    17    1
     2    17    18    1
     3    17    20    1
     4    18    19    2
     5    20    21    1
     6    43    41   am
     7    40    41    1
     8    40    37    1
     9    26    23   ar
    10    26    28   ar
    11    21    23   ar
    12    21    22   ar
    13    38    39    2
    14    38    37    1
    15    41    42    2
    16    23    25   ar
    17    28    29   ar
    18    37    36    1
    19    22    24   ar
    20    25    24   ar
    21    25    27   ar
    22    29    27   ar
    23    33    32    2
    24    85    84    2
    25    15    14    1
    26    32    31    1
    27    14    13    1
    28    84    83    1
    29     6     5    1
    30    88    86    1
    31    34    31    1
    32    34    35    1
    33    31    30    1
    34    86    83    1
    35    86    87    1
    36    83    82    1
    37    13    12    1
    38     5     2    1
    39    82    80   am
    40     1     2    1
    41     2     3    1
    42    12    11    1
    43    50    48    1
    44    80    81    2
    45    80    79    1
    46    61    59    1
    47    11     8    1
    48     3     4    2
    49    96    95   ar
    50    48    45    1
    51    48    49    1
    52    79    78    1
    53    70    69    1
    54    95    94    1
    55    95    97   ar
    56    45    44    1
    57    45    46    1
    58    94    93    1
    59     8     7    1
    60     8     9    1
    61    59    60    1
    62    59    58    2
    63    69    68    1
    64    76    75    1
    65    47    46    2
    66    74    73    2
    67    78    73   am
    68    89    90    1
    69    73    72    1
    70    58    57    1
    71    75    72    1
    72    75    77    1
    73    93    90    1
    74     9    10    2
    75    68    67    1
    76    90    91    1
    77    72    71    1
    78    57    56    1
    79    71    64   am
    80    67    66    1
    81    91    92    2
    82    56    55    1
    83    64    63    1
    84    64    65    2
    85    66    63    1
    86    63    62    1
    87    55    52    1
    88    51    52    1
    89    52    53    1
    90    53    54    2
