@<TRIPOS>MOLECULE
tmp/3rxwA00.pdb
 88 83 0 0 0
SMALL
GASTEIGER

@<TRIPOS>ATOM
      1  N          5.4630    5.2280    6.5510 N.3    44  SER44      -0.1217
      2  CA         4.7640    3.9370    6.6770 C.3    44  SER44       0.1889
      3  C          4.3800    3.6010    8.1150 C.2    44  SER44       0.2288
      4  O          3.6880    2.6010    8.3410 O.2    44  SER44      -0.2866
      5  CB         5.6360    2.7830    6.0960 C.3    44  SER44       0.2089
      6  OG         5.7210    2.8580    4.6850 O.3    44  SER44      -0.2183
      7  N          0.8500    2.5670    9.3330 N.3    47  LYS47      -0.1245
      8  CA         0.2240    1.2540    9.0860 C.3    47  LYS47       0.1561
      9  C         -0.0140    0.4860   10.3900 C.2    47  LYS47       0.2260
     10  O         -0.9140   -0.3540   10.4530 O.2    47  LYS47      -0.2867
     11  CB         1.0860    0.4480    8.1090 C.3    47  LYS47       0.0271
     12  CG         1.1120    1.0150    6.6910 C.3    47  LYS47       0.0035
     13  CD         2.2270    0.4150    5.8310 C.3    47  LYS47       0.0206
     14  CE         2.2520    1.1150    4.4940 C.3    47  LYS47       0.1093
     15  NZ         3.5160    0.8980    3.6950 N.3    47  LYS47      -0.1314
     16  N          3.7370   -0.5290   -5.9120 N.3    78  PRO78      -0.2102
     17  CA         5.0900   -0.9360   -5.5580 C.3    78  PRO78       0.1504
     18  C          5.2330   -1.2390   -4.0630 C.2    78  PRO78       0.2575
     19  O          4.5610   -0.6090   -3.2210 O.2    78  PRO78      -0.2718
     20  CB         5.9320    0.2750   -5.9800 C.3    78  PRO78       0.0282
     21  CG         5.1540    0.8360   -7.1530 C.3    78  PRO78       0.0208
     22  CD         3.7140    0.6950   -6.7380 C.3    78  PRO78       0.0893
     23  N          6.0950   -2.2020   -3.7640 N.am   79  TRP79      -0.1977
     24  CA         6.3550   -2.6670   -2.3870 C.3    79  TRP79       0.1640
     25  C          5.1010   -3.2470   -1.7520 C.2    79  TRP79       0.2290
     26  O          4.6400   -2.8070   -0.6800 O.2    79  TRP79      -0.2864
     27  CB         6.9570   -1.5750   -1.4800 C.3    79  TRP79       0.0576
     28  CG         7.5320   -2.1150   -0.1560 C.ar   79  TRP79       0.0006
     29  CD1        6.8470   -2.6910    0.9040 C.ar   79  TRP79       0.0946
     30  CD2        8.9110   -2.1130    0.2240 C.ar   79  TRP79       0.0152
     31  NE1        7.7250   -3.0520    1.8930 N.ar   79  TRP79      -0.2442
     32  CE2        8.9950   -2.7010    1.5120 C.ar   79  TRP79       0.0810
     33  CE3       10.0880   -1.6710   -0.3990 C.ar   79  TRP79       0.0012
     34  CZ2       10.2130   -2.8670    2.1790 C.ar   79  TRP79       0.0191
     35  CZ3       11.2980   -1.8270    0.2720 C.ar   79  TRP79       0.0001
     36  CH2       11.3480   -2.4190    1.5470 C.ar   79  TRP79       0.0015
     37  N          5.2060   -3.8660    5.7610 N.3   104  SER104     -0.1217
     38  CA         4.8740   -2.5410    5.2550 C.3   104  SER104      0.1889
     39  C          4.1980   -2.6210    3.8910 C.2   104  SER104      0.2288
     40  O          4.3270   -1.7320    3.0540 O.2   104  SER104     -0.2866
     41  CB         6.1080   -1.6450    5.2070 C.3   104  SER104      0.2089
     42  OG         5.7420   -0.3250    5.5460 O.3   104  SER104     -0.2183
     43  N          2.1170   -2.1970    0.8210 N.3   106  ASN106     -0.1240
     44  CA         1.3670   -1.0030    0.4260 C.3   106  ASN106      0.1653
     45  C         -0.0360   -1.2800   -0.0660 C.2   106  ASN106      0.2266
     46  O         -0.9900   -0.5850    0.3100 O.2   106  ASN106     -0.2867
     47  CB         2.1340   -0.1940   -0.6140 C.3   106  ASN106      0.1155
     48  CG         3.2090    0.6190   -0.0090 C.2   106  ASN106      0.2627
     49  OD1        3.0640    1.1560    1.0880 O.2   106  ASN106     -0.2716
     50  ND2        4.2980    0.7610   -0.7180 N.am  106  ASN106     -0.0877
     51  N         -1.1470    5.5840    0.2320 N.3   140  GLU140     -0.1231
     52  CA         0.1070    5.1080   -0.3720 C.3   140  GLU140      0.1699
     53  C         -0.0040    5.2890   -1.8980 C.2   140  GLU140      0.2592
     54  O         -1.0340    4.9340   -2.4710 O.2   140  GLU140     -0.2718
     55  CB         0.3520    3.6470    0.0100 C.3   140  GLU140      0.0402
     56  CG         0.8100    3.4870    1.4590 C.3   140  GLU140      0.1161
     57  CD         2.2360    3.9170    1.6590 C.2   140  GLU140      0.3649
     58  OE1        2.8840    4.3100    0.6560 O.co2 140  GLU140     -0.2457
     59  OE2        2.7520    3.8230    2.7960 O.co2 140  GLU140     -0.2457
     60  N          1.0140    5.8380   -2.5790 N.am  141  LEU141     -0.1980
     61  CA         2.3540    6.2000   -2.0640 C.3   141  LEU141      0.1596
     62  C          2.5140    7.6830   -1.7120 C.2   141  LEU141      0.2287
     63  O          3.5430    8.0810   -1.1570 O.2   141  LEU141     -0.2864
     64  CB         3.4490    5.8820   -3.1030 C.3   141  LEU141      0.0297
     65  CG         3.5550    4.4720   -3.6930 C.3   141  LEU141      0.0022
     66  CD1        4.6630    4.4050   -4.7470 C.3   141  LEU141      0.0001
     67  CD2        3.7480    3.4260   -2.6500 C.3   141  LEU141      0.0001
     68  N          4.0640    9.8510    1.5090 N.3   144  ASN144     -0.1240
     69  CA         5.4690    9.7790    1.8800 C.3   144  ASN144      0.1653
     70  C          6.3350   10.9450    1.4140 C.2   144  ASN144      0.2266
     71  O          7.5520   10.8670    1.5000 O.2   144  ASN144     -0.2867
     72  CB         6.0600    8.4290    1.4360 C.3   144  ASN144      0.1155
     73  CG         5.4830    7.2480    2.2130 C.2   144  ASN144      0.2627
     74  OD1        5.7310    7.0950    3.3990 O.2   144  ASN144     -0.2716
     75  ND2        4.7180    6.4030    1.5380 N.am  144  ASN144     -0.0877
     76  N          9.7210    4.8810    6.5230 N.3   211  THR211     -0.1203
     77  CA        10.8930    5.3590    5.8140 C.3   211  THR211      0.1994
     78  C         10.4750    6.1560    4.5850 C.2   211  THR211      0.2618
     79  O         10.4990    5.6280    3.4580 O.2   211  THR211     -0.2717
     80  CB        11.8210    4.2020    5.3970 C.3   211  THR211      0.1784
     81  OG1       12.0300    3.3220    6.5080 O.3   211  THR211     -0.2211
     82  CG2       13.1570    4.7300    4.9100 C.3   211  THR211      0.0376
     83  N         10.1260    7.4250    4.7680 N.am  212  CYS212     -0.1969
     84  CA         9.9000    8.2890    3.5960 C.3   212  CYS212      0.1712
     85  C         11.1690    8.3880    2.7520 C.2   212  CYS212      0.2296
     86  O         11.0960    8.4840    1.5160 O.2   212  CYS212     -0.2864
     87  CB         9.4620    9.7070    4.0050 C.3   212  CYS212      0.0983
     88  SG         7.8280    9.8450    4.7780 S.3   212  CYS212     -0.0798
@<TRIPOS>BOND
     1    21    22    1
     2    21    20    1
     3    22    16    1
     4    20    17    1
     5    16    17    1
     6    17    18    1
     7    66    65    1
     8    18    23   am
     9    18    19    2
    10    23    24    1
    11    65    64    1
    12    65    67    1
    13    64    61    1
    14    60    61    1
    15    60    53   am
    16    54    53    2
    17    24    25    1
    18    24    27    1
    19    61    62    1
    20    53    52    1
    21    25    26    2
    22    62    63    2
    23    27    28    1
    24    50    48   am
    25    47    48    1
    26    47    44    1
    27    33    30   ar
    28    33    35   ar
    29    52    55    1
    30    52    51    1
    31    28    30   ar
    32    28    29   ar
    33    45    46    2
    34    45    44    1
    35    48    49    2
    36    55    56    1
    37    30    32   ar
    38    35    36   ar
    39    44    43    1
    40    58    57   ar
    41    29    31   ar
    42    70    71    2
    43    70    69    1
    44    72    69    1
    45    72    73    1
    46    56    57    1
    47    68    69    1
    48    32    31   ar
    49    32    34   ar
    50    86    85    2
    51    75    73   am
    52    36    34   ar
    53    57    59   ar
    54    73    74    2
    55    85    84    1
    56    40    39    2
    57    79    78    2
    58    84    87    1
    59    84    83    1
    60    15    14    1
    61    39    38    1
    62    87    88    1
    63    14    13    1
    64    78    83   am
    65    78    77    1
    66     6     5    1
    67    82    80    1
    68    41    38    1
    69    41    42    1
    70    38    37    1
    71    80    77    1
    72    80    81    1
    73    77    76    1
    74    13    12    1
    75     5     2    1
    76     1     2    1
    77     2     3    1
    78    12    11    1
    79    11     8    1
    80     3     4    2
    81     8     7    1
    82     8     9    1
    83     9    10    2
