@<TRIPOS>MOLECULE
tmp/3rxxA00.pdb
 94 88 0 0 0
SMALL
GASTEIGER

@<TRIPOS>ATOM
      1  N         -6.1490    4.7610   -7.5430 N.3    43  SER43      -0.1217
      2  CA        -5.4600    3.4640   -7.6710 C.3    43  SER43       0.1889
      3  C         -4.9820    3.1490   -9.0760 C.2    43  SER43       0.2288
      4  O         -4.2410    2.1780   -9.2630 O.2    43  SER43      -0.2866
      5  CB        -6.3410    2.3150   -7.1810 C.3    43  SER43       0.2089
      6  OG        -6.3170    2.2370   -5.7690 O.3    43  SER43      -0.2183
      7  N         -1.4030    2.1740  -10.0830 N.3    46  LYS46      -0.1245
      8  CA        -0.8870    0.8070   -9.8410 C.3    46  LYS46       0.1561
      9  C         -0.5430    0.0490  -11.1330 C.2    46  LYS46       0.2260
     10  O          0.3490   -0.8170  -11.1380 O.2    46  LYS46      -0.2867
     11  CB        -1.8520    0.0050   -8.9580 C.3    46  LYS46       0.0271
     12  CG        -1.9320    0.5440   -7.5210 C.3    46  LYS46       0.0035
     13  CD        -3.0970   -0.0350   -6.7350 C.3    46  LYS46       0.0206
     14  CE        -3.2030    0.6550   -5.3740 C.3    46  LYS46       0.1093
     15  NZ        -4.5390    0.4640   -4.7250 N.3    46  LYS46      -0.1314
     16  N         -7.3800   -2.4760    3.1110 N.3    78  TRP78      -0.1241
     17  CA        -7.6840   -3.0360    1.7840 C.3    78  TRP78       0.1605
     18  C         -6.4390   -3.5510    1.0680 C.2    78  TRP78       0.2264
     19  O         -6.1040   -3.1230   -0.0460 O.2    78  TRP78      -0.2867
     20  CB        -8.4500   -2.0530    0.8990 C.3    78  TRP78       0.0550
     21  CG        -9.6930   -1.5220    1.5160 C.ar   78  TRP78       0.0003
     22  CD1      -10.8590   -2.1930    1.7270 C.ar   78  TRP78       0.0946
     23  CD2       -9.8950   -0.1950    2.0110 C.ar   78  TRP78       0.0152
     24  NE1      -11.7880   -1.3610    2.3140 N.ar   78  TRP78      -0.2442
     25  CE2      -11.2190   -0.1280    2.5020 C.ar   78  TRP78       0.0810
     26  CE3       -9.0870    0.9460    2.0800 C.ar   78  TRP78       0.0012
     27  CZ2      -11.7630    1.0450    3.0420 C.ar   78  TRP78       0.0191
     28  CZ3       -9.6210    2.1120    2.6200 C.ar   78  TRP78       0.0001
     29  CH2      -10.9510    2.1510    3.0950 C.ar   78  TRP78       0.0015
     30  N         -6.1790   -6.6650   -7.9830 N.3   102  TYR102     -0.1227
     31  CA        -6.9960   -6.5130   -6.7670 C.3   102  TYR102      0.1736
     32  C         -6.8690   -5.1360   -6.1210 C.2   102  TYR102      0.2596
     33  O         -7.4930   -4.8600   -5.0770 O.2   102  TYR102     -0.2718
     34  CB        -6.6670   -7.6190   -5.7500 C.3   102  TYR102      0.0548
     35  CG        -7.0660   -8.9820   -6.2340 C.ar  102  TYR102     -0.0200
     36  CD1       -8.3580   -9.4650   -6.0190 C.ar  102  TYR102     -0.0009
     37  CD2       -6.1610   -9.7800   -6.9380 C.ar  102  TYR102     -0.0009
     38  CE1       -8.7380  -10.7160   -6.4890 C.ar  102  TYR102      0.0417
     39  CE2       -6.5310  -11.0380   -7.4130 C.ar  102  TYR102      0.0417
     40  CZ        -7.8190  -11.4920   -7.1810 C.ar  102  TYR102      0.1957
     41  OH        -8.1860  -12.7440   -7.6410 O.3   102  TYR102     -0.2866
     42  N         -6.0360   -4.2860   -6.7270 N.am  103  SER103     -0.1952
     43  CA        -5.8040   -2.9320   -6.2510 C.3   103  SER103      0.1924
     44  C         -5.2290   -2.9600   -4.8300 C.2   103  SER103      0.2314
     45  O         -5.4750   -2.0660   -4.0170 O.2   103  SER103     -0.2863
     46  CB        -7.0910   -2.1000   -6.3330 C.3   103  SER103      0.2116
     47  OG        -6.7870   -0.7640   -6.6960 O.3   103  SER103     -0.2180
     48  N         -3.3310   -2.4690   -1.6840 N.3   105  ASN105     -0.1240
     49  CA        -2.6010   -1.2680   -1.2540 C.3   105  ASN105      0.1653
     50  C         -1.1950   -1.5050   -0.7200 C.2   105  ASN105      0.2266
     51  O         -0.2600   -0.8200   -1.1270 O.2   105  ASN105     -0.2867
     52  CB        -3.4360   -0.4630   -0.2600 C.3   105  ASN105      0.1155
     53  CG        -4.5860    0.2430   -0.9320 C.2   105  ASN105      0.2627
     54  OD1       -4.4140    0.8560   -1.9850 O.2   105  ASN105     -0.2716
     55  ND2       -5.7760    0.1580   -0.3310 N.am  105  ASN105     -0.0877
     56  N         -0.0290    5.1110   -0.8800 N.3   139  GLU139     -0.1231
     57  CA        -1.3430    4.7040   -0.3700 C.3   139  GLU139      0.1699
     58  C         -1.3120    4.8900    1.1540 C.2   139  GLU139      0.2592
     59  O         -0.3260    4.5040    1.7830 O.2   139  GLU139     -0.2718
     60  CB        -1.6290    3.2500   -0.7600 C.3   139  GLU139      0.0402
     61  CG        -1.9460    3.0960   -2.2500 C.3   139  GLU139      0.1161
     62  CD        -3.3310    3.6070   -2.6720 C.2   139  GLU139      0.3649
     63  OE1       -4.0560    4.2110   -1.8570 O.co2 139  GLU139     -0.2457
     64  OE2       -3.7100    3.3890   -3.8460 O.co2 139  GLU139     -0.2457
     65  N         -2.3460    5.4770    1.7720 N.am  140  LEU140     -0.1980
     66  CA        -3.6420    5.8380    1.1840 C.3   140  LEU140      0.1596
     67  C         -3.7710    7.3310    0.8840 C.2   140  LEU140      0.2287
     68  O         -4.7840    7.7800    0.3290 O.2   140  LEU140     -0.2864
     69  CB        -4.7660    5.4630    2.1650 C.3   140  LEU140      0.0297
     70  CG        -5.0350    3.9790    2.4560 C.3   140  LEU140      0.0022
     71  CD1       -6.0050    3.8180    3.6560 C.3   140  LEU140      0.0001
     72  CD2       -5.5580    3.2870    1.2040 C.3   140  LEU140      0.0001
     73  N         -5.1360    9.4530   -2.3580 N.3   143  ASN143     -0.1240
     74  CA        -6.5550    9.4300   -2.7350 C.3   143  ASN143      0.1653
     75  C         -7.3460   10.6940   -2.3950 C.2   143  ASN143      0.2266
     76  O         -8.5410   10.7510   -2.6780 O.2   143  ASN143     -0.2867
     77  CB        -7.2410    8.2170   -2.1130 C.3   143  ASN143      0.1155
     78  CG        -6.6970    6.9120   -2.6500 C.2   143  ASN143      0.2627
     79  OD1       -6.9280    6.5650   -3.8120 O.2   143  ASN143     -0.2716
     80  ND2       -5.9420    6.1940   -1.8190 N.am  143  ASN143     -0.0877
     81  N        -11.4130   -5.9560  -10.8470 N.3   189  THR189     -0.1218
     82  CA       -12.1450   -4.8280  -10.2410 C.3   189  THR189      0.1862
     83  C        -12.8950   -3.9340  -11.2370 C.2   189  THR189      0.2287
     84  O        -13.5560   -2.9700  -10.8180 O.2   189  THR189     -0.2866
     85  CB       -11.1850   -3.9040   -9.4640 C.3   189  THR189      0.1770
     86  OG1      -10.3190   -3.2430  -10.3960 O.3   189  THR189     -0.2211
     87  CG2      -10.3330   -4.7010   -8.4680 C.3   189  THR189      0.0375
     88  N        -10.1820    4.4410   -7.7440 N.3   210  THR210     -0.1218
     89  CA       -11.3340    4.9400   -6.9960 C.3   210  THR210      0.1862
     90  C        -10.8760    5.7550   -5.7880 C.2   210  THR210      0.2287
     91  O        -10.4470    5.1800   -4.7960 O.2   210  THR210     -0.2866
     92  CB       -12.2340    3.7670   -6.5380 C.3   210  THR210      0.1770
     93  OG1      -12.4590    2.8820   -7.6410 O.3   210  THR210     -0.2211
     94  CG2      -13.5750    4.2910   -6.0020 C.3   210  THR210      0.0375
@<TRIPOS>BOND
     1    83    84    2
     2    83    82    1
     3    10     9    2
     4     9     8    1
     5    81    82    1
     6    86    85    1
     7    82    85    1
     8     7     8    1
     9     8    11    1
    10    85    87    1
    11     4     3    2
    12     3     2    1
    13    11    12    1
    14    30    31    1
    15    88    89    1
    16     2     1    1
    17     2     5    1
    18    41    40    1
    19    93    92    1
    20    12    13    1
    21    39    40   ar
    22    39    37   ar
    23    40    38   ar
    24     5     6    1
    25    89    92    1
    26    89    90    1
    27    37    35   ar
    28    31    32    1
    29    31    34    1
    30    13    14    1
    31    42    43    1
    32    42    32   am
    33    47    46    1
    34    92    94    1
    35    38    36   ar
    36    46    43    1
    37    43    44    1
    38    35    36   ar
    39    35    34    1
    40    32    33    2
    41    90    91    2
    42    14    15    1
    43    44    45    2
    44    64    62   ar
    45    79    78    2
    46    74    75    1
    47    74    73    1
    48    74    77    1
    49    76    75    2
    50    62    61    1
    51    62    63   ar
    52    78    77    1
    53    78    80   am
    54    61    60    1
    55    54    53    2
    56    48    49    1
    57    49    50    1
    58    49    52    1
    59    51    50    2
    60    53    55   am
    61    53    52    1
    62    56    57    1
    63    60    57    1
    64    57    58    1
    65    19    18    2
    66    68    67    2
    67    67    66    1
    68    20    21    1
    69    20    17    1
    70    18    17    1
    71    58    65   am
    72    58    59    2
    73    66    65    1
    74    66    69    1
    75    72    70    1
    76    21    22   ar
    77    21    23   ar
    78    22    24   ar
    79    17    16    1
    80    23    26   ar
    81    23    25   ar
    82    26    28   ar
    83    69    70    1
    84    24    25   ar
    85    70    71    1
    86    25    27   ar
    87    28    29   ar
    88    27    29   ar
