@<TRIPOS>MOLECULE
tmp/3ry1B02.pdb
 99 96 0 0 0
SMALL
GASTEIGER

@<TRIPOS>ATOM
      1  N         31.4320   -2.2090    7.0130 N.3    10  ASN10      -0.1240
      2  CA        30.1700   -2.9340    7.0030 C.3    10  ASN10       0.1653
      3  C         30.2210   -4.0420    5.9280 C.2    10  ASN10       0.2266
      4  O         31.2380   -4.2760    5.3020 O.2    10  ASN10      -0.2867
      5  CB        28.9480   -2.0190    6.8820 C.3    10  ASN10       0.1155
      6  CG        28.6800   -1.5300    5.4970 C.2    10  ASN10       0.2627
      7  OD1       29.4370   -1.7970    4.5540 O.2    10  ASN10      -0.2716
      8  ND2       27.5620   -0.8010    5.3570 N.am   10  ASN10      -0.0877
      9  N         28.8040   -4.2450    3.1040 N.3    12  LEU12      -0.1245
     10  CA        28.5370   -3.6990    1.7220 C.3    12  LEU12       0.1561
     11  C         29.5020   -2.6430    1.0690 C.2    12  LEU12       0.2260
     12  O         29.0670   -1.8320    0.2510 O.2    12  LEU12      -0.2867
     13  CB        27.1600   -2.9980    1.6920 C.3    12  LEU12       0.0270
     14  CG        25.8620   -3.7220    2.0270 C.3    12  LEU12       0.0019
     15  CD1       24.7040   -2.7300    2.0760 C.3    12  LEU12       0.0001
     16  CD2       25.5740   -4.8060    0.9920 C.3    12  LEU12       0.0001
     17  N         31.1990   -0.0910    2.7550 N.3    14  SER14      -0.1217
     18  CA        31.3630    1.1520    3.4610 C.3    14  SER14       0.1889
     19  C         32.3940    1.0690    4.5830 C.2    14  SER14       0.2288
     20  O         32.5880    0.0480    5.1570 O.2    14  SER14      -0.2866
     21  CB        30.0330    1.6260    4.0010 C.3    14  SER14       0.2089
     22  OG        29.0920    1.9880    2.9740 O.3    14  SER14      -0.2183
     23  N         32.3130    8.7780    7.5190 N.3    30  TYR30      -0.1241
     24  CA        31.7470    7.5970    6.9170 C.3    30  TYR30       0.1605
     25  C         31.9800    7.7110    5.4140 C.2    30  TYR30       0.2264
     26  O         31.7060    8.7680    4.8530 O.2    30  TYR30      -0.2867
     27  CB        30.2390    7.5620    7.2320 C.3    30  TYR30       0.0534
     28  CG        29.6260    6.2000    7.0740 C.ar   30  TYR30      -0.0201
     29  CD1       29.5170    5.3550    8.1670 C.ar   30  TYR30      -0.0009
     30  CD2       29.1170    5.7600    5.8680 C.ar   30  TYR30      -0.0009
     31  CE1       28.9870    4.0900    8.0700 C.ar   30  TYR30       0.0417
     32  CE2       28.5680    4.4610    5.7800 C.ar   30  TYR30       0.0417
     33  CZ        28.5370    3.6500    6.8790 C.ar   30  TYR30       0.1957
     34  OH        27.9810    2.3980    6.7510 O.3    30  TYR30      -0.2866
     35  N         23.6010   13.0670    4.6860 N.3    66  TRP66      -0.1241
     36  CA        24.2220   12.7430    3.3850 C.3    66  TRP66       0.1605
     37  C         24.4080   14.0070    2.5250 C.2    66  TRP66       0.2264
     38  O         24.0460   14.0640    1.3570 O.2    66  TRP66      -0.2867
     39  CB        23.4080   11.6780    2.6770 C.3    66  TRP66       0.0550
     40  CG        23.3580   10.4100    3.4440 C.ar   66  TRP66       0.0003
     41  CD1       22.2890    9.8750    4.1000 C.ar   66  TRP66       0.0946
     42  CD2       24.4400    9.5050    3.6630 C.ar   66  TRP66       0.0152
     43  NE1       22.6450    8.7020    4.7080 N.ar   66  TRP66      -0.2442
     44  CE2       23.9530    8.4470    4.4510 C.ar   66  TRP66       0.0810
     45  CE3       25.7760    9.4870    3.2740 C.ar   66  TRP66       0.0012
     46  CZ2       24.7580    7.3740    4.8310 C.ar   66  TRP66       0.0191
     47  CZ3       26.5700    8.4290    3.6500 C.ar   66  TRP66       0.0001
     48  CH2       26.0590    7.3980    4.4530 C.ar   66  TRP66       0.0015
     49  N         21.0010    9.1740    7.7850 N.3    77  THR77      -0.1218
     50  CA        20.9010    7.8440    8.4150 C.3    77  THR77       0.1862
     51  C         21.3240    7.9410    9.8670 C.2    77  THR77       0.2287
     52  O         22.3420    8.5640   10.1840 O.2    77  THR77      -0.2866
     53  CB        21.7750    6.8250    7.7110 C.3    77  THR77       0.1770
     54  OG1       21.3540    6.7550    6.3530 O.3    77  THR77      -0.2211
     55  CG2       21.6890    5.4460    8.3830 C.3    77  THR77       0.0375
     56  N         22.3210    5.1160   12.8460 N.3    79  TRP79      -0.1241
     57  CA        22.6130    3.7460   13.2420 C.3    79  TRP79       0.1605
     58  C         22.5170    3.6590   14.7590 C.2    79  TRP79       0.2264
     59  O         23.1320    4.4520   15.4530 O.2    79  TRP79      -0.2867
     60  CB        24.0240    3.3160   12.8230 C.3    79  TRP79       0.0550
     61  CG        24.2730    3.1830   11.3660 C.ar   79  TRP79       0.0003
     62  CD1       24.3760    2.0190   10.6810 C.ar   79  TRP79       0.0946
     63  CD2       24.5760    4.2180   10.4270 C.ar   79  TRP79       0.0152
     64  NE1       24.7160    2.2470    9.3790 N.ar   79  TRP79      -0.2442
     65  CE2       24.8620    3.6030    9.1970 C.ar   79  TRP79       0.0810
     66  CE3       24.6650    5.6240   10.5120 C.ar   79  TRP79       0.0012
     67  CZ2       25.2780    4.3300    8.0710 C.ar   79  TRP79       0.0191
     68  CZ3       25.0500    6.3410    9.3920 C.ar   79  TRP79       0.0001
     69  CH2       25.3700    5.6970    8.2070 C.ar   79  TRP79       0.0015
     70  N         19.3640    0.5660   11.3860 N.3    95  TRP95      -0.1241
     71  CA        19.4460    1.9500   10.9310 C.3    95  TRP95       0.1605
     72  C         18.1200    2.4050   10.3590 C.2    95  TRP95       0.2264
     73  O         17.2800    1.6280    9.9090 O.2    95  TRP95      -0.2867
     74  CB        20.6070    2.1550    9.9450 C.3    95  TRP95       0.0550
     75  CG        20.6330    1.3050    8.7220 C.ar   95  TRP95       0.0003
     76  CD1       21.4840    0.2680    8.4990 C.ar   95  TRP95       0.0946
     77  CD2       19.8410    1.4330    7.5200 C.ar   95  TRP95       0.0152
     78  NE1       21.2630   -0.2660    7.2540 N.ar   95  TRP95      -0.2442
     79  CE2       20.2510    0.4200    6.6400 C.ar   95  TRP95       0.0810
     80  CE3       18.8270    2.2960    7.1040 C.ar   95  TRP95       0.0012
     81  CZ2       19.6640    0.2300    5.3790 C.ar   95  TRP95       0.0191
     82  CZ3       18.2560    2.1170    5.8580 C.ar   95  TRP95       0.0001
     83  CH2       18.6740    1.0790    5.0130 C.ar   95  TRP95       0.0015
     84  N         16.9540    5.5620    7.6610 N.3    97  LEU97      -0.1245
     85  CA        17.3360    6.5710    6.6780 C.3    97  LEU97       0.1561
     86  C         16.0930    7.4040    6.4020 C.2    97  LEU97       0.2260
     87  O         15.1340    6.8790    5.8370 O.2    97  LEU97      -0.2867
     88  CB        17.8410    5.8820    5.4120 C.3    97  LEU97       0.0270
     89  CG        18.0700    6.6900    4.1250 C.3    97  LEU97       0.0019
     90  CD1       18.9830    7.8680    4.3790 C.3    97  LEU97       0.0001
     91  CD2       18.6770    5.8030    3.0080 C.3    97  LEU97       0.0001
     92  N         23.0730   -3.1800    9.5750 N.3   115  ASP115     -0.1239
     93  CA        24.4470   -3.3010    9.0980 C.3   115  ASP115      0.1674
     94  C         25.2770   -3.9040   10.2320 C.2   115  ASP115      0.2266
     95  O         25.0850   -3.5600   11.3840 O.2   115  ASP115     -0.2867
     96  CB        25.0980   -1.9260    8.7720 C.3   115  ASP115      0.1410
     97  CG        24.5220   -1.1900    7.5520 C.2   115  ASP115      0.3668
     98  OD1       23.7920   -1.7840    6.7730 O.co2 115  ASP115     -0.2456
     99  OD2       24.8530    0.0030    7.3680 O.co2 115  ASP115     -0.2456
@<TRIPOS>BOND
     1    12    11    2
     2    16    14    1
     3    11    10    1
     4    38    37    2
     5    13    10    1
     6    13    14    1
     7    10     9    1
     8    14    15    1
     9    37    36    1
    10    39    36    1
    11    39    40    1
    12    17    18    1
    13    22    21    1
    14    91    89    1
    15    45    47   ar
    16    45    42   ar
    17    36    35    1
    18    40    42   ar
    19    40    41   ar
    20    18    21    1
    21    18    19    1
    22    47    48   ar
    23    42    44   ar
    24    41    43   ar
    25    89    90    1
    26    89    88    1
    27    44    43   ar
    28    44    46   ar
    29    48    46   ar
    30     7     6    2
    31    19    20    2
    32    26    25    2
    33    83    81   ar
    34    83    82   ar
    35     4     3    2
    36     8     6   am
    37    81    79   ar
    38    88    85    1
    39    25    24    1
    40     6     5    1
    41    32    30   ar
    42    32    33   ar
    43    87    86    2
    44    82    80   ar
    45    30    28   ar
    46     3     2    1
    47    54    53    1
    48    86    85    1
    49    79    78   ar
    50    79    77   ar
    51    85    84    1
    52    34    33    1
    53    98    97   ar
    54    33    31   ar
    55     5     2    1
    56    24    27    1
    57    24    23    1
    58     2     1    1
    59    28    27    1
    60    28    29   ar
    61    80    77   ar
    62    78    76   ar
    63    99    97   ar
    64    77    75   ar
    65    97    96    1
    66    53    55    1
    67    53    50    1
    68    49    50    1
    69    31    29   ar
    70    67    69   ar
    71    67    65   ar
    72    69    68   ar
    73    50    51    1
    74    76    75   ar
    75    75    74    1
    76    96    93    1
    77    93    92    1
    78    93    94    1
    79    65    64   ar
    80    65    63   ar
    81    64    62   ar
    82    68    66   ar
    83    51    52    2
    84    73    72    2
    85    74    71    1
    86    94    95    2
    87    72    71    1
    88    63    66   ar
    89    63    61   ar
    90    62    61   ar
    91    71    70    1
    92    61    60    1
    93    60    57    1
    94    56    57    1
    95    57    58    1
    96    58    59    2
