@<TRIPOS>MOLECULE
tmp/3ryaA00.pdb
 63 56 0 0 0
SMALL
GASTEIGER

@<TRIPOS>ATOM
      1  N         17.3740   -8.7930   25.2800 N.3    35  SER35      -0.1217
      2  CA        16.3240   -7.7850   25.1860 C.3    35  SER35       0.1889
      3  C         16.7330   -6.4540   25.8130 C.2    35  SER35       0.2288
      4  O         16.6150   -5.4040   25.1850 O.2    35  SER35      -0.2866
      5  CB        15.0610   -8.3230   25.8680 C.3    35  SER35       0.2089
      6  OG        14.0290   -7.3590   25.9000 O.3    35  SER35      -0.2183
      7  N         13.9070  -12.9320   21.4660 N.3    53  GLN53      -0.1245
      8  CA        14.7160  -12.3300   22.5260 C.3    53  GLN53       0.1566
      9  C         14.3110  -12.8740   23.9110 C.2    53  GLN53       0.2260
     10  O         14.3540  -12.1630   24.9110 O.2    53  GLN53      -0.2867
     11  CB        14.6180  -10.7960   22.4430 C.3    53  GLN53       0.0367
     12  CG        15.9580  -10.0750   22.3230 C.3    53  GLN53       0.0905
     13  CD        15.8350   -8.7300   21.6200 C.2    53  GLN53       0.2608
     14  OE1       14.7870   -8.0750   21.6710 O.2    53  GLN53      -0.2717
     15  NE2       16.9080   -8.3150   20.9540 N.am   53  GLN53      -0.0878
     16  N         17.5710    1.0910   28.6730 N.3   119  ARG119     -0.1245
     17  CA        16.1540    0.7270   28.7750 C.3   119  ARG119      0.1563
     18  C         15.5120    0.9350   30.1390 C.2   119  ARG119      0.2260
     19  O         14.3440    0.5880   30.3230 O.2   119  ARG119     -0.2867
     20  CB        15.9540   -0.7170   28.3150 C.3   119  ARG119      0.0307
     21  CG        16.1790   -0.8800   26.8320 C.3   119  ARG119      0.0489
     22  CD        15.5700   -2.1480   26.2850 C.3   119  ARG119      0.2205
     23  NE        15.2300   -2.0020   24.8690 N.pl3 119  ARG119     -0.0865
     24  CZ        14.1930   -1.3070   24.4060 C.cat 119  ARG119      0.5346
     25  NH1       13.9820   -1.2480   23.1000 N.pl3 119  ARG119      0.1354
     26  NH2       13.3680   -0.6650   25.2340 N.pl3 119  ARG119      0.1354
     27  N          4.1330   -5.4460   27.0270 N.3   170  GLY170     -0.1225
     28  CA         4.8420   -4.2150   26.6700 C.3   170  GLY170      0.1811
     29  C          4.6120   -3.0520   27.6230 C.2   170  GLY170      0.2280
     30  O          5.0190   -1.9230   27.3360 O.2   170  GLY170     -0.2866
     31  N          5.8980   -2.2140   30.5040 N.3   172  GLY172     -0.1225
     32  CA         7.0990   -1.5980   31.0700 C.3   172  GLY172      0.1811
     33  C          7.1300   -1.4250   32.5830 C.2   172  GLY172      0.2280
     34  O          8.0890   -0.8630   33.1160 O.2   172  GLY172     -0.2866
     35  N          9.1490   -6.7480   33.6770 N.3   175  LEU175     -0.1231
     36  CA         9.8720   -7.2950   32.5370 C.3   175  LEU175      0.1693
     37  C          9.3720   -8.6890   32.1880 C.2   175  LEU175      0.2592
     38  O          8.8460   -9.4020   33.0420 O.2   175  LEU175     -0.2718
     39  CB        11.3740   -7.3310   32.8360 C.3   175  LEU175      0.0284
     40  CG        11.9960   -5.9890   33.2450 C.3   175  LEU175      0.0019
     41  CD1       13.4180   -6.1830   33.7510 C.3   175  LEU175      0.0001
     42  CD2       11.9610   -4.9940   32.0860 C.3   175  LEU175      0.0001
     43  N          9.5570   -9.0660   30.9250 N.am  176  GLU176     -0.1966
     44  CA         8.9730  -10.2850   30.3740 C.3   176  GLU176      0.1733
     45  C          9.9940  -11.2040   29.7010 C.2   176  GLU176      0.2617
     46  O          9.5980  -12.1110   28.9700 O.2   176  GLU176     -0.2715
     47  CB         7.8960   -9.9150   29.3500 C.3   176  GLU176      0.0429
     48  CG         6.8470   -8.9350   29.8540 C.3   176  GLU176      0.1163
     49  CD         6.0740   -8.2770   28.7260 C.2   176  GLU176      0.3649
     50  OE1        5.4990   -9.0010   27.8870 O.co2 176  GLU176     -0.2457
     51  OE2        6.0390   -7.0300   28.6830 O.co2 176  GLU176     -0.2457
     52  N         11.2910  -10.9890   29.9340 N.am  177  THR177     -0.1951
     53  CA        12.3270  -11.8470   29.3330 C.3   177  THR177      0.1897
     54  C         13.3010  -12.3950   30.3670 C.2   177  THR177      0.2313
     55  O         13.4080  -11.8680   31.4790 O.2   177  THR177     -0.2863
     56  CB        13.1560  -11.1210   28.2260 C.3   177  THR177      0.1794
     57  OG1       14.0540  -10.1750   28.8200 O.3   177  THR177     -0.2208
     58  CG2       12.2500  -10.4160   27.2260 C.3   177  THR177      0.0378
     59  N          5.8260   -0.4780   21.6230 N.3   460  ALA460     -0.1245
     60  CA         5.5140   -1.5440   22.5710 C.3   460  ALA460      0.1562
     61  C          4.0610   -1.9610   22.4020 C.2   460  ALA460      0.2260
     62  O          3.2490   -1.1960   21.8870 O.2   460  ALA460     -0.2867
     63  CB         5.7700   -1.0800   23.9990 C.3   460  ALA460      0.0290
@<TRIPOS>BOND
     1    15    13   am
     2     7     8    1
     3    13    14    2
     4    13    12    1
     5    59    60    1
     6    62    61    2
     7    12    11    1
     8    61    60    1
     9    11     8    1
    10     8     9    1
    11    60    63    1
    12    25    24    1
    13     9    10    2
    14    24    23    2
    15    24    26    1
    16    23    22    1
    17     4     3    2
    18     2     1    1
    19     2     3    1
    20     2     5    1
    21     5     6    1
    22    22    21    1
    23    28    27    1
    24    28    29    1
    25    21    20    1
    26    58    56    1
    27    30    29    2
    28    50    49   ar
    29    56    57    1
    30    56    53    1
    31    20    17    1
    32    16    17    1
    33    51    49   ar
    34    49    48    1
    35    17    18    1
    36    46    45    2
    37    53    52    1
    38    53    54    1
    39    47    48    1
    40    47    44    1
    41    45    52   am
    42    45    44    1
    43    18    19    2
    44    54    55    2
    45    44    43    1
    46    31    32    1
    47    43    37   am
    48    32    33    1
    49    42    40    1
    50    37    36    1
    51    37    38    2
    52    36    39    1
    53    36    35    1
    54    33    34    2
    55    39    40    1
    56    40    41    1
