@<TRIPOS>MOLECULE
tmp/3rybA00.pdb
 91 91 0 0 0
SMALL
GASTEIGER

@<TRIPOS>ATOM
      1  N         -3.4900   -7.0810   21.0000 N.3    43  ASN43      -0.1225
      2  CA        -4.4050   -7.8020   20.1220 C.3    43  ASN43       0.1785
      3  C         -5.1260   -8.9970   20.7630 C.2    43  ASN43       0.2597
      4  O         -6.0380   -9.5660   20.1600 O.2    43  ASN43      -0.2718
      5  CB        -3.6380   -8.3310   18.8880 C.3    43  ASN43       0.1169
      6  CG        -3.0010   -7.2380   18.0690 C.2    43  ASN43       0.2627
      7  OD1       -3.6250   -6.2090   17.8030 O.2    43  ASN43      -0.2716
      8  ND2       -1.7470   -7.4660   17.6390 N.am   43  ASN43      -0.0877
      9  N         -4.7830   -9.3730   21.9930 N.am   44  ASP44      -0.1974
     10  CA        -5.2310  -10.6700   22.5060 C.3    44  ASP44       0.1709
     11  C         -6.2000  -10.5480   23.6720 C.2    44  ASP44       0.2293
     12  O         -6.0970   -9.6630   24.5290 O.2    44  ASP44      -0.2864
     13  CB        -4.0880  -11.5830   22.9370 C.3    44  ASP44       0.1436
     14  CG        -3.3200  -11.0430   24.1050 C.2    44  ASP44       0.3671
     15  OD1       -2.6420  -10.0370   23.8160 O.co2  44  ASP44      -0.2456
     16  OD2       -3.4010  -11.5960   25.2560 O.co2  44  ASP44      -0.2456
     17  N          1.3080  -18.1920   16.2410 N.3   441  TRP441     -0.1227
     18  CA         0.2110  -18.0300   15.2880 C.3   441  TRP441      0.1737
     19  C         -0.2130  -16.5650   15.1290 C.2   441  TRP441      0.2595
     20  O         -0.3490  -16.0650   13.9890 O.2   441  TRP441     -0.2718
     21  CB        -0.9330  -18.9180   15.7220 C.3   441  TRP441      0.0564
     22  CG        -2.1420  -18.8050   14.8410 C.ar  441  TRP441      0.0003
     23  CD1       -2.4310  -19.5380   13.7030 C.ar  441  TRP441      0.0946
     24  CD2       -3.2520  -17.8710   15.0070 C.ar  441  TRP441      0.0152
     25  NE1       -3.6300  -19.1290   13.1740 N.ar  441  TRP441     -0.2442
     26  CE2       -4.1710  -18.1360   13.9170 C.ar  441  TRP441      0.0810
     27  CE3       -3.5680  -16.8810   15.9310 C.ar  441  TRP441      0.0012
     28  CZ2       -5.3370  -17.4230   13.7570 C.ar  441  TRP441      0.0191
     29  CZ3       -4.7560  -16.1530   15.7550 C.ar  441  TRP441      0.0001
     30  CH2       -5.6210  -16.4340   14.6900 C.ar  441  TRP441      0.0015
     31  N         -0.3880  -15.8510   16.2410 N.am  442  VAL442     -0.1980
     32  CA        -0.8150  -14.4470   16.1720 C.3   442  VAL442      0.1595
     33  C          0.1980  -13.6330   15.3550 C.2   442  VAL442      0.2287
     34  O         -0.1770  -12.8210   14.5030 O.2   442  VAL442     -0.2864
     35  CB        -1.0170  -13.8110   17.5600 C.3   442  VAL442      0.0276
     36  CG1       -1.2980  -12.3250   17.4050 C.3   442  VAL442      0.0022
     37  CG2       -2.1620  -14.4720   18.3020 C.3   442  VAL442      0.0022
     38  N         -0.6810  -11.6600   11.8800 N.3   446  THR446     -0.1218
     39  CA        -0.7860  -10.2010   11.9070 C.3   446  THR446      0.1862
     40  C          0.3750   -9.4610   11.2810 C.2   446  THR446      0.2287
     41  O          0.1990   -8.3230   10.8420 O.2   446  THR446     -0.2866
     42  CB        -0.9990   -9.6980   13.3540 C.3   446  THR446      0.1770
     43  OG1        0.1160  -10.0830   14.1630 O.3   446  THR446     -0.2211
     44  CG2       -2.2460  -10.3070   13.9420 C.3   446  THR446      0.0375
     45  N         -9.3470  -19.2900   13.4590 N.3   459  GLY459     -0.1210
     46  CA        -9.2330  -18.1490   14.3520 C.3   459  GLY459      0.1956
     47  C        -10.4310  -18.1120   15.2570 C.2   459  GLY459      0.2613
     48  O        -11.4530  -18.7030   14.9510 O.2   459  GLY459     -0.2717
     49  N        -10.3030  -17.4330   16.3820 N.am  460  SER460     -0.1938
     50  CA       -11.4290  -17.2210   17.2600 C.3   460  SER460      0.2055
     51  C        -11.2960  -15.8610   17.8800 C.2   460  SER460      0.2643
     52  O        -10.1870  -15.3850   18.1240 O.2   460  SER460     -0.2714
     53  CB       -11.5220  -18.2940   18.3390 C.3   460  SER460      0.2130
     54  OG       -10.3000  -18.4180   19.0530 O.3   460  SER460     -0.2179
     55  N        -12.4440  -15.2560   18.1450 N.am  461  TRP461     -0.1973
     56  CA       -12.4900  -13.8720   18.5880 C.3   461  TRP461      0.1640
     57  C        -13.3440  -13.6850   19.7830 C.2   461  TRP461      0.2290
     58  O        -14.4490  -14.1960   19.8340 O.2   461  TRP461     -0.2864
     59  CB       -13.1170  -12.9960   17.5020 C.3   461  TRP461      0.0576
     60  CG       -12.2960  -12.9040   16.2530 C.ar  461  TRP461      0.0006
     61  CD1      -12.4260  -13.6450   15.0800 C.ar  461  TRP461      0.0946
     62  CD2      -11.1790  -12.0100   16.0390 C.ar  461  TRP461      0.0152
     63  NE1      -11.4560  -13.2800   14.1730 N.ar  461  TRP461     -0.2442
     64  CE2      -10.6910  -12.2720   14.6880 C.ar  461  TRP461      0.0810
     65  CE3      -10.5730  -11.0210   16.7970 C.ar  461  TRP461      0.0012
     66  CZ2       -9.6250  -11.5800   14.1590 C.ar  461  TRP461      0.0191
     67  CZ3       -9.4960  -10.3350   16.2510 C.ar  461  TRP461      0.0001
     68  CH2       -9.0420  -10.6110   14.9580 C.ar  461  TRP461      0.0015
     69  N         -6.6610   -7.2500   10.5130 N.3   479  TYR479     -0.1241
     70  CA        -7.3120   -8.4050   11.1280 C.3   479  TYR479      0.1605
     71  C         -8.0140   -9.3140   10.1040 C.2   479  TYR479      0.2264
     72  O         -8.4050  -10.4360   10.4240 O.2   479  TYR479     -0.2867
     73  CB        -8.2860   -7.9180   12.2060 C.3   479  TYR479      0.0534
     74  CG        -7.6460   -7.4960   13.5360 C.ar  479  TYR479     -0.0201
     75  CD1       -6.2570   -7.4270   13.7270 C.ar  479  TYR479     -0.0009
     76  CD2       -8.4630   -7.1960   14.5980 C.ar  479  TYR479     -0.0009
     77  CE1       -5.7420   -7.0200   14.9710 C.ar  479  TYR479      0.0417
     78  CE2       -7.9710   -6.8310   15.8230 C.ar  479  TYR479      0.0417
     79  CZ        -6.6170   -6.7440   16.0240 C.ar  479  TYR479      0.1957
     80  OH        -6.2290   -6.4280   17.3390 O.3   479  TYR479     -0.2866
     81  N         -7.2580  -11.7100    8.0930 N.3   481  PHE481     -0.1241
     82  CA        -6.0470  -12.5450    8.0700 C.3   481  PHE481      0.1605
     83  C         -5.8130  -13.2680    6.7610 C.2   481  PHE481      0.2264
     84  O         -4.6620  -13.5930    6.4310 O.2   481  PHE481     -0.2867
     85  CB        -6.0730  -13.6290    9.1880 C.3   481  PHE481      0.0534
     86  CG        -6.0540  -13.0840   10.5800 C.ar  481  PHE481     -0.0203
     87  CD1       -6.7500  -13.7290   11.5930 C.ar  481  PHE481     -0.0042
     88  CD2       -5.3620  -11.9110   10.8760 C.ar  481  PHE481     -0.0042
     89  CE1       -6.7250  -13.2420   12.8920 C.ar  481  PHE481     -0.0003
     90  CE2       -5.3600  -11.3980   12.1480 C.ar  481  PHE481     -0.0003
     91  CZ        -6.0510  -12.0700   13.1720 C.ar  481  PHE481     -0.0000
@<TRIPOS>BOND
     1    84    83    2
     2    83    82    1
     3    82    81    1
     4    82    85    1
     5    85    86    1
     6    71    72    2
     7    71    70    1
     8    69    70    1
     9    86    88   ar
    10    86    87   ar
    11    41    40    2
    12    88    90   ar
    13    70    73    1
    14    40    39    1
    15    87    89   ar
    16    38    39    1
    17    39    42    1
    18    90    91   ar
    19    73    74    1
    20    89    91   ar
    21    25    23   ar
    22    25    26   ar
    23    42    44    1
    24    42    43    1
    25    45    46    1
    26    74    75   ar
    27    74    76   ar
    28    23    22   ar
    29    75    77   ar
    30    28    26   ar
    31    28    30   ar
    32    26    24   ar
    33    20    19    2
    34    66    64   ar
    35    66    68   ar
    36    63    64   ar
    37    63    61   ar
    38    46    47    1
    39    34    33    2
    40    76    78   ar
    41    64    62   ar
    42    30    29   ar
    43    22    24   ar
    44    22    21    1
    45    48    47    2
    46    68    67   ar
    47    77    79   ar
    48    24    27   ar
    49    61    60   ar
    50    19    18    1
    51    19    31   am
    52    47    49   am
    53    18    21    1
    54    18    17    1
    55    33    32    1
    56    29    27   ar
    57    78    79   ar
    58    79    80    1
    59    62    60   ar
    60    62    65   ar
    61    32    31    1
    62    32    35    1
    63    67    65   ar
    64    60    59    1
    65    49    50    1
    66    50    51    1
    67    50    53    1
    68    36    35    1
    69    59    56    1
    70    35    37    1
    71     8     6   am
    72     7     6    2
    73    51    52    2
    74    51    55   am
    75     6     5    1
    76    55    56    1
    77    53    54    1
    78    56    57    1
    79     5     2    1
    80    57    58    2
    81     2     3    1
    82     2     1    1
    83     4     3    2
    84     3     9   am
    85     9    10    1
    86    10    13    1
    87    10    11    1
    88    13    14    1
    89    11    12    2
    90    15    14   ar
    91    14    16   ar
