@<TRIPOS>MOLECULE
tmp/3rydA00.pdb
 108 98 0 0 0
SMALL
GASTEIGER

@<TRIPOS>ATOM
      1  N          2.8780   23.4750  -33.0930 N.3    38  ASP38      -0.1225
      2  CA         2.8640   22.0340  -32.8460 C.3    38  ASP38       0.1805
      3  C          4.2450   21.4650  -32.4080 C.2    38  ASP38       0.2597
      4  O          5.3270   21.9160  -32.8530 O.2    38  ASP38      -0.2718
      5  CB         2.3430   21.2630  -34.0810 C.3    38  ASP38       0.1424
      6  CG         0.8910   21.6110  -34.4590 C.2    38  ASP38       0.3668
      7  OD1        0.4940   22.8030  -34.3780 O.co2  38  ASP38      -0.2456
      8  OD2        0.1580   20.6770  -34.8890 O.co2  38  ASP38      -0.2456
      9  N          4.1810   20.4660  -31.5330 N.am   39  LEU39      -0.1979
     10  CA         5.3110   19.6310  -31.1790 C.3    39  LEU39       0.1596
     11  C          5.6290   18.6650  -32.3200 C.2    39  LEU39       0.2287
     12  O          4.7420   18.2500  -33.0660 O.2    39  LEU39      -0.2864
     13  CB         4.9050   18.8270  -29.9470 C.3    39  LEU39       0.0297
     14  CG         5.8090   18.5580  -28.7490 C.3    39  LEU39       0.0022
     15  CD1        6.6720   19.7900  -28.3110 C.3    39  LEU39       0.0001
     16  CD2        4.9110   18.0580  -27.6300 C.3    39  LEU39       0.0001
     17  N          1.4850   16.4130  -42.0060 N.3    67  GLU67      -0.1245
     18  CA         2.0120   17.4450  -41.0590 C.3    67  GLU67       0.1567
     19  C          3.2690   18.2180  -41.5520 C.2    67  GLU67       0.2260
     20  O          3.4600   19.3780  -41.1670 O.2    67  GLU67      -0.2867
     21  CB         2.2180   16.9120  -39.6030 C.3    67  GLU67       0.0388
     22  CG         0.9560   16.7440  -38.6590 C.3    67  GLU67       0.1160
     23  CD         0.7640   17.8310  -37.5340 C.2    67  GLU67       0.3649
     24  OE1        1.2830   18.9680  -37.6290 O.co2  67  GLU67      -0.2457
     25  OE2        0.0580   17.5510  -36.5330 O.co2  67  GLU67      -0.2457
     26  N         -1.5790   11.6910  -40.6170 N.3    84  ASP84      -0.1239
     27  CA        -0.8960   12.1350  -39.4090 C.3    84  ASP84       0.1674
     28  C          0.0430   11.0540  -38.8850 C.2    84  ASP84       0.2266
     29  O         -0.4080   10.0910  -38.3210 O.2    84  ASP84      -0.2867
     30  CB        -1.8640   12.5150  -38.3080 C.3    84  ASP84       0.1410
     31  CG        -1.2740   13.5290  -37.3730 C.2    84  ASP84       0.3668
     32  OD1       -0.0440   13.7490  -37.3440 O.co2  84  ASP84      -0.2456
     33  OD2       -2.0510   14.1240  -36.6390 O.co2  84  ASP84      -0.2456
     34  N          2.1720   10.8480  -36.3990 N.3    86  ILE86      -0.1231
     35  CA         1.8340   10.6580  -34.9980 C.3    86  ILE86       0.1692
     36  C          0.7900   11.7160  -34.6360 C.2    86  ILE86       0.2592
     37  O          1.0660   12.9270  -34.6930 O.2    86  ILE86      -0.2718
     38  CB         3.0310   10.8640  -34.0590 C.3    86  ILE86       0.0266
     39  CG1        4.1110    9.7720  -34.2360 C.3    86  ILE86       0.0019
     40  CG2        2.5410   10.9260  -32.6040 C.3    86  ILE86       0.0020
     41  CD1        3.7630    8.3100  -33.7670 C.3    86  ILE86       0.0001
     42  N         -0.4120   11.2630  -34.2850 N.am   87  ASP87      -0.1960
     43  CA        -1.4290   12.1200  -33.7230 C.3    87  ASP87       0.1840
     44  C         -1.4190   11.9040  -32.1840 C.2    87  ASP87       0.2623
     45  O         -1.3670   10.7720  -31.6840 O.2    87  ASP87      -0.2715
     46  CB        -2.7720   11.7810  -34.3700 C.3    87  ASP87       0.1450
     47  CG        -3.9520   12.5250  -33.7490 C.2    87  ASP87       0.3671
     48  OD1       -3.9360   13.7690  -33.7080 O.co2  87  ASP87      -0.2456
     49  OD2       -4.9170   11.8500  -33.3330 O.co2  87  ASP87      -0.2456
     50  N         -1.4300   12.9930  -31.4440 N.am   88  GLY88      -0.1940
     51  CA        -1.1780   12.9310  -30.0120 C.3    88  GLY88       0.2014
     52  C          0.3070   12.9800  -29.6990 C.2    88  GLY88       0.2640
     53  O          0.8010   12.2360  -28.8680 O.2    88  GLY88      -0.2714
     54  N          1.0270   13.8450  -30.3810 N.am   89  THR89      -0.1936
     55  CA         2.4420   14.0350  -30.1230 C.3    89  THR89       0.2028
     56  C          2.8010   14.3950  -28.6670 C.2    89  THR89       0.2642
     57  O          3.8130   13.9310  -28.1710 O.2    89  THR89      -0.2714
     58  CB         2.9800   15.1610  -30.9890 C.3    89  THR89       0.1808
     59  OG1        2.5680   14.9500  -32.3490 O.3    89  THR89      -0.2208
     60  CG2        4.4880   15.1990  -30.9080 C.3    89  THR89       0.0379
     61  N          2.0360   15.2500  -28.0020 N.am   90  ALA90      -0.1977
     62  CA         2.2830   15.4860  -26.5690 C.3    90  ALA90       0.1597
     63  C          2.2020   14.1740  -25.7860 C.2    90  ALA90       0.2287
     64  O          3.0310   13.9300  -24.9200 O.2    90  ALA90      -0.2864
     65  CB         1.3300   16.5620  -25.9540 C.3    90  ALA90       0.0319
     66  N         -6.6220   12.6440  -25.5330 N.3   179  GLY179     -0.1225
     67  CA        -5.6380   13.6270  -25.9480 C.3   179  GLY179      0.1811
     68  C         -5.0160   13.4200  -27.3200 C.2   179  GLY179      0.2280
     69  O         -4.1120   14.1710  -27.7120 O.2   179  GLY179     -0.2866
     70  N         -6.7980   13.2750  -31.1030 N.3   181  CYS181     -0.1235
     71  CA        -8.0680   13.4430  -31.8470 C.3   181  CYS181      0.1677
     72  C         -8.5720   12.1450  -32.4470 C.2   181  CYS181      0.2270
     73  O         -9.7670   11.7990  -32.3160 O.2   181  CYS181     -0.2867
     74  CB        -7.8960   14.4750  -32.9810 C.3   181  CYS181      0.0956
     75  SG        -9.4100   14.9700  -33.8860 S.3   181  CYS181     -0.0801
     76  N        -12.7940   19.0830  -31.5280 N.3   198  ASN198     -0.1240
     77  CA       -11.5970   19.8590  -31.7540 C.3   198  ASN198      0.1653
     78  C        -11.9800   21.1950  -32.3860 C.2   198  ASN198      0.2266
     79  O        -12.5640   21.2200  -33.4740 O.2   198  ASN198     -0.2867
     80  CB       -10.6220   19.0840  -32.6440 C.3   198  ASN198      0.1155
     81  CG        -9.2780   19.7150  -32.6890 C.2   198  ASN198      0.2627
     82  OD1       -9.1450   20.9630  -32.6720 O.2   198  ASN198     -0.2716
     83  ND2       -8.2510   18.8890  -32.7480 N.am  198  ASN198     -0.0877
     84  N        -10.0690   23.5370  -33.5950 N.3   200  ASN200     -0.1240
     85  CA        -9.1000   24.0430  -34.5730 C.3   200  ASN200      0.1653
     86  C         -8.1990   22.9160  -35.0980 C.2   200  ASN200      0.2266
     87  O         -7.0080   22.8680  -34.8010 O.2   200  ASN200     -0.2867
     88  CB        -8.2620   25.1840  -33.9650 C.3   200  ASN200      0.1155
     89  CG        -7.3280   25.8240  -34.9790 C.2   200  ASN200      0.2627
     90  OD1       -7.5770   25.7670  -36.1940 O.2   200  ASN200     -0.2716
     91  ND2       -6.2350   26.4340  -34.4900 N.am  200  ASN200     -0.0877
     92  N         -6.4520   20.2440  -38.1140 N.3   202  LYS202     -0.1245
     93  CA        -5.8620   20.3130  -39.4260 C.3   202  LYS202      0.1561
     94  C         -6.4650   19.1570  -40.1650 C.2   202  LYS202      0.2260
     95  O         -7.0350   18.2890  -39.5210 O.2   202  LYS202     -0.2867
     96  CB        -4.3680   20.1210  -39.2940 C.3   202  LYS202      0.0271
     97  CG        -3.6360   21.4160  -39.1230 C.3   202  LYS202      0.0035
     98  CD        -2.6050   21.2260  -38.0490 C.3   202  LYS202      0.0206
     99  CE        -1.9150   22.5900  -37.7140 C.3   202  LYS202      0.1093
    100  NZ        -0.5560   22.6540  -38.3110 N.3   202  LYS202     -0.1314
    101  N         -5.7080   15.8410  -38.7860 N.3   205  ASP205     -0.1239
    102  CA        -6.3390   15.5200  -37.4790 C.3   205  ASP205      0.1674
    103  C         -7.6280   14.7650  -37.6600 C.2   205  ASP205      0.2266
    104  O         -8.0340   14.0470  -36.7400 O.2   205  ASP205     -0.2867
    105  CB        -6.6440   16.7700  -36.6270 C.3   205  ASP205      0.1410
    106  CG        -5.3910   17.5200  -36.2180 C.2   205  ASP205      0.3668
    107  OD1       -4.4140   16.8450  -35.8910 O.co2 205  ASP205     -0.2456
    108  OD2       -5.3710   18.7750  -36.2490 O.co2 205  ASP205     -0.2456
@<TRIPOS>BOND
     1    17    18    1
     2    19    20    2
     3    19    18    1
     4    18    21    1
     5    26    27    1
     6    94    95    2
     7    94    93    1
     8    21    22    1
     9    93    96    1
    10    93    92    1
    11    27    28    1
    12    27    30    1
    13    96    97    1
    14    97    98    1
    15    28    29    2
    16   101   102    1
    17    22    23    1
    18   100    99    1
    19    30    31    1
    20    98    99    1
    21   103   102    1
    22   103   104    2
    23    24    23   ar
    24    23    25   ar
    25   102   105    1
    26    31    32   ar
    27    31    33   ar
    28   105   106    1
    29    34    35    1
    30   108   106   ar
    31   106   107   ar
    32    90    89    2
    33    86    87    2
    34    86    85    1
    35    35    36    1
    36    35    38    1
    37    89    91   am
    38    89    88    1
    39     8     6   ar
    40    37    36    2
    41    36    42   am
    42    85    88    1
    43    85    84    1
    44     6     7   ar
    45     6     5    1
    46    46    47    1
    47    46    43    1
    48    42    43    1
    49    39    38    1
    50    39    41    1
    51     5     2    1
    52    38    40    1
    53    75    74    1
    54    47    48   ar
    55    47    49   ar
    56    43    44    1
    57    79    78    2
    58     1     2    1
    59    12    11    2
    60    74    71    1
    61     4     3    2
    62     2     3    1
    63    83    81   am
    64    81    82    2
    65    81    80    1
    66    80    77    1
    67    72    73    2
    68    72    71    1
    69     3     9   am
    70    78    77    1
    71    59    58    1
    72    11    10    1
    73    44    45    2
    74    44    50   am
    75    71    70    1
    76    77    76    1
    77     9    10    1
    78    50    51    1
    79    10    13    1
    80    58    60    1
    81    58    55    1
    82    54    55    1
    83    54    52   am
    84    55    56    1
    85    51    52    1
    86    13    14    1
    87    52    53    2
    88    14    15    1
    89    14    16    1
    90    56    57    2
    91    56    61   am
    92    61    62    1
    93    69    68    2
    94    68    67    1
    95    62    65    1
    96    62    63    1
    97    67    66    1
    98    63    64    2
