@<TRIPOS>MOLECULE
tmp/3ryeA00.pdb
 182 167 0 0 0
SMALL
GASTEIGER

@<TRIPOS>ATOM
      1  N          2.7860  -30.9020   20.8320 N.3    51  ARG51      -0.1245
      2  CA         2.9290  -29.5030   21.2030 C.3    51  ARG51       0.1563
      3  C          2.1800  -28.6220   20.2130 C.2    51  ARG51       0.2260
      4  O          1.3920  -27.7620   20.6030 O.2    51  ARG51      -0.2867
      5  CB         4.4100  -29.1090   21.2940 C.3    51  ARG51       0.0307
      6  CG         5.1430  -29.7270   22.4740 C.3    51  ARG51       0.0489
      7  CD         6.6530  -29.4780   22.3630 C.3    51  ARG51       0.2205
      8  NE         7.3910  -30.1020   23.4580 N.pl3  51  ARG51      -0.0865
      9  CZ         7.6910  -31.3950   23.5200 C.cat  51  ARG51       0.5346
     10  NH1        7.3210  -32.2160   22.5450 N.pl3  51  ARG51       0.1354
     11  NH2        8.3590  -31.8700   24.5680 N.pl3  51  ARG51       0.1354
     12  N         15.4970  -27.1050   18.8820 N.3    90  PHE90      -0.1227
     13  CA        16.0580  -27.5280   20.1600 C.3    90  PHE90       0.1736
     14  C         16.5970  -28.9620   20.1260 C.2    90  PHE90       0.2595
     15  O         17.6350  -29.2310   20.7180 O.2    90  PHE90      -0.2718
     16  CB        15.0300  -27.4360   21.2920 C.3    90  PHE90       0.0547
     17  CG        14.6630  -26.0300   21.6650 C.ar   90  PHE90      -0.0202
     18  CD1       13.3530  -25.7110   21.9950 C.ar   90  PHE90      -0.0042
     19  CD2       15.6210  -25.0330   21.6840 C.ar   90  PHE90      -0.0042
     20  CE1       13.0160  -24.4130   22.3360 C.ar   90  PHE90      -0.0003
     21  CE2       15.2870  -23.7330   22.0230 C.ar   90  PHE90      -0.0003
     22  CZ        13.9890  -23.4250   22.3450 C.ar   90  PHE90      -0.0000
     23  N         15.9000  -29.8800   19.4610 N.am   91  LEU91      -0.1980
     24  CA        16.3110  -31.2920   19.4720 C.3    91  LEU91       0.1596
     25  C         17.5690  -31.5380   18.6470 C.2    91  LEU91       0.2287
     26  O         18.4220  -32.3540   19.0040 O.2    91  LEU91      -0.2864
     27  CB        15.2000  -32.2150   18.9460 C.3    91  LEU91       0.0297
     28  CG        13.9370  -32.2260   19.8070 C.3    91  LEU91       0.0022
     29  CD1       12.9790  -33.3160   19.3420 C.3    91  LEU91       0.0001
     30  CD2       14.2630  -32.3620   21.2930 C.3    91  LEU91       0.0001
     31  N         20.2890  -30.2350   20.8930 N.3    94  ASP94      -0.1225
     32  CA        20.3730  -31.0810   22.0820 C.3    94  ASP94       0.1805
     33  C         20.9960  -32.4470   21.7600 C.2    94  ASP94       0.2597
     34  O         21.7700  -32.9890   22.5440 O.2    94  ASP94      -0.2718
     35  CB        18.9810  -31.2490   22.7010 C.3    94  ASP94       0.1424
     36  CG        18.9730  -32.2370   23.8490 C.2    94  ASP94       0.3668
     37  OD1       18.6880  -33.4400   23.6220 O.co2  94  ASP94      -0.2456
     38  OD2       19.2520  -31.8030   24.9910 O.co2  94  ASP94      -0.2456
     39  N         20.6810  -33.0100   20.5970 N.am   95  ASP95      -0.1974
     40  CA        21.2690  -34.2940   20.2070 C.3    95  ASP95       0.1709
     41  C         22.7820  -34.2440   19.9640 C.2    95  ASP95       0.2293
     42  O         23.5080  -35.1890   20.2960 O.2    95  ASP95      -0.2864
     43  CB        20.5720  -34.8470   18.9750 C.3    95  ASP95       0.1436
     44  CG        19.2480  -35.4960   19.3100 C.2    95  ASP95       0.3671
     45  OD1       19.0620  -35.8700   20.4940 O.co2  95  ASP95      -0.2456
     46  OD2       18.4120  -35.6090   18.3860 O.co2  95  ASP95      -0.2456
     47  N         24.1860  -33.7400   23.7170 N.3    98  ASP98      -0.1239
     48  CA        24.0380  -34.9350   24.5410 C.3    98  ASP98       0.1674
     49  C         24.7030  -36.1670   23.9180 C.2    98  ASP98       0.2266
     50  O         24.6300  -37.2580   24.4820 O.2    98  ASP98      -0.2867
     51  CB        22.5500  -35.2100   24.8110 C.3    98  ASP98       0.1410
     52  CG        21.8980  -34.1260   25.6720 C.2    98  ASP98       0.3668
     53  OD1       22.6240  -33.3430   26.3230 O.co2  98  ASP98      -0.2456
     54  OD2       20.6500  -34.0560   25.7160 O.co2  98  ASP98      -0.2456
     55  N         23.8060  -37.9290   21.2520 N.3   100  SER100     -0.1217
     56  CA        22.7960  -38.9560   21.0660 C.3   100  SER100      0.1889
     57  C         22.9570  -39.6860   19.7380 C.2   100  SER100      0.2288
     58  O         23.6350  -39.2020   18.8300 O.2   100  SER100     -0.2866
     59  CB        21.4020  -38.3490   21.2180 C.3   100  SER100      0.2089
     60  OG        21.1890  -38.0580   22.5950 O.3   100  SER100     -0.2183
     61  N         16.8980  -40.3950   17.0270 N.3   103  ARG103     -0.1245
     62  CA        15.8000  -39.5330   17.4630 C.3   103  ARG103      0.1563
     63  C         14.6240  -39.8900   16.5560 C.2   103  ARG103      0.2260
     64  O         14.7700  -39.9690   15.3320 O.2   103  ARG103     -0.2867
     65  CB        16.2420  -38.0620   17.3150 C.3   103  ARG103      0.0307
     66  CG        15.1630  -36.9670   17.3370 C.3   103  ARG103      0.0489
     67  CD        14.6760  -36.5860   18.7320 C.3   103  ARG103      0.2205
     68  NE        15.6910  -36.0810   19.6520 N.pl3 103  ARG103     -0.0865
     69  CZ        15.4750  -35.9130   20.9560 C.cat 103  ARG103      0.5346
     70  NH1       14.2920  -36.1970   21.4840 N.pl3 103  ARG103      0.1354
     71  NH2       16.4250  -35.4560   21.7530 N.pl3 103  ARG103      0.1354
     72  N         14.2830  -21.6910   27.7360 N.3   158  THR158     -0.1218
     73  CA        14.7390  -23.0530   27.4460 C.3   158  THR158      0.1862
     74  C         16.2720  -23.1230   27.4100 C.2   158  THR158      0.2287
     75  O         16.8570  -24.0800   27.8950 O.2   158  THR158     -0.2866
     76  CB        14.1520  -23.6070   26.1230 C.3   158  THR158      0.1770
     77  OG1       12.7240  -23.6160   26.2070 O.3   158  THR158     -0.2211
     78  CG2       14.6260  -25.0540   25.8670 C.3   158  THR158      0.0375
     79  N         18.7300  -25.3890   29.5280 N.3   162  GLN162     -0.1245
     80  CA        19.8120  -26.1490   28.8980 C.3   162  GLN162      0.1566
     81  C         21.1720  -25.8350   29.5250 C.2   162  GLN162      0.2260
     82  O         21.9950  -26.7220   29.7540 O.2   162  GLN162     -0.2867
     83  CB        19.8960  -25.8150   27.4040 C.3   162  GLN162      0.0367
     84  CG        18.9760  -26.5860   26.4710 C.3   162  GLN162      0.0905
     85  CD        19.1340  -28.0960   26.5800 C.2   162  GLN162      0.2608
     86  OE1       18.5660  -28.7080   27.4820 O.2   162  GLN162     -0.2717
     87  NE2       19.8960  -28.6980   25.6670 N.am  162  GLN162     -0.0878
     88  N         21.1980  -27.6370   32.8210 N.3   165  ASP165     -0.1239
     89  CA        21.3290  -29.0550   32.4970 C.3   165  ASP165      0.1674
     90  C         22.8140  -29.3510   32.2290 C.2   165  ASP165      0.2266
     91  O         23.3960  -30.2580   32.8210 O.2   165  ASP165     -0.2867
     92  CB        20.4510  -29.3310   31.2730 C.3   165  ASP165      0.1410
     93  CG        20.5760  -30.7450   30.7410 C.2   165  ASP165      0.3668
     94  OD1       21.5110  -31.0190   29.9550 O.co2 165  ASP165     -0.2456
     95  OD2       19.7030  -31.5730   31.0810 O.co2 165  ASP165     -0.2456
     96  N         14.1350  -25.8410   31.2410 N.3   191  LYS191     -0.1231
     97  CA        14.4580  -26.5130   29.9800 C.3   191  LYS191      0.1693
     98  C         13.2470  -27.1090   29.2810 C.2   191  LYS191      0.2592
     99  O         13.2350  -27.2710   28.0560 O.2   191  LYS191     -0.2718
    100  CB        15.5980  -27.5380   30.1220 C.3   191  LYS191      0.0285
    101  CG        15.1840  -28.9280   30.6080 C.3   191  LYS191      0.0035
    102  CD        16.3050  -29.9530   30.4220 C.3   191  LYS191      0.0206
    103  CE        15.8870  -31.3210   31.0020 C.3   191  LYS191      0.1093
    104  NZ        16.8260  -32.4420   30.6860 N.3   191  LYS191     -0.1314
    105  N         12.2190  -27.4460   30.0500 N.am  192  THR192     -0.1953
    106  CA        11.1240  -28.2200   29.4750 C.3   192  THR192      0.1897
    107  C          9.7700  -27.5330   29.6100 C.2   192  THR192      0.2313
    108  O          9.0210  -27.4240   28.6390 O.2   192  THR192     -0.2863
    109  CB        11.0830  -29.6580   30.0300 C.3   192  THR192      0.1794
    110  OG1       12.2680  -30.3350   29.5900 O.3   192  THR192     -0.2208
    111  CG2        9.8480  -30.4180   29.5080 C.3   192  THR192      0.0378
    112  N          8.4190  -24.2460   27.3290 N.3   195  TYR195     -0.1241
    113  CA         8.1770  -24.3360   25.8850 C.3   195  TYR195      0.1605
    114  C          7.2660  -25.5040   25.5130 C.2   195  TYR195      0.2264
    115  O          6.6500  -25.5220   24.4450 O.2   195  TYR195     -0.2867
    116  CB         9.4880  -24.4360   25.1010 C.3   195  TYR195      0.0534
    117  CG         9.9910  -25.8420   24.7920 C.ar  195  TYR195     -0.0201
    118  CD1        9.6960  -26.4700   23.5840 C.ar  195  TYR195     -0.0009
    119  CD2       10.7730  -26.5370   25.7110 C.ar  195  TYR195     -0.0009
    120  CE1       10.1600  -27.7490   23.3050 C.ar  195  TYR195      0.0417
    121  CE2       11.2460  -27.8120   25.4430 C.ar  195  TYR195      0.0417
    122  CZ        10.9390  -28.4090   24.2440 C.ar  195  TYR195      0.1957
    123  OH        11.4190  -29.6760   24.0120 O.3   195  TYR195     -0.2866
    124  N          8.9130  -34.1370   32.2020 N.3   231  GLN231     -0.1245
    125  CA        10.3620  -34.3210   32.1270 C.3   231  GLN231      0.1566
    126  C         10.8050  -35.4640   33.0210 C.2   231  GLN231      0.2260
    127  O         11.7060  -36.2220   32.6610 O.2   231  GLN231     -0.2867
    128  CB        11.1390  -33.0580   32.5070 C.3   231  GLN231      0.0367
    129  CG        12.6470  -33.2060   32.2250 C.3   231  GLN231      0.0905
    130  CD        12.9520  -33.5680   30.7780 C.2   231  GLN231      0.2608
    131  OE1       12.3820  -32.9970   29.8490 O.2   231  GLN231     -0.2717
    132  NE2       13.8650  -34.5140   30.5780 N.am  231  GLN231     -0.0878
    133  N         10.2310  -38.3550   31.0750 N.3   234  ASP234     -0.1225
    134  CA        11.1980  -38.4760   29.9790 C.3   234  ASP234      0.1805
    135  C         12.4740  -39.1050   30.5400 C.2   234  ASP234      0.2597
    136  O         13.1010  -39.9370   29.8940 O.2   234  ASP234     -0.2718
    137  CB        11.5040  -37.0970   29.3830 C.3   234  ASP234      0.1424
    138  CG        12.5220  -37.1450   28.2520 C.2   234  ASP234      0.3668
    139  OD1       12.1870  -37.6260   27.1470 O.co2 234  ASP234     -0.2456
    140  OD2       13.6680  -36.6820   28.4550 O.co2 234  ASP234     -0.2456
    141  N         12.8470  -38.7130   31.7550 N.am  235  ASP235     -0.1974
    142  CA        14.0310  -39.2610   32.4000 C.3   235  ASP235      0.1709
    143  C         13.8280  -40.7490   32.6830 C.2   235  ASP235      0.2293
    144  O         14.7270  -41.5630   32.4470 O.2   235  ASP235     -0.2864
    145  CB        14.3330  -38.5140   33.7020 C.3   235  ASP235      0.1436
    146  CG        14.7510  -37.0610   33.4740 C.2   235  ASP235      0.3671
    147  OD1       14.9290  -36.6590   32.3070 O.co2 235  ASP235     -0.2456
    148  OD2       14.8950  -36.3070   34.4640 O.co2 235  ASP235     -0.2456
    149  N         14.1250  -42.7060   29.5260 N.3   238  ASP238     -0.1239
    150  CA        15.5090  -42.7610   29.0620 C.3   238  ASP238      0.1674
    151  C         16.2000  -44.0920   29.3620 C.2   238  ASP238      0.2266
    152  O         16.9360  -44.6080   28.5200 O.2   238  ASP238     -0.2867
    153  CB        16.3370  -41.6180   29.6560 C.3   238  ASP238      0.1410
    154  CG        17.6300  -41.3770   28.8880 C.2   238  ASP238      0.3668
    155  OD1       17.5580  -40.8560   27.7530 O.co2 238  ASP238     -0.2456
    156  OD2       18.7130  -41.7120   29.4180 O.co2 238  ASP238     -0.2456
    157  N         14.2230  -43.3240   20.4850 N.3   248  LYS248     -0.1245
    158  CA        15.5650  -42.8030   20.7640 C.3   248  LYS248      0.1561
    159  C         16.3200  -43.6540   21.7850 C.2   248  LYS248      0.2260
    160  O         15.7230  -44.2360   22.6990 O.2   248  LYS248     -0.2867
    161  CB        15.4680  -41.3640   21.2880 C.3   248  LYS248      0.0271
    162  CG        14.7170  -41.2610   22.6120 C.3   248  LYS248      0.0035
    163  CD        14.1630  -39.8540   22.8670 C.3   248  LYS248      0.0206
    164  CE        13.9320  -39.6360   24.3540 C.3   248  LYS248      0.1093
    165  NZ        12.9180  -38.5860   24.5830 N.3   248  LYS248     -0.1314
    166  N         21.4980  -40.7270   29.4530 N.3   252  ASP252     -0.1239
    167  CA        21.5650  -39.9050   30.6540 C.3   252  ASP252      0.1674
    168  C         22.6940  -40.3420   31.5900 C.2   252  ASP252      0.2266
    169  O         23.4120  -39.5170   32.1600 O.2   252  ASP252     -0.2867
    170  CB        20.2280  -39.9410   31.3950 C.3   252  ASP252      0.1410
    171  CG        19.1740  -39.0250   30.7750 C.2   252  ASP252      0.3668
    172  OD1       18.0240  -39.0230   31.2730 O.co2 252  ASP252     -0.2456
    173  OD2       19.4860  -38.3120   29.7970 O.co2 252  ASP252     -0.2456
    174  N         24.0560  -37.0800   33.7020 N.3   257  LYS257     -0.1245
    175  CA        22.9500  -36.1230   33.8460 C.3   257  LYS257      0.1561
    176  C         22.3270  -36.1210   35.2340 C.2   257  LYS257      0.2260
    177  O         22.2980  -37.1520   35.9050 O.2   257  LYS257     -0.2867
    178  CB        21.8520  -36.4140   32.8260 C.3   257  LYS257      0.0271
    179  CG        22.2920  -36.1700   31.3980 C.3   257  LYS257      0.0035
    180  CD        22.6450  -34.7080   31.1280 C.3   257  LYS257      0.0206
    181  CE        22.8410  -34.5450   29.6240 C.3   257  LYS257      0.1093
    182  NZ        23.2500  -33.1880   29.2010 N.3   257  LYS257     -0.1314
@<TRIPOS>BOND
     1    64    63    2
     2    63    62    1
     3    61    62    1
     4    65    66    1
     5    65    62    1
     6    66    67    1
     7    46    44   ar
     8    25    26    2
     9    25    24    1
    10    67    68    1
    11    58    57    2
    12    12    13    1
    13    27    24    1
    14    27    28    1
    15    43    44    1
    16    43    40    1
    17    44    45   ar
    18    29    28    1
    19    23    24    1
    20    23    14   am
    21    68    69    2
    22    57    56    1
    23    28    30    1
    24    41    40    1
    25    41    42    2
    26    14    13    1
    27    14    15    2
    28    13    16    1
    29    40    39    1
    30     3     4    2
    31     3     2    1
    32   157   158    1
    33    39    33   am
    34   158   161    1
    35   158   159    1
    36     1     2    1
    37    31    32    1
    38    69    70    1
    39    69    71    1
    40    56    59    1
    41    56    55    1
    42     2     5    1
    43    59    60    1
    44   161   162    1
    45    16    17    1
    46     5     6    1
    47    17    19   ar
    48    17    18   ar
    49    19    21   ar
    50    33    32    1
    51    33    34    2
    52   159   160    2
    53    18    20   ar
    54    21    22   ar
    55    32    35    1
    56    20    22   ar
    57     7     6    1
    58     7     8    1
    59    10     9    1
    60   162   163    1
    61    35    36    1
    62   163   164    1
    63   120   118   ar
    64   120   122   ar
    65     8     9    2
    66     9    11    1
    67   118   117   ar
    68    37    36   ar
    69    47    48    1
    70    36    38   ar
    71    49    50    2
    72    49    48    1
    73   123   122    1
    74   122   121   ar
    75   164   165    1
    76   115   114    2
    77    48    51    1
    78   117   116    1
    79   117   119   ar
    80    51    52    1
    81   116   113    1
    82   121   119   ar
    83   114   113    1
    84    87    85   am
    85    52    54   ar
    86    52    53   ar
    87    78    76    1
    88   113   112    1
    89    76    77    1
    90    76    73    1
    91    84    85    1
    92    84    83    1
    93    85    86    2
    94   139   138   ar
    95    83    80    1
    96    74    73    1
    97    74    75    2
    98    73    72    1
    99   155   154   ar
   100    99    98    2
   101   138   140   ar
   102   138   137    1
   103   152   151    2
   104   108   107    2
   105   154   156   ar
   106   154   153    1
   107    80    81    1
   108    80    79    1
   109   150   151    1
   110   150   149    1
   111   150   153    1
   112   182   181    1
   113    98    97    1
   114    98   105   am
   115   137   134    1
   116   166   167    1
   117   106   107    1
   118   106   109    1
   119   106   105    1
   120   111   109    1
   121    81    82    2
   122   110   109    1
   123   181   180    1
   124   173   171   ar
   125   131   130    2
   126   136   135    2
   127    94    93   ar
   128   134   135    1
   129   134   133    1
   130    97   100    1
   131    97    96    1
   132   100   101    1
   133   102   101    1
   134   102   103    1
   135   135   141   am
   136   132   130   am
   137   167   170    1
   138   167   168    1
   139   104   103    1
   140    93    95   ar
   141    93    92    1
   142   171   172   ar
   143   171   170    1
   144   130   129    1
   145   180   179    1
   146    92    89    1
   147   179   178    1
   148   168   169    2
   149   141   142    1
   150   125   124    1
   151   125   128    1
   152   125   126    1
   153   129   128    1
   154    90    89    1
   155    90    91    2
   156   147   146   ar
   157   142   143    1
   158   142   145    1
   159   144   143    2
   160    89    88    1
   161   127   126    2
   162   178   175    1
   163   146   145    1
   164   146   148   ar
   165   174   175    1
   166   175   176    1
   167   176   177    2
