@<TRIPOS>MOLECULE
tmp/3ryjA00.pdb
 146 142 0 0 0
SMALL
GASTEIGER

@<TRIPOS>ATOM
      1  N         20.4990   -2.8110    6.3750 N.3    61  HIS61      -0.1241
      2  CA        20.3450   -3.5410    7.6370 C.3    61  HIS61       0.1621
      3  C         18.9590   -4.1010    7.8610 C.2    61  HIS61       0.2264
      4  O         18.8580   -5.1050    8.5090 O.2    61  HIS61      -0.2867
      5  CB        20.9160   -2.8480    8.9050 C.3    61  HIS61       0.0745
      6  CG        20.5530   -1.4020    9.0780 C.ar   61  HIS61       0.0817
      7  ND1       19.5900   -0.9760    9.9800 N.ar   61  HIS61      -0.2268
      8  CD2       21.1120   -0.2760    8.5690 C.ar   61  HIS61       0.1154
      9  CE1       19.5600    0.3420    9.9970 C.ar   61  HIS61       0.1986
     10  NE2       20.4390    0.7900    9.1170 N.ar   61  HIS61      -0.2212
     11  N          8.6470    5.6300   11.2410 N.3    89  GLN89      -0.1245
     12  CA         8.9250    4.4630   10.3620 C.3    89  GLN89       0.1566
     13  C          8.6900    3.1740   11.1340 C.2    89  GLN89       0.2260
     14  O          8.6720    3.2110   12.3720 O.2    89  GLN89      -0.2867
     15  CB        10.3960    4.4730    9.8210 C.3    89  GLN89       0.0367
     16  CG        11.4880    4.5990   10.8900 C.3    89  GLN89       0.0905
     17  CD        12.1900    3.3050   11.2880 C.2    89  GLN89       0.2608
     18  OE1       11.6350    2.1980   11.1340 O.2    89  GLN89      -0.2717
     19  NE2       13.3910    3.4110   11.8220 N.am   89  GLN89      -0.0878
     20  N         10.0530   -1.1000   10.9270 N.3    91  HIS91      -0.1241
     21  CA        10.9580   -2.0990   10.2980 C.3    91  HIS91       0.1621
     22  C         10.8320   -3.3740   11.1420 C.2    91  HIS91       0.2264
     23  O         10.2420   -3.3920   12.2100 O.2    91  HIS91      -0.2867
     24  CB        12.4010   -1.5630   10.2370 C.3    91  HIS91       0.0745
     25  CG        12.9370   -1.3240   11.6050 C.ar   91  HIS91       0.0817
     26  ND1       12.7440   -0.1010   12.2490 N.ar   91  HIS91      -0.2268
     27  CD2       13.5860   -2.1120   12.5060 C.ar   91  HIS91       0.1154
     28  CE1       13.2550   -0.1640   13.4790 C.ar   91  HIS91       0.1986
     29  NE2       13.7660   -1.3750   13.6580 N.ar   91  HIS91      -0.2212
     30  N         13.1530   -7.0900   12.5100 N.3    93  HIS93      -0.1241
     31  CA        14.3860   -7.8760   12.6340 C.3    93  HIS93       0.1621
     32  C         13.9360   -9.3330   12.5550 C.2    93  HIS93       0.2264
     33  O         12.8560   -9.6690   13.0710 O.2    93  HIS93      -0.2867
     34  CB        15.0350   -7.6310   14.0120 C.3    93  HIS93       0.0745
     35  CG        15.3250   -6.1840   14.2760 C.ar   93  HIS93       0.0817
     36  ND1       16.5700   -5.6280   14.0860 N.ar   93  HIS93      -0.2268
     37  CD2       14.4880   -5.1850   14.6450 C.ar   93  HIS93       0.1154
     38  CE1       16.4890   -4.3170   14.4050 C.ar   93  HIS93       0.1986
     39  NE2       15.2350   -4.0040   14.7040 N.ar   93  HIS93      -0.2212
     40  N          9.2450   -3.2540   14.8600 N.3   116  HIS116     -0.1241
     41  CA         9.4770   -2.0300   15.6420 C.3   116  HIS116      0.1621
     42  C          8.7900   -0.8620   14.9410 C.2   116  HIS116      0.2264
     43  O          9.1890   -0.4980   13.7990 O.2   116  HIS116     -0.2867
     44  CB        10.9710   -1.7340   15.7100 C.3   116  HIS116      0.0745
     45  CG        11.6560   -2.7140   16.5980 C.ar  116  HIS116      0.0817
     46  ND1       13.0330   -2.9400   16.6040 N.ar  116  HIS116     -0.2268
     47  CD2       11.1350   -3.5370   17.5750 C.ar  116  HIS116      0.1154
     48  CE1       13.3280   -3.8620   17.5180 C.ar  116  HIS116      0.1986
     49  NE2       12.2040   -4.2530   18.1280 N.ar  116  HIS116     -0.2212
     50  N          8.4610    2.9340   15.2040 N.3   118  VAL118     -0.1245
     51  CA         9.3130    3.9540   15.8280 C.3   118  VAL118      0.1561
     52  C          8.6320    5.3140   15.8510 C.2   118  VAL118      0.2260
     53  O          8.1720    5.7620   14.7940 O.2   118  VAL118     -0.2867
     54  CB        10.6280    4.0290   15.0220 C.3   118  VAL118      0.0252
     55  CG1       11.5910    5.1140   15.6340 C.3   118  VAL118      0.0019
     56  CG2       11.3300    2.6700   14.8800 C.3   118  VAL118      0.0019
     57  N         13.0970   14.6940   14.7190 N.3   127  PHE127     -0.1241
     58  CA        13.6100   13.4070   15.1140 C.3   127  PHE127      0.1605
     59  C         15.0620   13.4590   15.5610 C.2   127  PHE127      0.2264
     60  O         15.4490   12.8100   16.5590 O.2   127  PHE127     -0.2867
     61  CB        13.4570   12.4510   13.9210 C.3   127  PHE127      0.0534
     62  CG        13.9460   11.0740   14.2140 C.ar  127  PHE127     -0.0203
     63  CD1       13.1270   10.1620   14.8360 C.ar  127  PHE127     -0.0042
     64  CD2       15.2000   10.6630   13.8310 C.ar  127  PHE127     -0.0042
     65  CE1       13.5690    8.8560   15.1300 C.ar  127  PHE127     -0.0003
     66  CE2       15.6060    9.2910   14.1390 C.ar  127  PHE127     -0.0003
     67  CZ        14.7430    8.4440   14.7540 C.ar  127  PHE127     -0.0000
     68  N         16.3280   12.0690   19.3450 N.3   131  VAL131     -0.1245
     69  CA        17.2290   10.9310   19.6810 C.3   131  VAL131      0.1561
     70  C         18.3750   11.3090   20.6340 C.2   131  VAL131      0.2260
     71  O         19.0340   10.4200   21.1780 O.2   131  VAL131     -0.2867
     72  CB        17.8770   10.2380   18.4100 C.3   131  VAL131      0.0252
     73  CG1       16.8080    9.6750   17.5550 C.3   131  VAL131      0.0019
     74  CG2       18.7920   11.1960   17.6280 C.3   131  VAL131      0.0019
     75  N          9.3580    3.1820   21.0740 N.3   139  VAL139     -0.1245
     76  CA         9.3010    2.1180   20.0710 C.3   139  VAL139      0.1561
     77  C          8.3320    1.0250   20.5640 C.2   139  VAL139      0.2260
     78  O          8.4710    0.5510   21.6990 O.2   139  VAL139     -0.2867
     79  CB        10.6980    1.5180   19.7190 C.3   139  VAL139      0.0252
     80  CG1       10.5290    0.4570   18.5970 C.3   139  VAL139      0.0019
     81  CG2       11.6340    2.6740   19.2630 C.3   139  VAL139      0.0019
     82  N         18.2860    2.5380   21.2120 N.3   194  LEU194     -0.1231
     83  CA        18.2810    2.0090   19.8560 C.3   194  LEU194      0.1693
     84  C         18.9870    0.6600   19.8990 C.2   194  LEU194      0.2593
     85  O         20.0490    0.5350   20.5750 O.2   194  LEU194     -0.2718
     86  CB        19.0180    2.9600   18.9160 C.3   194  LEU194      0.0284
     87  CG        18.5530    4.4130   18.9010 C.3   194  LEU194      0.0019
     88  CD1       19.3790    5.1800   17.8220 C.3   194  LEU194      0.0001
     89  CD2       17.0590    4.5290   18.5810 C.3   194  LEU194      0.0001
     90  N         18.5260   -0.2940   19.0620 N.am  195  THR195     -0.1939
     91  CA        19.2150   -1.6030   19.0500 C.3   195  THR195      0.2028
     92  C         20.2380   -1.7030   17.9070 C.2   195  THR195      0.2643
     93  O         20.8300   -2.7690   17.7430 O.2   195  THR195     -0.2714
     94  CB        18.2190   -2.7450   18.9250 C.3   195  THR195      0.1808
     95  OG1       17.6030   -2.6560   17.6330 O.3   195  THR195     -0.2208
     96  CG2       17.1880   -2.6960   20.0590 C.3   195  THR195      0.0379
     97  N         20.4220   -0.5960   17.1280 N.am  196  THR196     -0.1937
     98  CA        21.4820   -0.5600   16.1110 C.3   196  THR196      0.2013
     99  C         22.2940    0.6870   16.3880 C.2   196  THR196      0.2484
    100  O         21.8080    1.6690   16.9410 O.2   196  THR196     -0.2729
    101  CB        20.9340   -0.4610   14.7030 C.3   196  THR196      0.1807
    102  OG1       19.9240    0.5640   14.6250 O.3   196  THR196     -0.2208
    103  CG2       20.3350   -1.7890   14.2770 C.3   196  THR196      0.0379
    104  N         23.6070    0.6420   16.0000 N.am  197  PRO197     -0.2715
    105  CA        24.4000    1.8820   16.1020 C.3   197  PRO197      0.1521
    106  C         23.6230    3.0670   15.5240 C.2   197  PRO197      0.2440
    107  O         23.0470    2.9830   14.4300 O.2   197  PRO197     -0.2731
    108  CB        25.6420    1.5340   15.2510 C.3   197  PRO197      0.0310
    109  CG        25.7800    0.0320   15.4320 C.3   197  PRO197      0.0237
    110  CD        24.3300   -0.4840   15.4030 C.3   197  PRO197      0.0939
    111  N         23.6500    4.2120   16.1980 N.am  198  PRO198     -0.2727
    112  CA        24.5300    4.5990   17.3110 C.3   198  PRO198      0.1402
    113  C         24.1030    4.1710   18.7100 C.2   198  PRO198      0.2269
    114  O         24.7480    4.6250   19.6690 O.2   198  PRO198     -0.2865
    115  CB        24.5800    6.1290   17.1590 C.3   198  PRO198      0.0296
    116  CG        23.1890    6.5120   16.6170 C.3   198  PRO198      0.0237
    117  CD        22.9360    5.3890   15.6450 C.3   198  PRO198      0.0939
    118  N         21.8340    4.8790   20.7960 N.3   200  LEU200     -0.1301
    119  CA        21.5280    5.9950   21.6910 C.3   200  LEU200      0.1247
    120  C         20.5260    5.5810   22.7710 C.3   200  LEU200      0.2009
    121  O         19.5010    4.8780   22.4430 O.3   200  LEU200     -0.2188
    122  CB        21.0230    7.2090   20.9080 C.3   200  LEU200      0.0217
    123  CG        22.0370    7.8030   19.9490 C.3   200  LEU200      0.0015
    124  CD1       21.4170    8.8160   18.9730 C.3   200  LEU200      0.0000
    125  CD2       23.2400    8.4620   20.6720 C.3   200  LEU200      0.0000
    126  N         15.1740    5.6690   24.2430 N.3   203  VAL203     -0.1245
    127  CA        13.9220    4.9530   23.9050 C.3   203  VAL203      0.1561
    128  C         13.1480    4.5300   25.1650 C.2   203  VAL203      0.2260
    129  O         13.6830    3.8900   26.0550 O.2   203  VAL203     -0.2867
    130  CB        14.2430    3.6770   23.0690 C.3   203  VAL203      0.0252
    131  CG1       12.9280    3.0210   22.6840 C.3   203  VAL203      0.0019
    132  CG2       15.0170    4.0420   21.7810 C.3   203  VAL203      0.0019
    133  N         10.7500    1.7290   25.6700 N.3   205  TRP205     -0.1241
    134  CA        10.3130    0.5360   24.9760 C.3   205  TRP205      0.1605
    135  C          8.9390    0.1220   25.4510 C.2   205  TRP205      0.2264
    136  O          8.7010    0.0560   26.6770 O.2   205  TRP205     -0.2867
    137  CB        11.3150   -0.6330   25.2060 C.3   205  TRP205      0.0550
    138  CG        12.4110   -0.5130   24.2190 C.ar  205  TRP205      0.0003
    139  CD1       13.6870    0.0590   24.4050 C.ar  205  TRP205      0.0946
    140  CD2       12.3860   -0.9510   22.8410 C.ar  205  TRP205      0.0152
    141  NE1       14.3860    0.0250   23.1900 N.ar  205  TRP205     -0.2442
    142  CE2       13.6020   -0.5980   22.2410 C.ar  205  TRP205      0.0810
    143  CE3       11.4050   -1.6030   22.0700 C.ar  205  TRP205      0.0012
    144  CZ2       13.8700   -0.8480   20.8980 C.ar  205  TRP205      0.0191
    145  CZ3       11.6680   -1.8320   20.7080 C.ar  205  TRP205      0.0001
    146  CH2       12.9120   -1.4780   20.1500 C.ar  205  TRP205      0.0015
@<TRIPOS>BOND
     1     1     2    1
     2     2     3    1
     3     2     5    1
     4     3     4    2
     5     8     6   ar
     6     8    10   ar
     7     5     6    1
     8     6     7   ar
     9    10     9   ar
    10    15    12    1
    11    15    16    1
    12     7     9   ar
    13    24    21    1
    14    24    25    1
    15    21    20    1
    16    21    22    1
    17    12    13    1
    18    12    11    1
    19    16    17    1
    20    13    14    2
    21    18    17    2
    22    22    23    2
    23    17    19   am
    24    25    26   ar
    25    25    27   ar
    26    26    28   ar
    27    27    29   ar
    28    30    31    1
    29    32    31    1
    30    32    33    2
    31    31    34    1
    32    28    29   ar
    33    43    42    2
    34    64    66   ar
    35    64    62   ar
    36    61    62    1
    37    61    58    1
    38    34    35    1
    39    36    35   ar
    40    36    38   ar
    41    66    67   ar
    42    62    63   ar
    43    35    37   ar
    44   103   101    1
    45    38    39   ar
    46   107   106    2
    47   102   101    1
    48    37    39   ar
    49   101    98    1
    50    57    58    1
    51    67    65   ar
    52    53    52    2
    53    63    65   ar
    54    40    41    1
    55    56    54    1
    56    42    41    1
    57    54    55    1
    58    54    51    1
    59    58    59    1
    60    50    51    1
    61   108   109    1
    62   108   105    1
    63   110   109    1
    64   110   104    1
    65   106   105    1
    66   106   111   am
    67    59    60    2
    68    41    44    1
    69   117   111    1
    70   117   116    1
    71    44    45    1
    72    51    52    1
    73   104   105    1
    74   104    99   am
    75    98    99    1
    76    98    97    1
    77   111   112    1
    78    99   100    2
    79    45    46   ar
    80    45    47   ar
    81    46    48   ar
    82   116   115    1
    83    97    92   am
    84   115   112    1
    85   112   113    1
    86    48    49   ar
    87    73    72    1
    88    47    49   ar
    89    74    72    1
    90    95    94    1
    91    93    92    2
    92    88    87    1
    93    92    91    1
    94    72    69    1
    95    89    87    1
    96    80    79    1
    97   113   114    2
    98    87    86    1
    99    86    83    1
   100    94    91    1
   101    94    96    1
   102   124   123    1
   103    91    90    1
   104    90    84   am
   105    81    79    1
   106    68    69    1
   107    69    70    1
   108    79    76    1
   109    83    84    1
   110    83    82    1
   111    84    85    2
   112   123   125    1
   113   123   122    1
   114    76    77    1
   115    76    75    1
   116   146   145   ar
   117   146   144   ar
   118    77    78    2
   119    70    71    2
   120   145   143   ar
   121   118   119    1
   122   144   142   ar
   123   122   119    1
   124   119   120    1
   125   132   130    1
   126   143   140   ar
   127   142   140   ar
   128   142   141   ar
   129   121   120    1
   130   131   130    1
   131   140   138   ar
   132   130   127    1
   133   141   139   ar
   134   127   126    1
   135   127   128    1
   136   138   139   ar
   137   138   137    1
   138   134   137    1
   139   134   135    1
   140   134   133    1
   141   128   129    2
   142   135   136    2
