@<TRIPOS>MOLECULE
tmp/3rykB00.pdb
 110 104 0 0 0
SMALL
GASTEIGER

@<TRIPOS>ATOM
      1  N          1.5070   31.4620  -28.7720 N.3    47  GLN47      -0.1245
      2  CA         1.1530   30.2610  -29.4630 C.3    47  GLN47       0.1566
      3  C          1.7120   29.0230  -28.7720 C.2    47  GLN47       0.2260
      4  O          2.8460   29.0340  -28.3290 O.2    47  GLN47      -0.2867
      5  CB         1.7000   30.4330  -30.8940 C.3    47  GLN47       0.0367
      6  CG         1.5250   29.3100  -31.8510 C.3    47  GLN47       0.0905
      7  CD         2.1180   29.6260  -33.2220 C.2    47  GLN47       0.2608
      8  OE1        2.2380   30.7870  -33.6170 O.2    47  GLN47      -0.2717
      9  NE2        2.4730   28.5910  -33.9530 N.am   47  GLN47      -0.0878
     10  N          2.2610   24.9590  -29.3850 N.3    49  ASN49      -0.1240
     11  CA         2.3750   23.9450  -30.4200 C.3    49  ASN49       0.1653
     12  C          2.4550   22.5760  -29.7870 C.2    49  ASN49       0.2266
     13  O          3.0260   22.4340  -28.7060 O.2    49  ASN49      -0.2867
     14  CB         3.6470   24.1810  -31.2280 C.3    49  ASN49       0.1155
     15  CG         3.6550   25.5320  -31.9000 C.2    49  ASN49       0.2627
     16  OD1        2.6350   26.2150  -31.9280 O.2    49  ASN49      -0.2716
     17  ND2        4.8030   25.9300  -32.4390 N.am   49  ASN49      -0.0877
     18  N         13.0170   15.7770  -34.8900 N.3    60  ARG60      -0.1245
     19  CA        12.3280   16.9500  -35.4010 C.3    60  ARG60       0.1563
     20  C         13.3400   18.0770  -35.1700 C.2    60  ARG60       0.2260
     21  O         13.7950   18.2890  -34.0530 O.2    60  ARG60      -0.2867
     22  CB        10.9660   17.1670  -34.7660 C.3    60  ARG60       0.0307
     23  CG        10.0600   15.9730  -35.0120 C.3    60  ARG60       0.0489
     24  CD         8.6490   16.2800  -34.6480 C.3    60  ARG60       0.2205
     25  NE         7.7270   15.1640  -34.8650 N.pl3  60  ARG60      -0.0865
     26  CZ         7.1810   14.8210  -36.0380 C.cat  60  ARG60       0.5346
     27  NH1        7.5110   15.4500  -37.1710 N.pl3  60  ARG60       0.1354
     28  NH2        6.3350   13.7970  -36.0840 N.pl3  60  ARG60       0.1354
     29  N         15.7190   23.4360  -35.6600 N.3    63  HIS63      -0.1241
     30  CA        14.9640   24.5760  -36.1860 C.3    63  HIS63       0.1621
     31  C         15.0030   25.9270  -35.4690 C.2    63  HIS63       0.2264
     32  O         15.0250   25.9950  -34.2360 O.2    63  HIS63      -0.2867
     33  CB        13.4810   24.1630  -36.2260 C.3    63  HIS63       0.0745
     34  CG        12.5530   25.2800  -36.5930 C.ar   63  HIS63       0.0817
     35  ND1       12.0170   26.1430  -35.6580 N.ar   63  HIS63      -0.2268
     36  CD2       12.0770   25.6850  -37.7950 C.ar   63  HIS63       0.1154
     37  CE1       11.2510   27.0270  -36.2680 C.ar   63  HIS63       0.1986
     38  NE2       11.2690   26.7730  -37.5650 N.ar   63  HIS63      -0.2212
     39  N         12.0540   33.4490  -32.3370 N.3    71  GLN71      -0.1245
     40  CA        11.1280   32.9890  -31.3080 C.3    71  GLN71       0.1566
     41  C         11.8270   32.4100  -30.0950 C.2    71  GLN71       0.2260
     42  O         12.8710   31.7600  -30.2220 O.2    71  GLN71      -0.2867
     43  CB        10.2920   31.8220  -31.8480 C.3    71  GLN71       0.0367
     44  CG         9.3610   32.0770  -33.0260 C.3    71  GLN71       0.0905
     45  CD         8.7790   30.7690  -33.5680 C.2    71  GLN71       0.2608
     46  OE1        9.4960   29.7700  -33.6830 O.2    71  GLN71      -0.2717
     47  NE2        7.4970   30.7820  -33.9480 N.am   71  GLN71      -0.0878
     48  N          5.1640   22.9880  -26.7970 N.3   133  TYR133     -0.1241
     49  CA         6.0680   24.1140  -26.6650 C.3   133  TYR133      0.1605
     50  C          5.3310   25.4130  -26.9380 C.2   133  TYR133      0.2264
     51  O          4.4080   25.4610  -27.7530 O.2   133  TYR133     -0.2867
     52  CB         7.3540   23.9410  -27.4620 C.3   133  TYR133      0.0534
     53  CG         7.2140   23.8390  -28.9610 C.ar  133  TYR133     -0.0201
     54  CD1        7.6610   24.8680  -29.7830 C.ar  133  TYR133     -0.0009
     55  CD2        6.6580   22.7070  -29.5540 C.ar  133  TYR133     -0.0009
     56  CE1        7.5520   24.7760  -31.1690 C.ar  133  TYR133      0.0417
     57  CE2        6.5360   22.6070  -30.9340 C.ar  133  TYR133      0.0417
     58  CZ         6.9870   23.6430  -31.7310 C.ar  133  TYR133      0.1957
     59  OH         6.8740   23.5570  -33.0970 O.3   133  TYR133     -0.2866
     60  N          4.3330   31.8230  -36.0150 N.3   139  TYR139     -0.1241
     61  CA         4.9860   31.0910  -37.0720 C.3   139  TYR139      0.1605
     62  C          5.0630   31.9840  -38.3010 C.2   139  TYR139      0.2264
     63  O          4.0710   32.6150  -38.6740 O.2   139  TYR139     -0.2867
     64  CB         4.1860   29.8320  -37.4130 C.3   139  TYR139      0.0534
     65  CG         4.6980   29.0960  -38.6290 C.ar  139  TYR139     -0.0201
     66  CD1        5.8270   28.2920  -38.5520 C.ar  139  TYR139     -0.0009
     67  CD2        4.0280   29.1790  -39.8510 C.ar  139  TYR139     -0.0009
     68  CE1        6.2970   27.6100  -39.6580 C.ar  139  TYR139      0.0417
     69  CE2        4.4890   28.4970  -40.9690 C.ar  139  TYR139      0.0417
     70  CZ         5.6270   27.7140  -40.8630 C.ar  139  TYR139      0.1957
     71  OH         6.1010   27.0270  -41.9530 O.3   139  TYR139     -0.2866
     72  N         11.4880   30.5940  -41.8550 N.3   144  ASP144     -0.1239
     73  CA        11.8240   29.2300  -41.4180 C.3   144  ASP144      0.1674
     74  C         13.2220   28.7590  -41.8650 C.2   144  ASP144      0.2266
     75  O         13.5440   28.7710  -43.0540 O.2   144  ASP144     -0.2867
     76  CB        10.7450   28.2670  -41.9480 C.3   144  ASP144      0.1410
     77  CG        10.9870   26.8070  -41.5710 C.2   144  ASP144      0.3668
     78  OD1       12.0290   26.4700  -40.9610 O.co2 144  ASP144     -0.2456
     79  OD2       10.1080   25.9780  -41.8990 O.co2 144  ASP144     -0.2456
     80  N         11.3210   14.2630  -41.6120 N.3   166  SER166     -0.1202
     81  CA        10.4050   14.7210  -42.6270 C.3   166  SER166      0.2020
     82  C         11.3230   14.9320  -43.8210 C.2   166  SER166      0.2619
     83  O         12.5500   14.9490  -43.6660 O.2   166  SER166     -0.2717
     84  CB         9.7880   16.0580  -42.2390 C.3   166  SER166      0.2103
     85  OG        10.7930   17.0500  -42.1040 O.3   166  SER166     -0.2182
     86  N         10.7650   15.0650  -45.0170 N.am  167  ASP167     -0.1959
     87  CA        11.6290   15.3040  -46.1730 C.3   167  ASP167      0.1840
     88  C         12.3790   16.6240  -45.9770 C.2   167  ASP167      0.2622
     89  O         13.5850   16.6860  -46.2340 O.2   167  ASP167     -0.2715
     90  CB        10.8360   15.2980  -47.4890 C.3   167  ASP167      0.1450
     91  CG        10.3070   13.9150  -47.8570 C.2   167  ASP167      0.3671
     92  OD1       10.8870   12.8940  -47.4230 O.co2 167  ASP167     -0.2456
     93  OD2        9.3310   13.8420  -48.6270 O.co2 167  ASP167     -0.2456
     94  N         11.6860   17.6700  -45.5200 N.am  168  LYS168     -0.1963
     95  CA        12.3450   18.9650  -45.3130 C.3   168  LYS168      0.1728
     96  C         13.4470   18.9810  -44.2480 C.2   168  LYS168      0.2616
     97  O         14.3960   19.7420  -44.3870 O.2   168  LYS168     -0.2715
     98  CB        11.3540   20.1180  -45.1580 C.3   168  LYS168      0.0311
     99  CG        10.5900   20.3810  -46.4550 C.3   168  LYS168      0.0038
    100  CD         9.7580   21.6480  -46.4070 C.3   168  LYS168      0.0206
    101  CE         9.0950   21.9020  -47.7560 C.3   168  LYS168      0.1093
    102  NZ         8.3450   23.1870  -47.8030 N.3   168  LYS168     -0.1314
    103  N         13.3510   18.1630  -43.2010 N.am  169  ASP169     -0.1971
    104  CA        14.4410   18.1580  -42.2120 C.3   169  ASP169      0.1709
    105  C         15.7040   17.4910  -42.7610 C.2   169  ASP169      0.2293
    106  O         16.8090   17.8300  -42.3270 O.2   169  ASP169     -0.2864
    107  CB        14.0540   17.6040  -40.8600 C.3   169  ASP169      0.1436
    108  CG        13.1370   18.5330  -40.0840 C.2   169  ASP169      0.3671
    109  OD1       12.4990   19.4770  -40.6300 O.co2 169  ASP169     -0.2456
    110  OD2       13.0680   18.2820  -38.8830 O.co2 169  ASP169     -0.2456
@<TRIPOS>BOND
     1    93    91   ar
     2    91    90    1
     3    91    92   ar
     4   102   101    1
     5   101   100    1
     6    90    87    1
     7    99   100    1
     8    99    98    1
     9    89    88    2
    10    87    88    1
    11    87    86    1
    12    88    94   am
    13    94    95    1
    14    95    98    1
    15    95    96    1
    16    86    82   am
    17    97    96    2
    18    96   103   am
    19    82    83    2
    20    82    81    1
    21   103   104    1
    22    75    74    2
    23   105   106    2
    24   105   104    1
    25    81    84    1
    26    81    80    1
    27    84    85    1
    28   104   107    1
    29    71    70    1
    30    76    77    1
    31    76    73    1
    32    79    77   ar
    33    74    73    1
    34    72    73    1
    35    77    78   ar
    36    69    70   ar
    37    69    67   ar
    38    70    68   ar
    39   107   108    1
    40   109   108   ar
    41   108   110   ar
    42    67    65   ar
    43    68    66   ar
    44    63    62    2
    45    65    66   ar
    46    65    64    1
    47    62    61    1
    48    36    38   ar
    49    36    34   ar
    50    38    37   ar
    51    64    61    1
    52    27    26    1
    53    61    60    1
    54    34    33    1
    55    34    35   ar
    56    37    35   ar
    57    33    30    1
    58    30    29    1
    59    30    31    1
    60    28    26    1
    61    26    25    2
    62    31    32    2
    63    19    20    1
    64    19    18    1
    65    19    22    1
    66    20    21    2
    67    23    22    1
    68    23    24    1
    69    25    24    1
    70     9     7   am
    71    47    45   am
    72    46    45    2
    73     8     7    2
    74    45    44    1
    75     7     6    1
    76    59    58    1
    77    44    43    1
    78    17    15   am
    79    39    40    1
    80    16    15    2
    81    15    14    1
    82     6     5    1
    83    43    40    1
    84    58    56   ar
    85    58    57   ar
    86    40    41    1
    87    14    11    1
    88    56    54   ar
    89    57    55   ar
    90     5     2    1
    91    11    12    1
    92    11    10    1
    93    42    41    2
    94    12    13    2
    95    54    53   ar
    96    55    53   ar
    97     2     3    1
    98     2     1    1
    99    53    52    1
   100     3     4    2
   101    51    50    2
   102    52    49    1
   103    50    49    1
   104    48    49    1
