@<TRIPOS>MOLECULE
tmp/3rysA00.pdb
 151 144 0 0 0
SMALL
GASTEIGER

@<TRIPOS>ATOM
      1  N          3.9500   26.3380  -35.1700 N.3    14  HIS14      -0.1241
      2  CA         3.7590   26.4110  -33.7300 C.3    14  HIS14       0.1621
      3  C          4.9880   25.8780  -33.0070 C.2    14  HIS14       0.2264
      4  O          5.3940   24.7370  -33.2160 O.2    14  HIS14      -0.2867
      5  CB         2.5300   25.6070  -33.3330 C.3    14  HIS14       0.0745
      6  CG         1.3020   25.9800  -34.0960 C.ar   14  HIS14       0.0817
      7  ND1        0.3430   26.8320  -33.5930 N.ar   14  HIS14      -0.2268
      8  CD2        0.8770   25.6220  -35.3300 C.ar   14  HIS14       0.1154
      9  CE1       -0.6220   26.9790  -34.4820 C.ar   14  HIS14       0.1986
     10  NE2       -0.3210   26.2580  -35.5450 N.ar   14  HIS14      -0.2212
     11  N         -8.4510   17.0530  -35.8300 N.3    52  LEU52      -0.1245
     12  CA        -7.6860   18.1060  -35.1710 C.3    52  LEU52       0.1561
     13  C         -7.6300   17.8880  -33.6640 C.2    52  LEU52       0.2260
     14  O         -6.5790   18.0460  -33.0420 O.2    52  LEU52      -0.2867
     15  CB        -8.2730   19.4870  -35.4680 C.3    52  LEU52       0.0270
     16  CG        -7.5500   20.6580  -34.7930 C.3    52  LEU52       0.0019
     17  CD1       -6.0880   20.7070  -35.2150 C.3    52  LEU52       0.0001
     18  CD2       -8.2390   21.9820  -35.0950 C.3    52  LEU52       0.0001
     19  N         -5.2760   15.3820  -32.0330 N.3    55  PHE55      -0.1227
     20  CA        -3.9270   15.9260  -32.0760 C.3    55  PHE55       0.1736
     21  C         -3.7010   16.9360  -30.9610 C.2    55  PHE55       0.2595
     22  O         -2.7440   16.8220  -30.2000 O.2    55  PHE55      -0.2718
     23  CB        -3.6510   16.5800  -33.4260 C.3    55  PHE55       0.0547
     24  CG        -2.6230   17.6710  -33.3660 C.ar   55  PHE55      -0.0202
     25  CD1       -1.2740   17.3680  -33.2160 C.ar   55  PHE55      -0.0042
     26  CD2       -3.0020   19.0020  -33.4550 C.ar   55  PHE55      -0.0042
     27  CE1       -0.3190   18.3740  -33.1590 C.ar   55  PHE55      -0.0003
     28  CE2       -2.0560   20.0110  -33.3960 C.ar   55  PHE55      -0.0003
     29  CZ        -0.7100   19.6970  -33.2470 C.ar   55  PHE55      -0.0000
     30  N         -4.5820   17.9290  -30.8780 N.am   56  LEU56      -0.1980
     31  CA        -4.4920   18.9480  -29.8400 C.3    56  LEU56       0.1596
     32  C         -4.3080   18.3090  -28.4620 C.2    56  LEU56       0.2287
     33  O         -3.4970   18.7720  -27.6540 O.2    56  LEU56      -0.2864
     34  CB        -5.7270   19.8560  -29.8550 C.3    56  LEU56       0.0297
     35  CG        -5.8640   20.8510  -31.0150 C.3    56  LEU56       0.0022
     36  CD1       -7.1740   21.6250  -30.9200 C.3    56  LEU56       0.0001
     37  CD2       -4.6890   21.8090  -31.0470 C.3    56  LEU56       0.0001
     38  N         -0.7540   17.3170  -28.2520 N.3    59  TYR59      -0.1227
     39  CA        -0.0770   18.6060  -28.3660 C.3    59  TYR59       0.1736
     40  C         -0.0570   19.3880  -27.0510 C.2    59  TYR59       0.2595
     41  O          0.9800   19.9130  -26.6460 O.2    59  TYR59      -0.2718
     42  CB        -0.7780   19.4060  -29.4630 C.3    59  TYR59       0.0548
     43  CG        -0.3550   20.8430  -29.6510 C.ar   59  TYR59      -0.0200
     44  CD1       -1.1540   21.8800  -29.1890 C.ar   59  TYR59      -0.0009
     45  CD2        0.8070   21.1670  -30.3410 C.ar   59  TYR59      -0.0009
     46  CE1       -0.7980   23.2000  -29.3830 C.ar   59  TYR59       0.0417
     47  CE2        1.1730   22.4830  -30.5390 C.ar   59  TYR59       0.0417
     48  CZ         0.3670   23.4990  -30.0560 C.ar   59  TYR59       0.1957
     49  OH         0.7180   24.8180  -30.2460 O.3    59  TYR59      -0.2866
     50  N         -1.2040   19.4540  -26.3850 N.am   60  TYR60      -0.1976
     51  CA        -1.3070   20.1340  -25.0960 C.3    60  TYR60       0.1639
     52  C         -0.7010   19.3110  -23.9620 C.2    60  TYR60       0.2290
     53  O         -0.0490   19.8560  -23.0680 O.2    60  TYR60      -0.2864
     54  CB        -2.7660   20.4780  -24.7810 C.3    60  TYR60       0.0560
     55  CG        -3.3290   21.5300  -25.6970 C.ar   60  TYR60      -0.0198
     56  CD1       -2.6330   22.7060  -25.9330 C.ar   60  TYR60      -0.0009
     57  CD2       -4.5470   21.3490  -26.3330 C.ar   60  TYR60      -0.0009
     58  CE1       -3.1330   23.6750  -26.7730 C.ar   60  TYR60       0.0417
     59  CE2       -5.0590   22.3150  -27.1800 C.ar   60  TYR60       0.0417
     60  CZ        -4.3450   23.4760  -27.3960 C.ar   60  TYR60       0.1957
     61  OH        -4.8380   24.4490  -28.2340 O.3    60  TYR60      -0.2866
     62  N          1.4010   29.5740  -28.0140 N.3    96  ASP96      -0.1239
     63  CA         0.1220   29.6260  -27.3160 C.3    96  ASP96       0.1674
     64  C          0.3290   30.0290  -25.8620 C.2    96  ASP96       0.2266
     65  O          0.4250   29.1700  -24.9820 O.2    96  ASP96      -0.2867
     66  CB        -0.5960   28.2720  -27.3760 C.3    96  ASP96       0.1410
     67  CG        -0.8800   27.8110  -28.7990 C.2    96  ASP96       0.3668
     68  OD1       -0.9360   28.6660  -29.7110 O.co2  96  ASP96      -0.2456
     69  OD2       -1.0560   26.5860  -29.0000 O.co2  96  ASP96      -0.2456
     70  N         -5.7350   29.9380  -33.0210 N.3   164  ASP164     -0.1225
     71  CA        -5.7160   28.5120  -33.3230 C.3   164  ASP164      0.1805
     72  C         -6.5260   27.6800  -32.3250 C.2   164  ASP164      0.2598
     73  O         -7.4400   28.1950  -31.6800 O.2   164  ASP164     -0.2718
     74  CB        -4.2740   27.9930  -33.4440 C.3   164  ASP164      0.1424
     75  CG        -3.4700   28.1770  -32.1690 C.2   164  ASP164      0.3668
     76  OD1       -4.0410   28.6220  -31.1530 O.co2 164  ASP164     -0.2456
     77  OD2       -2.2590   27.8680  -32.1810 O.co2 164  ASP164     -0.2456
     78  N         -6.1750   26.3990  -32.2110 N.am  165  SER165     -0.1952
     79  CA        -6.9330   25.4250  -31.4250 C.3   165  SER165      0.1924
     80  C         -8.2220   24.9910  -32.1460 C.2   165  SER165      0.2314
     81  O         -8.4130   25.3050  -33.3250 O.2   165  SER165     -0.2863
     82  CB        -7.2300   25.9530  -30.0210 C.3   165  SER165      0.2116
     83  OG        -7.5830   24.8880  -29.1580 O.3   165  SER165     -0.2180
     84  N        -11.1870   24.4790  -34.1550 N.3   167  GLU167     -0.1245
     85  CA       -11.8600   25.4470  -35.0200 C.3   167  GLU167      0.1567
     86  C        -13.3850   25.3230  -35.0490 C.2   167  GLU167      0.2260
     87  O        -14.1000   26.2950  -34.8030 O.2   167  GLU167     -0.2867
     88  CB       -11.3130   25.3800  -36.4470 C.3   167  GLU167      0.0388
     89  CG       -11.9490   26.4170  -37.3670 C.3   167  GLU167      0.1160
     90  CD       -11.3490   26.4270  -38.7610 C.2   167  GLU167      0.3649
     91  OE1      -10.5960   25.4890  -39.1000 O.co2 167  GLU167     -0.2457
     92  OE2      -11.6360   27.3750  -39.5220 O.co2 167  GLU167     -0.2457
     93  N         -6.1490   31.0160  -38.0050 N.3   192  HIS192     -0.1241
     94  CA        -6.4770   29.7230  -38.5900 C.3   192  HIS192      0.1621
     95  C         -7.8980   29.7480  -39.1260 C.2   192  HIS192      0.2264
     96  O         -8.8290   30.1380  -38.4200 O.2   192  HIS192     -0.2867
     97  CB        -6.3350   28.6130  -37.5520 C.3   192  HIS192      0.0745
     98  CG        -4.9200   28.2000  -37.3050 C.ar  192  HIS192      0.0817
     99  ND1       -3.9310   29.0980  -36.9680 N.ar  192  HIS192     -0.2268
    100  CD2       -4.3280   26.9830  -37.3450 C.ar  192  HIS192      0.1154
    101  CE1       -2.7890   28.4530  -36.8110 C.ar  192  HIS192      0.1986
    102  NE2       -3.0030   27.1680  -37.0310 N.ar  192  HIS192     -0.2212
    103  N         -9.4450   24.9890  -42.0260 N.3   195  GLU195     -0.1245
    104  CA        -8.7760   23.7180  -41.8000 C.3   195  GLU195      0.1567
    105  C         -9.8390   22.6370  -41.6750 C.2   195  GLU195      0.2260
    106  O         -9.9610   21.7650  -42.5370 O.2   195  GLU195     -0.2867
    107  CB        -7.9280   23.7780  -40.5340 C.3   195  GLU195      0.0388
    108  CG        -7.0170   22.5890  -40.3440 C.3   195  GLU195      0.1160
    109  CD        -6.1850   22.7100  -39.0940 C.2   195  GLU195      0.3649
    110  OE1       -6.3410   23.7230  -38.3840 O.co2 195  GLU195     -0.2457
    111  OE2       -5.3740   21.8040  -38.8190 O.co2 195  GLU195     -0.2457
    112  N         -3.8420   27.7570  -43.1160 N.3   216  HIS216     -0.1241
    113  CA        -4.4950   26.6110  -43.7500 C.3   216  HIS216      0.1621
    114  C         -5.3390   27.0620  -44.9520 C.2   216  HIS216      0.2264
    115  O         -4.8310   27.1680  -46.0680 O.2   216  HIS216     -0.2867
    116  CB        -5.3270   25.7980  -42.7490 C.3   216  HIS216      0.0745
    117  CG        -4.5030   25.0380  -41.7560 C.ar  216  HIS216      0.0817
    118  ND1       -3.6270   24.0390  -42.1240 N.ar  216  HIS216     -0.2268
    119  CD2       -4.4260   25.1240  -40.4050 C.ar  216  HIS216      0.1154
    120  CE1       -3.0380   23.5510  -41.0460 C.ar  216  HIS216      0.1986
    121  NE2       -3.5090   24.1870  -39.9900 N.ar  216  HIS216     -0.2212
    122  N          0.4750   18.2860  -42.4630 N.3   243  SER243     -0.1217
    123  CA        -0.4530   18.5090  -41.3640 C.3   243  SER243      0.1889
    124  C         -1.8660   18.0440  -41.7480 C.2   243  SER243      0.2288
    125  O         -2.5000   17.2700  -41.0190 O.2   243  SER243     -0.2866
    126  CB        -0.4500   19.9840  -40.9560 C.3   243  SER243      0.2089
    127  OG        -1.3930   20.2260  -39.9320 O.3   243  SER243     -0.2183
    128  N         -3.8770   14.8250  -40.0500 N.3   247  LEU247     -0.1245
    129  CA        -5.0550   15.1730  -39.2580 C.3   247  LEU247      0.1561
    130  C         -6.3240   14.7180  -39.9610 C.2   247  LEU247      0.2260
    131  O         -7.4330   14.9470  -39.4760 O.2   247  LEU247     -0.2867
    132  CB        -5.1170   16.6790  -38.9890 C.3   247  LEU247      0.0270
    133  CG        -4.0720   17.2560  -38.0360 C.3   247  LEU247      0.0019
    134  CD1       -4.4560   18.6680  -37.6460 C.3   247  LEU247      0.0001
    135  CD2       -3.9310   16.3780  -36.8020 C.3   247  LEU247      0.0001
    136  N          3.8530   23.5280  -39.9430 N.3   273  ASP273     -0.1225
    137  CA         2.8110   23.6740  -38.9240 C.3   273  ASP273      0.1805
    138  C          3.2310   23.1610  -37.5420 C.2   273  ASP273      0.2597
    139  O          3.5990   23.9470  -36.6700 O.2   273  ASP273     -0.2718
    140  CB         1.5120   22.9960  -39.3870 C.3   273  ASP273      0.1424
    141  CG         0.3230   23.3520  -38.5150 C.2   273  ASP273      0.3668
    142  OD1       -0.6900   22.6250  -38.5600 O.co2 273  ASP273     -0.2456
    143  OD2        0.4020   24.3590  -37.7830 O.co2 273  ASP273     -0.2456
    144  N          3.1580   21.8470  -37.3510 N.am  274  ASP274     -0.1974
    145  CA         3.5990   21.2030  -36.1150 C.3   274  ASP274      0.1709
    146  C          4.5610   20.0570  -36.4700 C.2   274  ASP274      0.2293
    147  O          4.1720   18.8870  -36.4910 O.2   274  ASP274     -0.2864
    148  CB         2.3920   20.6810  -35.3260 C.3   274  ASP274      0.1436
    149  CG         1.3610   21.7730  -35.0250 C.2   274  ASP274      0.3671
    150  OD1        1.5500   22.4930  -34.0240 O.co2 274  ASP274     -0.2456
    151  OD2        0.3530   21.9030  -35.7620 O.co2 274  ASP274     -0.2456
@<TRIPOS>BOND
     1   115   114    2
     2   114   113    1
     3   113   112    1
     4   113   116    1
     5   116   117    1
     6   106   105    2
     7   122   123    1
     8   118   117   ar
     9   118   120   ar
    10   103   104    1
    11   104   105    1
    12   104   107    1
    13   117   119   ar
    14   124   123    1
    15   124   125    2
    16   123   126    1
    17   120   121   ar
    18   126   127    1
    19   107   108    1
    20   119   121   ar
    21   108   109    1
    22   128   129    1
    23   130   131    2
    24   130   129    1
    25   136   137    1
    26    92    90   ar
    27   140   137    1
    28   140   141    1
    29   129   132    1
    30    95    94    1
    31    95    96    2
    32    91    90   ar
    33   109   111   ar
    34   109   110   ar
    35   132   133    1
    36   137   138    1
    37    90    89    1
    38    94    93    1
    39    94    97    1
    40   142   141   ar
    41   141   143   ar
    42   133   134    1
    43   133   135    1
    44    97    98    1
    45   138   144   am
    46   138   139    2
    47    89    88    1
    48   144   145    1
    49   100    98   ar
    50   100   102   ar
    51    98    99   ar
    52   102   101   ar
    53    99   101   ar
    54   147   146    2
    55   146   145    1
    56    88    85    1
    57   145   148    1
    58    11    12    1
    59   151   149   ar
    60    10     8   ar
    61    10     9   ar
    62    15    12    1
    63    15    16    1
    64     8     6   ar
    65   148   149    1
    66    17    16    1
    67    12    13    1
    68     1     2    1
    69    18    16    1
    70    86    85    1
    71    86    87    2
    72   149   150   ar
    73    85    84    1
    74     9     7   ar
    75     6     7   ar
    76     6     5    1
    77     2     5    1
    78     2     3    1
    79    13    14    2
    80    26    28   ar
    81    26    24   ar
    82    74    71    1
    83    74    75    1
    84    23    24    1
    85    23    20    1
    86    28    29   ar
    87    24    25   ar
    88    81    80    2
    89    71    70    1
    90    71    72    1
    91    29    27   ar
    92     4     3    2
    93    25    27   ar
    94    72    78   am
    95    72    73    2
    96    78    79    1
    97    77    75   ar
    98    75    76   ar
    99    80    79    1
   100    20    19    1
   101    20    21    1
   102    79    82    1
   103    37    35    1
   104    35    36    1
   105    35    34    1
   106    21    30   am
   107    21    22    2
   108    30    31    1
   109    47    45   ar
   110    47    48   ar
   111    45    43   ar
   112    49    48    1
   113    48    46   ar
   114    82    83    1
   115    34    31    1
   116    31    32    1
   117    68    67   ar
   118    43    42    1
   119    43    44   ar
   120    42    39    1
   121    46    44   ar
   122    69    67   ar
   123    67    66    1
   124    32    33    2
   125    39    38    1
   126    39    40    1
   127    61    60    1
   128    62    63    1
   129    60    59   ar
   130    60    58   ar
   131    66    63    1
   132    63    64    1
   133    59    57   ar
   134    40    41    2
   135    40    50   am
   136    58    56   ar
   137    50    51    1
   138    57    55   ar
   139    56    55   ar
   140    64    65    2
   141    55    54    1
   142    51    54    1
   143    51    52    1
   144    52    53    2
