@<TRIPOS>MOLECULE
tmp/3rywA00.pdb
 237 221 0 0 0
SMALL
GASTEIGER

@<TRIPOS>ATOM
      1  N         31.5950   -4.9610   13.5790 N.3    51  ARG51      -0.1245
      2  CA        32.7280   -5.4700   14.3620 C.3    51  ARG51       0.1563
      3  C         32.4010   -6.8180   14.9620 C.2    51  ARG51       0.2260
      4  O         33.2610   -7.6790   15.0820 O.2    51  ARG51      -0.2867
      5  CB        33.0870   -4.5000   15.4760 C.3    51  ARG51       0.0307
      6  CG        33.3080   -3.0670   15.0210 C.3    51  ARG51       0.0489
      7  CD        33.6030   -2.1550   16.1980 C.3    51  ARG51       0.2205
      8  NE        34.0440   -0.8510   15.7310 N.pl3  51  ARG51      -0.0865
      9  CZ        33.2450    0.0760   15.2150 C.cat  51  ARG51       0.5346
     10  NH1       31.9430   -0.1290   15.0830 N.pl3  51  ARG51       0.1354
     11  NH2       33.7600    1.2350   14.8190 N.pl3  51  ARG51       0.1354
     12  N         32.1190    3.0210   24.2800 N.3    88  PHE88      -0.1227
     13  CA        32.8310    4.1150   23.6170 C.3    88  PHE88       0.1736
     14  C         31.9290    5.1990   23.0420 C.2    88  PHE88       0.2595
     15  O         32.2550    6.3720   23.0910 O.2    88  PHE88      -0.2718
     16  CB        33.6970    3.6000   22.4800 C.3    88  PHE88       0.0547
     17  CG        34.9410    2.8640   22.9160 C.ar   88  PHE88      -0.0202
     18  CD1       35.4050    2.8990   24.2290 C.ar   88  PHE88      -0.0042
     19  CD2       35.6810    2.1710   21.9730 C.ar   88  PHE88      -0.0042
     20  CE1       36.5570    2.2310   24.5950 C.ar   88  PHE88      -0.0003
     21  CE2       36.8290    1.5010   22.3390 C.ar   88  PHE88      -0.0003
     22  CZ        37.2640    1.5210   23.6530 C.ar   88  PHE88      -0.0000
     23  N         30.7990    4.8250   22.4780 N.am   89  LEU89      -0.1980
     24  CA        29.9450    5.8190   21.8290 C.3    89  LEU89       0.1596
     25  C         29.2340    6.6820   22.8730 C.2    89  LEU89       0.2287
     26  O         29.1020    7.9000   22.6700 O.2    89  LEU89      -0.2864
     27  CB        28.9450    5.1540   20.8970 C.3    89  LEU89       0.0297
     28  CG        29.3600    5.0780   19.4270 C.3    89  LEU89       0.0022
     29  CD1       30.8690    5.0500   19.2100 C.3    89  LEU89       0.0001
     30  CD2       28.6880    3.8530   18.7990 C.3    89  LEU89       0.0001
     31  N         30.5430    7.4470   25.7400 N.3    91  ALA91      -0.1231
     32  CA        31.6020    8.3570   26.1570 C.3    91  ALA91       0.1694
     33  C         31.8840    9.4370   25.1030 C.2    91  ALA91       0.2592
     34  O         31.9490   10.6240   25.4380 O.2    91  ALA91      -0.2718
     35  CB        32.8500    7.5870   26.5120 C.3    91  ALA91       0.0304
     36  N         32.0220    9.0300   23.8370 N.am   92  ASP92      -0.1960
     37  CA        32.3060    9.9680   22.7290 C.3    92  ASP92       0.1840
     38  C         31.2490   11.0420   22.6380 C.2    92  ASP92       0.2622
     39  O         31.5660   12.2090   22.4410 O.2    92  ASP92      -0.2715
     40  CB        32.4070    9.2590   21.3750 C.3    92  ASP92       0.1450
     41  CG        32.7490   10.2240   20.2160 C.2    92  ASP92       0.3671
     42  OD1       33.9400   10.5120   19.9960 O.co2  92  ASP92      -0.2456
     43  OD2       31.8230   10.6570   19.4820 O.co2  92  ASP92      -0.2456
     44  N         29.9900   10.6590   22.8150 N.am   93  ASP93      -0.1971
     45  CA        28.9220   11.6530   22.7590 C.3    93  ASP93       0.1709
     46  C         28.9990   12.6710   23.8950 C.2    93  ASP93       0.2293
     47  O         28.6180   13.8150   23.6990 O.2    93  ASP93      -0.2864
     48  CB        27.5570   10.9970   22.7060 C.3    93  ASP93       0.1436
     49  CG        27.2160   10.4720   21.3200 C.2    93  ASP93       0.3671
     50  OD1       27.5090   11.1590   20.3120 O.co2  93  ASP93      -0.2456
     51  OD2       26.6090    9.3740   21.2220 O.co2  93  ASP93      -0.2456
     52  N         31.8920   13.6990   25.2440 N.3    95  MET95      -0.1230
     53  CA        33.0770   14.4750   24.8760 C.3    95  MET95       0.1702
     54  C         32.8480   15.3760   23.6570 C.2    95  MET95       0.2592
     55  O         33.2480   16.5440   23.6810 O.2    95  MET95      -0.2718
     56  CB        34.2470   13.5360   24.6080 C.3    95  MET95       0.0401
     57  CG        34.6200   12.6980   25.8220 C.3    95  MET95       0.0596
     58  SD        35.9730   11.5370   25.6470 S.3    95  MET95      -0.1393
     59  CE        37.0920   12.5350   24.6630 C.3    95  MET95       0.0692
     60  N         32.1670   14.8660   22.6240 N.am   96  ASP96      -0.1974
     61  CA        31.8820   15.6490   21.4160 C.3    96  ASP96       0.1709
     62  C         30.5700   16.4590   21.5190 C.2    96  ASP96       0.2293
     63  O         30.1370   17.0480   20.5280 O.2    96  ASP96      -0.2864
     64  CB        31.8170   14.7530   20.1660 C.3    96  ASP96       0.1436
     65  CG        33.1160   14.0000   19.8900 C.2    96  ASP96       0.3671
     66  OD1       34.1560   14.3000   20.5140 O.co2  96  ASP96      -0.2456
     67  OD2       33.1050   13.0790   19.0290 O.co2  96  ASP96      -0.2456
     68  N         22.2590    9.8640   18.2300 N.3   101  ARG101     -0.1245
     69  CA        23.0600    8.6960   17.9310 C.3   101  ARG101      0.1563
     70  C         22.1890    7.4810   17.6330 C.2   101  ARG101      0.2260
     71  O         21.2610    7.1750   18.3830 O.2   101  ARG101     -0.2867
     72  CB        23.9990    8.4000   19.0790 C.3   101  ARG101      0.0307
     73  CG        24.6340    7.0300   18.9740 C.3   101  ARG101      0.0489
     74  CD        26.1150    7.1220   19.2320 C.3   101  ARG101      0.2205
     75  NE        26.8710    7.2690   17.9970 N.pl3 101  ARG101     -0.0865
     76  CZ        27.9070    8.0780   17.8050 C.cat 101  ARG101      0.5346
     77  NH1       28.3560    8.8980   18.7400 N.pl3 101  ARG101      0.1354
     78  NH2       28.5000    8.0580   16.6380 N.pl3 101  ARG101      0.1354
     79  N         28.4920    8.7320   32.8030 N.3   119  VAL119     -0.1245
     80  CA        29.8910    8.3990   33.0760 C.3   119  VAL119      0.1561
     81  C         29.9570    7.0930   33.8390 C.2   119  VAL119      0.2260
     82  O         30.6950    6.1950   33.4740 O.2   119  VAL119     -0.2867
     83  CB        30.5810    9.5010   33.8950 C.3   119  VAL119      0.0252
     84  CG1       31.7970    8.9300   34.6000 C.3   119  VAL119      0.0019
     85  CG2       30.9510   10.6890   33.0070 C.3   119  VAL119      0.0019
     86  N         29.1610    4.1410   31.5580 N.3   122  VAL122     -0.1231
     87  CA        30.2450    3.7610   30.6600 C.3   122  VAL122      0.1692
     88  C         31.1490    2.7290   31.3340 C.2   122  VAL122      0.2591
     89  O         31.3950    1.6640   30.7830 O.2   122  VAL122     -0.2718
     90  CB        31.1080    4.9510   30.1950 C.3   122  VAL122      0.0266
     91  CG1       32.3460    4.4030   29.5080 C.3   122  VAL122      0.0020
     92  CG2       30.3380    5.8730   29.2580 C.3   122  VAL122      0.0020
     93  N         31.6250    3.0360   32.5300 N.am  123  LEU123     -0.1980
     94  CA        32.4640    2.1080   33.2740 C.3   123  LEU123      0.1596
     95  C         31.7730    0.7680   33.5940 C.2   123  LEU123      0.2287
     96  O         32.4360   -0.2750   33.7240 O.2   123  LEU123     -0.2864
     97  CB        32.9280    2.7390   34.5770 C.3   123  LEU123      0.0297
     98  CG        34.4340    2.7110   34.7970 C.3   123  LEU123      0.0022
     99  CD1       35.0910    1.3390   34.6460 C.3   123  LEU123      0.0001
    100  CD2       35.0160    3.7060   33.8000 C.3   123  LEU123      0.0001
    101  N         41.8410   -1.1220   24.1690 N.3   154  THR154     -0.1218
    102  CA        41.1920   -0.0230   24.8550 C.3   154  THR154      0.1862
    103  C         42.1900    1.0830   25.1480 C.2   154  THR154      0.2287
    104  O         41.8730    2.2570   24.9830 O.2   154  THR154     -0.2866
    105  CB        40.5070   -0.4760   26.1630 C.3   154  THR154      0.1770
    106  OG1       39.5060   -1.4610   25.8770 O.3   154  THR154     -0.2211
    107  CG2       39.8470    0.6980   26.8330 C.3   154  THR154      0.0375
    108  N         42.8390    3.0880   22.1790 N.3   157  THR157     -0.1203
    109  CA        41.6920    3.9310   21.8650 C.3   157  THR157      0.1994
    110  C         41.6590    5.1610   22.7820 C.2   157  THR157      0.2617
    111  O         41.3510    6.2720   22.3180 O.2   157  THR157     -0.2717
    112  CB        40.3640    3.1650   21.9420 C.3   157  THR157      0.1784
    113  OG1       40.4730    1.9500   21.2050 O.3   157  THR157     -0.2211
    114  CG2       39.2920    3.9860   21.3340 C.3   157  THR157      0.0376
    115  N         42.0030    4.9810   24.0560 N.am  158  ILE158     -0.1979
    116  CA        42.0060    6.1010   25.0000 C.3   158  ILE158      0.1595
    117  C         43.0120    7.1820   24.6010 C.2   158  ILE158      0.2287
    118  O         42.6790    8.3710   24.6060 O.2   158  ILE158     -0.2864
    119  CB        42.2460    5.6500   26.4600 C.3   158  ILE158      0.0276
    120  CG1       41.0690    4.8000   26.9550 C.3   158  ILE158      0.0022
    121  CG2       42.4020    6.8660   27.3510 C.3   158  ILE158      0.0022
    122  CD1       41.4420    3.9190   28.1090 C.3   158  ILE158      0.0001
    123  N         41.5640    9.0570   21.5380 N.3   161  GLN161     -0.1245
    124  CA        40.6550   10.1720   21.8300 C.3   161  GLN161      0.1566
    125  C         41.3920   11.3200   22.4250 C.2   161  GLN161      0.2260
    126  O         41.0220   12.4730   22.1960 O.2   161  GLN161     -0.2867
    127  CB        39.5690    9.8180   22.8460 C.3   161  GLN161      0.0367
    128  CG        38.3870    9.0820   22.2460 C.3   161  GLN161      0.0905
    129  CD        37.3260    9.9680   21.6270 C.2   161  GLN161      0.2608
    130  OE1       37.2640   10.1030   20.4000 O.2   161  GLN161     -0.2717
    131  NE2       36.4490   10.5260   22.4620 N.am  161  GLN161     -0.0878
    132  N         42.6320   13.2140   19.6210 N.3   164  ASP164     -0.1239
    133  CA        41.4750   13.7620   18.9110 C.3   164  ASP164      0.1674
    134  C         40.9550   15.0500   19.5700 C.2   164  ASP164      0.2266
    135  O         40.5910   15.9980   18.8940 O.2   164  ASP164     -0.2867
    136  CB        40.3460   12.7290   18.8820 C.3   164  ASP164      0.1410
    137  CG        39.1930   13.1400   17.9820 C.2   164  ASP164      0.3668
    138  OD1       39.3440   13.0330   16.7430 O.co2 164  ASP164     -0.2456
    139  OD2       38.1340   13.5660   18.5050 O.co2 164  ASP164     -0.2456
    140  N         42.6240    5.8080   17.5030 N.3   205  LYS205     -0.1231
    141  CA        41.2680    5.9740   17.9890 C.3   205  LYS205      0.1693
    142  C         40.3070    4.9970   17.3440 C.2   205  LYS205      0.2592
    143  O         39.2520    4.7280   17.9080 O.2   205  LYS205     -0.2718
    144  CB        40.7920    7.4360   17.9040 C.3   205  LYS205      0.0285
    145  CG        40.2820    7.9320   16.5660 C.3   205  LYS205      0.0035
    146  CD        39.3160    9.0940   16.7690 C.3   205  LYS205      0.0206
    147  CE        39.1270    9.9330   15.5130 C.3   205  LYS205      0.1093
    148  NZ        37.7730   10.5570   15.4670 N.3   205  LYS205     -0.1314
    149  N         40.6800    4.4090   16.2100 N.am  206  THR206     -0.1953
    150  CA        39.7510    3.5140   15.4980 C.3   206  THR206      0.1897
    151  C         40.3200    2.1470   15.1230 C.2   206  THR206      0.2313
    152  O         39.6830    1.1240   15.3490 O.2   206  THR206     -0.2863
    153  CB        39.2030    4.1920   14.2200 C.3   206  THR206      0.1794
    154  OG1       38.5350    5.4110   14.5810 O.3   206  THR206     -0.2208
    155  CG2       38.2160    3.2520   13.4990 C.3   206  THR206      0.0378
    156  N         40.5820   -1.0520   17.8470 N.3   209  TYR209     -0.1241
    157  CA        39.4230   -1.7160   18.4040 C.3   209  TYR209      0.1605
    158  C         38.3950   -2.1660   17.3410 C.2   209  TYR209      0.2264
    159  O         37.6520   -3.1110   17.5650 O.2   209  TYR209     -0.2867
    160  CB        38.8060   -0.8720   19.5090 C.3   209  TYR209      0.0534
    161  CG        37.6990   -0.0030   19.0700 C.ar  209  TYR209     -0.0201
    162  CD1       36.4030   -0.4670   19.0900 C.ar  209  TYR209     -0.0009
    163  CD2       37.9370    1.3010   18.6600 C.ar  209  TYR209     -0.0009
    164  CE1       35.3580    0.3310   18.6840 C.ar  209  TYR209      0.0417
    165  CE2       36.9040    2.1200   18.2700 C.ar  209  TYR209      0.0417
    166  CZ        35.6140    1.6280   18.2790 C.ar  209  TYR209      0.1957
    167  OH        34.5800    2.4220   17.8750 O.3   209  TYR209     -0.2866
    168  N         38.3530    3.8320    7.1150 N.3   245  PHE245     -0.1227
    169  CA        37.0670    3.9360    7.7780 C.3   245  PHE245      0.1736
    170  C         36.8610    5.3360    8.3560 C.2   245  PHE245      0.2595
    171  O         35.8190    5.9480    8.1440 O.2   245  PHE245     -0.2718
    172  CB        36.9650    2.8740    8.8740 C.3   245  PHE245      0.0547
    173  CG        35.6710    2.8860    9.5910 C.ar  245  PHE245     -0.0202
    174  CD1       34.5590    2.2550    9.0540 C.ar  245  PHE245     -0.0042
    175  CD2       35.5330    3.5480   10.7900 C.ar  245  PHE245     -0.0042
    176  CE1       33.3340    2.2680    9.7120 C.ar  245  PHE245     -0.0003
    177  CE2       34.3120    3.5670   11.4590 C.ar  245  PHE245     -0.0003
    178  CZ        33.2120    2.9250   10.9190 C.ar  245  PHE245     -0.0000
    179  N         37.8420    5.8510    9.0800 N.am  246  GLN246     -0.1979
    180  CA        37.6640    7.1290    9.7430 C.3   246  GLN246      0.1601
    181  C         37.4790    8.2950    8.7660 C.2   246  GLN246      0.2287
    182  O         36.6410    9.1700    8.9880 O.2   246  GLN246     -0.2864
    183  CB        38.8260    7.4150   10.6610 C.3   246  GLN246      0.0394
    184  CG        38.6480    8.6900   11.4590 C.3   246  GLN246      0.0908
    185  CD        37.3550    8.6930   12.2470 C.2   246  GLN246      0.2608
    186  OE1       37.1080    7.8030   13.0610 O.2   246  GLN246     -0.2717
    187  NE2       36.5220    9.6990   12.0120 N.am  246  GLN246     -0.0878
    188  N         34.1390    8.3010    7.8430 N.3   249  ASP249     -0.1225
    189  CA        33.3770    8.9240    8.9060 C.3   249  ASP249      0.1805
    190  C         33.4080   10.4430    8.8030 C.2   249  ASP249      0.2597
    191  O         32.3810   11.1170    8.9870 O.2   249  ASP249     -0.2718
    192  CB        33.8860    8.4920   10.2720 C.3   249  ASP249      0.1424
    193  CG        32.9960    9.0020   11.4200 C.2   249  ASP249      0.3668
    194  OD1       33.4960    9.8160   12.2650 O.co2 249  ASP249     -0.2456
    195  OD2       31.7940    8.5980   11.4560 O.co2 249  ASP249     -0.2456
    196  N         34.5840   10.9840    8.4900 N.am  250  ASP250     -0.1974
    197  CA        34.7780   12.4440    8.3750 C.3   250  ASP250      0.1709
    198  C         34.0230   13.0310    7.1630 C.2   250  ASP250      0.2293
    199  O         33.3540   14.0420    7.2660 O.2   250  ASP250     -0.2864
    200  CB        36.2670   12.7790    8.3140 C.3   250  ASP250      0.1436
    201  CG        37.0170   12.4500    9.6360 C.2   250  ASP250      0.3671
    202  OD1       38.2420   12.7300    9.7150 O.co2 250  ASP250     -0.2456
    203  OD2       36.3870   11.9410   10.5980 O.co2 250  ASP250     -0.2456
    204  N         30.4790   13.4110    7.9230 N.3   253  ASP253     -0.1239
    205  CA        30.2220   14.5220    8.8280 C.3   253  ASP253      0.1674
    206  C         29.7250   15.7380    8.0610 C.2   253  ASP253      0.2266
    207  O         28.8690   16.4610    8.5580 O.2   253  ASP253     -0.2867
    208  CB        31.4560   14.8750    9.6590 C.3   253  ASP253      0.1410
    209  CG        31.1060   15.6610   10.9170 C.2   253  ASP253      0.3668
    210  OD1       31.2860   16.9150   10.9100 O.co2 253  ASP253     -0.2456
    211  OD2       30.6460   15.0280   11.9130 O.co2 253  ASP253     -0.2456
    212  N         23.1480   10.4630   13.0300 N.3   263  LYS263     -0.1245
    213  CA        23.8910   11.3860   13.8920 C.3   263  LYS263      0.1561
    214  C         24.1370   12.7170   13.1970 C.2   263  LYS263      0.2260
    215  O         24.0410   12.8160   11.9620 O.2   263  LYS263     -0.2867
    216  CB        25.2210   10.7650   14.2940 C.3   263  LYS263      0.0271
    217  CG        26.1170   10.4450   13.1150 C.3   263  LYS263      0.0035
    218  CD        27.3420    9.6580   13.5350 C.3   263  LYS263      0.0206
    219  CE        28.2730    9.3950   12.3550 C.3   263  LYS263      0.1093
    220  NZ        29.4540    8.5570   12.7070 N.3   263  LYS263     -0.1314
    221  N         32.0780   18.1750   13.4950 N.3   267  ASP267     -0.1239
    222  CA        33.5610   18.2350   13.4860 C.3   267  ASP267      0.1674
    223  C         34.1240   19.6730   13.4470 C.2   267  ASP267      0.2266
    224  O         35.0700   19.9940   14.1630 O.2   267  ASP267     -0.2867
    225  CB        34.1260   17.4350   12.3130 C.3   267  ASP267      0.1410
    226  CG        33.9520   15.9150   12.4600 C.2   267  ASP267      0.3668
    227  OD1       33.5480   15.4470   13.5420 O.co2 267  ASP267     -0.2456
    228  OD2       34.2570   15.1750   11.4740 O.co2 267  ASP267     -0.2456
    229  N         37.8870   19.8760   15.2430 N.3   272  LYS272     -0.1245
    230  CA        38.5060   18.5750   15.0350 C.3   272  LYS272      0.1561
    231  C         39.4240   18.5560   13.8420 C.2   272  LYS272      0.2260
    232  O         39.1080   19.1070   12.8000 O.2   272  LYS272     -0.2867
    233  CB        37.4450   17.5040   14.8470 C.3   272  LYS272      0.0271
    234  CG        36.5780   17.2950   16.0660 C.3   272  LYS272      0.0035
    235  CD        37.3770   16.7500   17.2530 C.3   272  LYS272      0.0206
    236  CE        36.4390   16.3290   18.3870 C.3   272  LYS272      0.1093
    237  NZ        37.0490   16.2960   19.7440 N.3   272  LYS272     -0.1314
@<TRIPOS>BOND
     1   168   169    1
     2   198   199    2
     3   198   197    1
     4   169   170    1
     5   169   172    1
     6   188   189    1
     7   204   205    1
     8   206   207    2
     9   206   205    1
    10   171   170    2
    11   200   197    1
    12   200   201    1
    13   170   179   am
    14   197   196    1
    15   196   190   am
    16   181   182    2
    17   181   180    1
    18   190   189    1
    19   190   191    2
    20   205   208    1
    21   172   173    1
    22   189   192    1
    23   174   173   ar
    24   174   176   ar
    25   179   180    1
    26   173   175   ar
    27   201   202   ar
    28   201   203   ar
    29   208   209    1
    30   176   178   ar
    31   180   183    1
    32   192   193    1
    33   183   184    1
    34   175   177   ar
    35   210   209   ar
    36   209   211   ar
    37   178   177   ar
    38   193   195   ar
    39   193   194   ar
    40   184   185    1
    41   228   226   ar
    42   215   214    2
    43   187   185   am
    44   185   186    2
    45   225   226    1
    46   225   222    1
    47   219   220    1
    48   219   218    1
    49   226   227   ar
    50   232   231    2
    51   212   213    1
    52   217   218    1
    53   217   216    1
    54   214   213    1
    55   223   222    1
    56   223   224    2
    57   222   221    1
    58   155   153    1
    59     1     2    1
    60   231   230    1
    61   213   216    1
    62   153   154    1
    63   153   150    1
    64     2     3    1
    65     2     5    1
    66    11     9    1
    67   233   230    1
    68   233   234    1
    69     3     4    2
    70     6     5    1
    71     6     7    1
    72   230   229    1
    73    10     9    1
    74   151   152    2
    75   151   150    1
    76     9     8    2
    77   148   147    1
    78   150   149    1
    79   147   146    1
    80     8     7    1
    81   234   235    1
    82   149   142   am
    83   145   146    1
    84   145   144    1
    85    78    76    1
    86   138   137   ar
    87   235   236    1
    88   158   159    2
    89   158   157    1
    90   142   143    2
    91   142   141    1
    92   140   141    1
    93    70    69    1
    94    70    71    2
    95    76    75    2
    96    76    77    1
    97   156   157    1
    98   167   166    1
    99   144   141    1
   100    69    68    1
   101    69    72    1
   102   137   139   ar
   103   137   136    1
   104    75    74    1
   105   165   166   ar
   106   165   163   ar
   107   166   164   ar
   108   236   237    1
   109   157   160    1
   110   163   161   ar
   111   164   162   ar
   112    30    28    1
   113   136   133    1
   114   135   134    2
   115   133   134    1
   116   133   132    1
   117    73    72    1
   118    73    74    1
   119    67    65   ar
   120   161   162   ar
   121   161   160    1
   122    29    28    1
   123    28    27    1
   124    43    41   ar
   125    65    64    1
   126    65    66   ar
   127    42    41   ar
   128    64    61    1
   129    41    40    1
   130    50    49   ar
   131   130   129    2
   132    63    62    2
   133    27    24    1
   134   113   112    1
   135    51    49   ar
   136    49    48    1
   137   114   112    1
   138    40    37    1
   139    61    62    1
   140    61    60    1
   141   123   124    1
   142   129   128    1
   143   129   131   am
   144    24    23    1
   145    24    25    1
   146   124   125    1
   147   124   127    1
   148   109   112    1
   149   109   108    1
   150   109   110    1
   151    19    21   ar
   152    19    17   ar
   153   126   125    2
   154   128   127    1
   155   111   110    2
   156    21    22   ar
   157    39    38    2
   158    23    14   am
   159    16    17    1
   160    16    13    1
   161    60    54   am
   162    38    37    1
   163    38    44   am
   164    26    25    2
   165    48    45    1
   166    37    36    1
   167    45    44    1
   168    45    46    1
   169   110   115   am
   170    17    18   ar
   171    14    15    2
   172    14    13    1
   173    13    12    1
   174    22    20   ar
   175    54    55    2
   176    54    53    1
   177    47    46    2
   178    36    33   am
   179   115   116    1
   180   101   102    1
   181    18    20   ar
   182   117   118    2
   183   117   116    1
   184    56    53    1
   185    56    57    1
   186    59    58    1
   187   102   103    1
   188   102   105    1
   189    53    52    1
   190   104   103    2
   191   116   119    1
   192    33    34    2
   193    33    32    1
   194    58    57    1
   195    31    32    1
   196   106   105    1
   197    32    35    1
   198   105   107    1
   199   119   120    1
   200   119   121    1
   201   120   122    1
   202    92    90    1
   203    91    90    1
   204    90    87    1
   205    87    88    1
   206    87    86    1
   207    89    88    2
   208    88    93   am
   209    93    94    1
   210    79    80    1
   211    85    83    1
   212    80    81    1
   213    80    83    1
   214    94    95    1
   215    94    97    1
   216    82    81    2
   217    95    96    2
   218   100    98    1
   219    83    84    1
   220    97    98    1
   221    99    98    1
