@<TRIPOS>MOLECULE
tmp/3ryxA00.pdb
 151 147 0 0 0
SMALL
GASTEIGER

@<TRIPOS>ATOM
      1  N         20.5310   -3.0810    6.3880 N.3    62  HIS62      -0.1241
      2  CA        20.4340   -3.8690    7.6070 C.3    62  HIS62       0.1621
      3  C         19.0480   -4.3930    7.8480 C.2    62  HIS62       0.2264
      4  O         18.9130   -5.5060    8.4180 O.2    62  HIS62      -0.2867
      5  CB        21.0060   -3.1910    8.8570 C.3    62  HIS62       0.0745
      6  CG        20.6190   -1.7610    9.0470 C.ar   62  HIS62       0.0817
      7  ND1       19.5630   -1.3690    9.8460 N.ar   62  HIS62      -0.2268
      8  CD2       21.1860   -0.6180    8.5850 C.ar   62  HIS62       0.1154
      9  CE1       19.5030   -0.0500    9.8740 C.ar   62  HIS62       0.1986
     10  NE2       20.4640    0.4280    9.1000 N.ar   62  HIS62      -0.2212
     11  N          8.6950    5.3760   11.3190 N.3    90  GLN90      -0.1245
     12  CA         8.9890    4.1820   10.4610 C.3    90  GLN90       0.1566
     13  C          8.7490    2.9070   11.2010 C.2    90  GLN90       0.2260
     14  O          8.7150    2.9250   12.4010 O.2    90  GLN90      -0.2867
     15  CB        10.4340    4.1720    9.8960 C.3    90  GLN90       0.0367
     16  CG        11.5050    4.2690   10.9860 C.3    90  GLN90       0.0905
     17  CD        12.2220    2.9730   11.3240 C.2    90  GLN90       0.2608
     18  OE1       11.6720    1.8690   11.1690 O.2    90  GLN90      -0.2717
     19  NE2       13.4880    3.1270   11.8460 N.am   90  GLN90      -0.0878
     20  N         10.0890   -1.4130   10.9690 N.3    92  HIS92      -0.1241
     21  CA        10.9970   -2.3610   10.3310 C.3    92  HIS92       0.1621
     22  C         10.8930   -3.6330   11.1850 C.2    92  HIS92       0.2264
     23  O         10.2810   -3.6640   12.2450 O.2    92  HIS92      -0.2867
     24  CB        12.4500   -1.8200   10.2830 C.3    92  HIS92       0.0745
     25  CG        12.9950   -1.5630   11.6680 C.ar   92  HIS92       0.0817
     26  ND1       12.8190   -0.3810   12.3740 N.ar   92  HIS92      -0.2268
     27  CD2       13.6150   -2.4170   12.5270 C.ar   92  HIS92       0.1154
     28  CE1       13.3480   -0.5120   13.5930 C.ar   92  HIS92       0.1986
     29  NE2       13.8420   -1.7430   13.7040 N.ar   92  HIS92      -0.2212
     30  N         13.2030   -7.3870   12.5190 N.3    94  HIS94      -0.1241
     31  CA        14.4120   -8.2020   12.6610 C.3    94  HIS94       0.1621
     32  C         13.9680   -9.6480   12.5570 C.2    94  HIS94       0.2264
     33  O         12.9110   -9.9870   13.0330 O.2    94  HIS94      -0.2867
     34  CB        15.0540   -7.9490   14.0520 C.3    94  HIS94       0.0745
     35  CG        15.3660   -6.5000   14.3390 C.ar   94  HIS94       0.0817
     36  ND1       16.6350   -5.9630   14.1840 N.ar   94  HIS94      -0.2268
     37  CD2       14.5540   -5.4490   14.6790 C.ar   94  HIS94       0.1154
     38  CE1       16.5800   -4.6510   14.4140 C.ar   94  HIS94       0.1986
     39  NE2       15.3420   -4.3200   14.7620 N.ar   94  HIS94      -0.2212
     40  N          9.2610   -3.5420   14.8840 N.3   117  HIS117     -0.1241
     41  CA         9.5410   -2.3230   15.7150 C.3   117  HIS117      0.1621
     42  C          8.8790   -1.1860   15.0520 C.2   117  HIS117      0.2264
     43  O          9.2430   -0.8190   13.9030 O.2   117  HIS117     -0.2867
     44  CB        11.0440   -2.0140   15.7860 C.3   117  HIS117      0.0745
     45  CG        11.7420   -3.0170   16.6410 C.ar  117  HIS117      0.0817
     46  ND1       13.1200   -3.2550   16.6030 N.ar  117  HIS117     -0.2268
     47  CD2       11.2280   -3.8890   17.5650 C.ar  117  HIS117      0.1154
     48  CE1       13.4090   -4.1910   17.5050 C.ar  117  HIS117      0.1986
     49  NE2       12.2920   -4.5790   18.1030 N.ar  117  HIS117     -0.2212
     50  N          8.5260    2.5720   15.2540 N.3   119  VAL119     -0.1245
     51  CA         9.3690    3.6120   15.8610 C.3   119  VAL119      0.1561
     52  C          8.6820    4.9920   15.8570 C.2   119  VAL119      0.2260
     53  O          8.2360    5.4890   14.8080 O.2   119  VAL119     -0.2867
     54  CB        10.6780    3.7200   15.0690 C.3   119  VAL119      0.0252
     55  CG1       11.6490    4.7910   15.7080 C.3   119  VAL119      0.0019
     56  CG2       11.3570    2.3980   14.9960 C.3   119  VAL119      0.0019
     57  N         13.1190   14.3630   14.7550 N.3   128  PHE128     -0.1227
     58  CA        13.6230   13.0380   15.1400 C.3   128  PHE128      0.1736
     59  C         15.0770   13.0850   15.5530 C.2   128  PHE128      0.2596
     60  O         15.4820   12.4350   16.5150 O.2   128  PHE128     -0.2718
     61  CB        13.5210   12.1070   13.9500 C.3   128  PHE128      0.0547
     62  CG        13.9920   10.7640   14.2210 C.ar  128  PHE128     -0.0202
     63  CD1       13.1580    9.8930   14.9000 C.ar  128  PHE128     -0.0042
     64  CD2       15.2740   10.3520   13.8440 C.ar  128  PHE128     -0.0042
     65  CE1       13.5950    8.5850   15.2060 C.ar  128  PHE128     -0.0003
     66  CE2       15.7020    9.0390   14.1330 C.ar  128  PHE128     -0.0003
     67  CZ        14.8130    8.1540   14.7850 C.ar  128  PHE128     -0.0000
     68  N         15.8850   13.8550   14.8150 N.am  129  GLY129     -0.1957
     69  CA        17.2980   14.0280   15.1550 C.3   129  GLY129      0.1869
     70  C         17.5980   14.5900   16.5140 C.2   129  GLY129      0.2309
     71  O         18.5800   14.1920   17.0930 O.2   129  GLY129     -0.2863
     72  N         16.4310   11.6820   19.3600 N.3   132  VAL132     -0.1245
     73  CA        17.3070   10.5400   19.6850 C.3   132  VAL132      0.1561
     74  C         18.4550   10.9330   20.6750 C.2   132  VAL132      0.2260
     75  O         19.1780   10.0850   21.1810 O.2   132  VAL132     -0.2867
     76  CB        17.9060    9.8400   18.4060 C.3   132  VAL132      0.0252
     77  CG1       16.7960    9.3520   17.4980 C.3   132  VAL132      0.0019
     78  CG2       18.8590   10.7910   17.6420 C.3   132  VAL132      0.0019
     79  N         12.4130    8.6060   22.2040 N.3   138  LEU138     -0.1245
     80  CA        11.6790    7.6580   21.3300 C.3   138  LEU138      0.1561
     81  C         10.8120    6.7190   22.1450 C.2   138  LEU138      0.2260
     82  O         11.0710    6.4540   23.3320 O.2   138  LEU138     -0.2867
     83  CB        12.6040    6.7870   20.4870 C.3   138  LEU138      0.0270
     84  CG        13.4590    7.4330   19.3990 C.3   138  LEU138      0.0019
     85  CD1       14.2000    6.4030   18.4670 C.3   138  LEU138      0.0001
     86  CD2       13.0330    8.7180   18.6390 C.3   138  LEU138      0.0001
     87  N          9.4180    2.7990   21.1360 N.3   140  VAL140     -0.1245
     88  CA         9.3360    1.8430   20.0790 C.3   140  VAL140      0.1561
     89  C          8.3820    0.7570   20.5890 C.2   140  VAL140      0.2260
     90  O          8.5520    0.2350   21.6960 O.2   140  VAL140     -0.2867
     91  CB        10.7140    1.2420   19.7610 C.3   140  VAL140      0.0252
     92  CG1       10.5480    0.1710   18.6580 C.3   140  VAL140      0.0019
     93  CG2       11.6500    2.3290   19.3070 C.3   140  VAL140      0.0019
     94  N         18.3720    2.2230   21.2880 N.3   195  LEU195     -0.1231
     95  CA        18.3430    1.6850   19.9480 C.3   195  LEU195      0.1693
     96  C         19.0720    0.3460   19.9650 C.2   195  LEU195      0.2593
     97  O         20.1240    0.1880   20.6260 O.2   195  LEU195     -0.2718
     98  CB        19.0900    2.6430   18.9750 C.3   195  LEU195      0.0284
     99  CG        18.6290    4.1170   18.9580 C.3   195  LEU195      0.0019
    100  CD1       19.3860    4.9420   17.8470 C.3   195  LEU195      0.0001
    101  CD2       17.1180    4.1690   18.7110 C.3   195  LEU195      0.0001
    102  N         18.5860   -0.6020   19.1550 N.am  196  THR196     -0.1939
    103  CA        19.2610   -1.9270   19.0970 C.3   196  THR196      0.2028
    104  C         20.2740   -2.0090   17.9470 C.2   196  THR196      0.2643
    105  O         20.8640   -3.0770   17.7100 O.2   196  THR196     -0.2714
    106  CB        18.2360   -3.1030   18.9580 C.3   196  THR196      0.1808
    107  OG1       17.6270   -3.0340   17.6640 O.3   196  THR196     -0.2208
    108  CG2       17.2360   -3.0030   20.1620 C.3   196  THR196      0.0379
    109  N         20.4310   -0.9490   17.1810 N.am  197  THR197     -0.1937
    110  CA        21.5090   -0.8850   16.1740 C.3   197  THR197      0.2013
    111  C         22.3550    0.3470   16.4670 C.2   197  THR197      0.2484
    112  O         21.8340    1.3590   17.0200 O.2   197  THR197     -0.2729
    113  CB        20.9200   -0.8060   14.7100 C.3   197  THR197      0.1807
    114  OG1       19.9420    0.2500   14.6420 O.3   197  THR197     -0.2208
    115  CG2       20.2790   -2.1460   14.3050 C.3   197  THR197      0.0379
    116  N         23.6720    0.3350   16.0470 N.am  198  PRO198     -0.2715
    117  CA        24.4390    1.5950   16.1120 C.3   198  PRO198      0.1521
    118  C         23.6280    2.7720   15.5520 C.2   198  PRO198      0.2440
    119  O         23.0690    2.6630   14.4770 O.2   198  PRO198     -0.2731
    120  CB        25.6940    1.2720   15.2810 C.3   198  PRO198      0.0310
    121  CG        25.8870   -0.2540   15.4900 C.3   198  PRO198      0.0237
    122  CD        24.4440   -0.7490   15.4170 C.3   198  PRO198      0.0939
    123  N         23.6400    3.9270   16.2180 N.am  199  PRO199     -0.2727
    124  CA        24.5660    4.2700   17.3300 C.3   199  PRO199      0.1402
    125  C         24.1520    3.8780   18.7560 C.2   199  PRO199      0.2269
    126  O         24.8060    4.3050   19.7490 O.2   199  PRO199     -0.2865
    127  CB        24.6710    5.8020   17.2060 C.3   199  PRO199      0.0296
    128  CG        23.3160    6.2250   16.7090 C.3   199  PRO199      0.0237
    129  CD        22.9080    5.1280   15.7210 C.3   199  PRO199      0.0939
    130  N         21.8680    4.5740   20.8010 N.3   201  LEU201     -0.1245
    131  CA        21.5740    5.6350   21.7570 C.3   201  LEU201      0.1561
    132  C         20.5510    5.1860   22.8030 C.2   201  LEU201      0.2260
    133  O         19.5320    4.5320   22.5010 O.2   201  LEU201     -0.2867
    134  CB        21.0950    6.8940   21.0460 C.3   201  LEU201      0.0270
    135  CG        22.0780    7.4320   19.9930 C.3   201  LEU201      0.0019
    136  CD1       21.3740    8.3760   19.0590 C.3   201  LEU201      0.0001
    137  CD2       23.2240    8.1700   20.7060 C.3   201  LEU201      0.0001
    138  N         10.8460    1.3460   25.6370 N.3   206  TRP206     -0.1241
    139  CA        10.3800    0.0830   25.0230 C.3   206  TRP206      0.1605
    140  C          9.0240   -0.2640   25.5040 C.2   206  TRP206      0.2264
    141  O          8.7540   -0.3040   26.7060 O.2   206  TRP206     -0.2867
    142  CB        11.4020   -1.0810   25.2740 C.3   206  TRP206      0.0550
    143  CG        12.5340   -0.8990   24.2510 C.ar  206  TRP206      0.0003
    144  CD1       13.7770   -0.3020   24.4260 C.ar  206  TRP206      0.0946
    145  CD2       12.4450   -1.2760   22.8720 C.ar  206  TRP206      0.0152
    146  NE1       14.4660   -0.2920   23.2010 N.ar  206  TRP206     -0.2442
    147  CE2       13.6840   -0.9250   22.2490 C.ar  206  TRP206      0.0810
    148  CE3       11.4440   -1.9720   22.1120 C.ar  206  TRP206      0.0012
    149  CZ2       13.9260   -1.1660   20.8600 C.ar  206  TRP206      0.0191
    150  CZ3       11.6780   -2.2360   20.7260 C.ar  206  TRP206      0.0001
    151  CH2       12.9350   -1.8290   20.1250 C.ar  206  TRP206      0.0015
@<TRIPOS>BOND
     1     1     2    1
     2     2     3    1
     3     2     5    1
     4     3     4    2
     5     8     6   ar
     6     8    10   ar
     7     5     6    1
     8     6     7   ar
     9    10     9   ar
    10     7     9   ar
    11    15    12    1
    12    15    16    1
    13    24    21    1
    14    24    25    1
    15    21    20    1
    16    21    22    1
    17    12    13    1
    18    12    11    1
    19    16    17    1
    20    18    17    2
    21    22    23    2
    22    13    14    2
    23    17    19   am
    24    25    26   ar
    25    25    27   ar
    26    26    28   ar
    27    30    31    1
    28    27    29   ar
    29    32    31    1
    30    32    33    2
    31    31    34    1
    32    28    29   ar
    33    64    66   ar
    34    64    62   ar
    35    43    42    2
    36    61    62    1
    37    61    58    1
    38    34    35    1
    39    66    67   ar
    40    36    35   ar
    41    36    38   ar
    42    62    63   ar
    43   115   113    1
    44    35    37   ar
    45    38    39   ar
    46   119   118    2
    47   114   113    1
    48    37    39   ar
    49   113   110    1
    50    57    58    1
    51    67    65   ar
    52    53    52    2
    53    68    69    1
    54    68    59   am
    55    40    41    1
    56    63    65   ar
    57    56    54    1
    58    42    41    1
    59    54    55    1
    60    54    51    1
    61    58    59    1
    62    69    70    1
    63    50    51    1
    64   120   121    1
    65   120   117    1
    66   122   121    1
    67   122   116    1
    68   118   117    1
    69   118   123   am
    70    59    60    2
    71    41    44    1
    72   129   123    1
    73   129   128    1
    74    44    45    1
    75    52    51    1
    76   116   117    1
    77   116   111   am
    78   110   111    1
    79   110   109    1
    80   123   124    1
    81   111   112    2
    82    70    71    2
    83    46    45   ar
    84    46    48   ar
    85    45    47   ar
    86   128   127    1
    87   109   104   am
    88   127   124    1
    89   124   125    1
    90    77    76    1
    91    48    49   ar
    92    47    49   ar
    93    78    76    1
    94   107   106    1
    95   105   104    2
    96   100    99    1
    97   104   103    1
    98    76    73    1
    99    85    84    1
   100    86    84    1
   101    92    91    1
   102   101    99    1
   103   125   126    2
   104    99    98    1
   105   106   103    1
   106   106   108    1
   107    98    95    1
   108   136   135    1
   109   103   102    1
   110   102    96   am
   111    93    91    1
   112    72    73    1
   113    84    83    1
   114    73    74    1
   115    91    88    1
   116    95    96    1
   117    95    94    1
   118    96    97    2
   119   135   137    1
   120   135   134    1
   121    88    89    1
   122    88    87    1
   123   151   150   ar
   124   151   149   ar
   125    83    80    1
   126    89    90    2
   127    74    75    2
   128   150   148   ar
   129   130   131    1
   130   149   147   ar
   131   134   131    1
   132    80    81    1
   133    80    79    1
   134   131   132    1
   135   148   145   ar
   136    81    82    2
   137   147   145   ar
   138   147   146   ar
   139   133   132    2
   140   145   143   ar
   141   146   144   ar
   142   143   144   ar
   143   143   142    1
   144   139   142    1
   145   139   140    1
   146   139   138    1
   147   140   141    2
