@<TRIPOS>MOLECULE
tmp/3ryyA00.pdb
 139 136 0 0 0
SMALL
GASTEIGER

@<TRIPOS>ATOM
      1  N         20.3950   -2.2020    6.3760 N.3    61  HIS61      -0.1241
      2  CA        20.2590   -2.9560    7.6430 C.3    61  HIS61       0.1621
      3  C         18.8720   -3.4780    7.8760 C.2    61  HIS61       0.2264
      4  O         18.7450   -4.4640    8.5510 O.2    61  HIS61      -0.2867
      5  CB        20.7840   -2.2460    8.9250 C.3    61  HIS61       0.0745
      6  CG        20.4760   -0.7600    9.0270 C.ar   61  HIS61       0.0817
      7  ND1       19.4770   -0.1900    9.8310 N.ar   61  HIS61      -0.2268
      8  CD2       21.0980    0.2810    8.4140 C.ar   61  HIS61       0.1154
      9  CE1       19.5060    1.1100    9.6730 C.ar   61  HIS61       0.1986
     10  NE2       20.4630    1.4170    8.8230 N.ar   61  HIS61      -0.2212
     11  N          8.5440    6.2050   11.1660 N.3    89  GLN89      -0.1245
     12  CA         8.8490    5.0740   10.2950 C.3    89  GLN89       0.1566
     13  C          8.5770    3.8150   11.0990 C.2    89  GLN89       0.2260
     14  O          8.5690    3.8380   12.3330 O.2    89  GLN89      -0.2867
     15  CB        10.3240    5.0620    9.8250 C.3    89  GLN89       0.0367
     16  CG        11.4020    5.1810   10.8920 C.3    89  GLN89       0.0905
     17  CD        12.1080    3.9010   11.2540 C.2    89  GLN89       0.2608
     18  OE1       11.5460    2.7890   11.1030 O.2    89  GLN89      -0.2717
     19  NE2       13.2960    4.0210   11.7750 N.am   89  GLN89      -0.0878
     20  N          9.9540   -0.4860   10.8980 N.3    91  HIS91      -0.1241
     21  CA        10.8400   -1.4760   10.2890 C.3    91  HIS91       0.1621
     22  C         10.7600   -2.7270   11.1360 C.2    91  HIS91       0.2264
     23  O         10.1440   -2.7430   12.1920 O.2    91  HIS91      -0.2867
     24  CB        12.3030   -0.9730   10.1960 C.3    91  HIS91       0.0745
     25  CG        12.8440   -0.6810   11.5520 C.ar   91  HIS91       0.0817
     26  ND1       12.6510    0.5160   12.2010 N.ar   91  HIS91      -0.2268
     27  CD2       13.4610   -1.4780   12.4520 C.ar   91  HIS91       0.1154
     28  CE1       13.1640    0.4160   13.4370 C.ar   91  HIS91       0.1986
     29  NE2       13.6680   -0.8050   13.6400 N.ar   91  HIS91      -0.2212
     30  N         13.0620   -6.4530   12.4690 N.3    93  HIS93      -0.1241
     31  CA        14.2600   -7.2680   12.6270 C.3    93  HIS93       0.1621
     32  C         13.8250   -8.6990   12.5450 C.2    93  HIS93       0.2264
     33  O         12.7370   -9.0420   13.0490 O.2    93  HIS93      -0.2867
     34  CB        14.9560   -7.0230   14.0080 C.3    93  HIS93       0.0745
     35  CG        15.2080   -5.5570   14.2610 C.ar   93  HIS93       0.0817
     36  ND1       16.4280   -4.9940   14.0230 N.ar   93  HIS93      -0.2268
     37  CD2       14.4060   -4.5460   14.6790 C.ar   93  HIS93       0.1154
     38  CE1       16.3620   -3.6720   14.3250 C.ar   93  HIS93       0.1986
     39  NE2       15.1470   -3.3680   14.7080 N.ar   93  HIS93      -0.2212
     40  N          9.1190   -2.6430   14.8200 N.3   116  HIS116     -0.1241
     41  CA         9.3610   -1.4140   15.5800 C.3   116  HIS116      0.1621
     42  C          8.6800   -0.2550   14.8980 C.2   116  HIS116      0.2264
     43  O          9.0670    0.1130   13.7750 O.2   116  HIS116     -0.2867
     44  CB        10.8580   -1.1250   15.6880 C.3   116  HIS116      0.0745
     45  CG        11.5630   -2.0750   16.5750 C.ar  116  HIS116      0.0817
     46  ND1       12.9380   -2.3020   16.5540 N.ar  116  HIS116     -0.2268
     47  CD2       11.0350   -2.9120   17.5400 C.ar  116  HIS116      0.1154
     48  CE1       13.1890   -3.2130   17.4750 C.ar  116  HIS116      0.1986
     49  NE2       12.0770   -3.5920   18.0930 N.ar  116  HIS116     -0.2212
     50  N          8.3510    3.5840   15.1790 N.3   118  VAL118     -0.1245
     51  CA         9.2070    4.6140   15.7730 C.3   118  VAL118      0.1561
     52  C          8.5040    5.9280   15.7920 C.2   118  VAL118      0.2260
     53  O          8.0370    6.4160   14.7460 O.2   118  VAL118     -0.2867
     54  CB        10.5230    4.6930   14.9860 C.3   118  VAL118      0.0252
     55  CG1       11.4630    5.7220   15.6000 C.3   118  VAL118      0.0019
     56  CG2       11.2040    3.3210   14.8520 C.3   118  VAL118      0.0019
     57  N         13.0040   15.3030   14.6850 N.3   127  PHE127     -0.1241
     58  CA        13.4950   13.9930   15.0810 C.3   127  PHE127      0.1605
     59  C         14.9240   14.0750   15.5620 C.2   127  PHE127      0.2264
     60  O         15.3290   13.4220   16.5160 O.2   127  PHE127     -0.2867
     61  CB        13.3170   13.0460   13.8900 C.3   127  PHE127      0.0534
     62  CG        13.8220   11.6700   14.1470 C.ar  127  PHE127     -0.0203
     63  CD1       13.0650   10.7610   14.8170 C.ar  127  PHE127     -0.0042
     64  CD2       15.0990   11.2510   13.8180 C.ar  127  PHE127     -0.0042
     65  CE1       13.5060    9.4550   15.1090 C.ar  127  PHE127     -0.0003
     66  CE2       15.5330    9.8880   14.1120 C.ar  127  PHE127     -0.0003
     67  CZ        14.6370    9.0410   14.7440 C.ar  127  PHE127     -0.0000
     68  N         16.2300   12.7010   19.3250 N.3   131  VAL131     -0.1245
     69  CA        17.1230   11.5860   19.6710 C.3   131  VAL131      0.1561
     70  C         18.1930   11.9650   20.6200 C.2   131  VAL131      0.2260
     71  O         18.9100   11.1060   21.1560 O.2   131  VAL131     -0.2867
     72  CB        17.7610   10.9190   18.4600 C.3   131  VAL131      0.0252
     73  CG1       16.6800   10.2910   17.5710 C.3   131  VAL131      0.0019
     74  CG2       18.6660   11.8390   17.6670 C.3   131  VAL131      0.0019
     75  N          9.2380    3.8040   21.0490 N.3   139  VAL139     -0.1245
     76  CA         9.1970    2.7400   20.0410 C.3   139  VAL139      0.1561
     77  C          8.2180    1.6940   20.5540 C.2   139  VAL139      0.2260
     78  O          8.3430    1.1850   21.6670 O.2   139  VAL139     -0.2867
     79  CB        10.5500    2.1560   19.6810 C.3   139  VAL139      0.0252
     80  CG1       10.3890    1.1190   18.5850 C.3   139  VAL139      0.0019
     81  CG2       11.5100    3.2640   19.2400 C.3   139  VAL139      0.0019
     82  N         18.1280    3.1910   21.2060 N.3   194  LEU194     -0.1231
     83  CA        18.1100    2.6430   19.8280 C.3   194  LEU194      0.1693
     84  C         18.8460    1.3250   19.8370 C.2   194  LEU194      0.2593
     85  O         19.8830    1.1710   20.5280 O.2   194  LEU194     -0.2718
     86  CB        18.8550    3.6050   18.9100 C.3   194  LEU194      0.0284
     87  CG        18.3630    5.0490   18.8700 C.3   194  LEU194      0.0019
     88  CD1       19.1940    5.8530   17.8530 C.3   194  LEU194      0.0001
     89  CD2       16.9040    5.1210   18.5500 C.3   194  LEU194      0.0001
     90  N         18.3950    0.3580   19.0120 N.am  195  THR195     -0.1939
     91  CA        19.0960   -0.9460   18.9700 C.3   195  THR195      0.2028
     92  C         20.0810   -1.0330   17.8440 C.2   195  THR195      0.2643
     93  O         20.6890   -2.1000   17.6610 O.2   195  THR195     -0.2714
     94  CB        18.0800   -2.0800   18.8960 C.3   195  THR195      0.1808
     95  OG1       17.4770   -2.0640   17.5910 O.3   195  THR195     -0.2208
     96  CG2       17.0770   -2.0730   20.0040 C.3   195  THR195      0.0379
     97  N         20.2740    0.0280   17.0620 N.am  196  THR196     -0.1937
     98  CA        21.3280    0.1290   16.0550 C.3   196  THR196      0.2013
     99  C         22.1230    1.3680   16.3400 C.2   196  THR196      0.2484
    100  O         21.6190    2.3370   16.8880 O.2   196  THR196     -0.2729
    101  CB        20.7540    0.1370   14.6260 C.3   196  THR196      0.1807
    102  OG1       19.7290    1.1450   14.5430 O.3   196  THR196     -0.2208
    103  CG2       20.2260   -1.1740   14.2150 C.3   196  THR196      0.0379
    104  N         23.4120    1.3590   15.9160 N.am  197  PRO197     -0.2715
    105  CA        24.2310    2.6020   15.9930 C.3   197  PRO197      0.1521
    106  C         23.4580    3.7650   15.4390 C.2   197  PRO197      0.2440
    107  O         22.8730    3.6500   14.3470 O.2   197  PRO197     -0.2731
    108  CB        25.4600    2.2170   15.1820 C.3   197  PRO197      0.0310
    109  CG        25.5940    0.7350   15.4410 C.3   197  PRO197      0.0237
    110  CD        24.2020    0.2430   15.3500 C.3   197  PRO197      0.0939
    111  N         23.4010    4.9000   16.1240 N.am  198  PRO198     -0.2727
    112  CA        24.2950    5.3050   17.2510 C.3   198  PRO198      0.1402
    113  C         23.8810    4.8740   18.6530 C.2   198  PRO198      0.2269
    114  O         24.5440    5.3160   19.6030 O.2   198  PRO198     -0.2865
    115  CB        24.3210    6.8470   17.1080 C.3   198  PRO198      0.0296
    116  CG        22.8830    7.1470   16.5620 C.3   198  PRO198      0.0237
    117  CD        22.6560    6.0430   15.5690 C.3   198  PRO198      0.0939
    118  N         21.6700    5.5040   20.7960 N.3   200  LEU200     -0.1245
    119  CA        21.3940    6.6220   21.7200 C.3   200  LEU200      0.1561
    120  C         20.3570    6.2020   22.7430 C.2   200  LEU200      0.2260
    121  O         19.3410    5.5180   22.4070 O.2   200  LEU200     -0.2867
    122  CB        20.8690    7.8370   20.9030 C.3   200  LEU200      0.0270
    123  CG        21.9460    8.4190   19.9980 C.3   200  LEU200      0.0019
    124  CD1       21.3410    9.4600   19.0240 C.3   200  LEU200      0.0001
    125  CD2       23.1470    9.0330   20.7350 C.3   200  LEU200      0.0001
    126  N         10.6100    2.3790   25.6220 N.3   205  TRP205     -0.1241
    127  CA        10.1670    1.1480   24.9100 C.3   205  TRP205      0.1605
    128  C          8.7940    0.7420   25.4180 C.2   205  TRP205      0.2264
    129  O          8.5480    0.7170   26.6340 O.2   205  TRP205     -0.2867
    130  CB        11.1770    0.0160   25.1410 C.3   205  TRP205      0.0550
    131  CG        12.3090    0.1080   24.1920 C.ar  205  TRP205      0.0003
    132  CD1       13.5330    0.6940   24.3480 C.ar  205  TRP205      0.0946
    133  CD2       12.2340   -0.2920   22.8100 C.ar  205  TRP205      0.0152
    134  NE1       14.2300    0.6570   23.1790 N.ar  205  TRP205     -0.2442
    135  CE2       13.4670    0.0710   22.2000 C.ar  205  TRP205      0.0810
    136  CE3       11.2760   -0.9440   22.0480 C.ar  205  TRP205      0.0012
    137  CZ2       13.7540   -0.2140   20.8580 C.ar  205  TRP205      0.0191
    138  CZ3       11.5580   -1.2060   20.7120 C.ar  205  TRP205      0.0001
    139  CH2       12.7700   -0.8450   20.1320 C.ar  205  TRP205      0.0015
@<TRIPOS>BOND
     1     1     2    1
     2     2     3    1
     3     2     5    1
     4     3     4    2
     5     8    10   ar
     6     8     6   ar
     7    10     9   ar
     8     5     6    1
     9     6     7   ar
    10     9     7   ar
    11    15    12    1
    12    15    16    1
    13    24    21    1
    14    24    25    1
    15    21    20    1
    16    21    22    1
    17    12    13    1
    18    12    11    1
    19    16    17    1
    20    13    14    2
    21    18    17    2
    22    22    23    2
    23    17    19   am
    24    25    26   ar
    25    25    27   ar
    26    26    28   ar
    27    27    29   ar
    28    30    31    1
    29    32    31    1
    30    32    33    2
    31    31    34    1
    32    28    29   ar
    33    43    42    2
    34    64    66   ar
    35    64    62   ar
    36    61    62    1
    37    61    58    1
    38    34    35    1
    39    36    35   ar
    40    36    38   ar
    41    66    67   ar
    42    62    63   ar
    43   103   101    1
    44    35    37   ar
    45    38    39   ar
    46   107   106    2
    47   102   101    1
    48   101    98    1
    49    37    39   ar
    50    57    58    1
    51    67    65   ar
    52    53    52    2
    53    63    65   ar
    54    40    41    1
    55    56    54    1
    56    42    41    1
    57    54    55    1
    58    54    51    1
    59    58    59    1
    60    50    51    1
    61   108   109    1
    62   108   105    1
    63   110   109    1
    64   110   104    1
    65   106   105    1
    66   106   111   am
    67    59    60    2
    68   117   111    1
    69   117   116    1
    70    41    44    1
    71    44    45    1
    72    51    52    1
    73   104   105    1
    74   104    99   am
    75    98    99    1
    76    98    97    1
    77   111   112    1
    78    99   100    2
    79    46    45   ar
    80    46    48   ar
    81   116   115    1
    82    45    47   ar
    83    97    92   am
    84   115   112    1
    85   112   113    1
    86    48    49   ar
    87    47    49   ar
    88    73    72    1
    89    95    94    1
    90    93    92    2
    91    74    72    1
    92    92    91    1
    93    88    87    1
    94    72    69    1
    95    89    87    1
    96    80    79    1
    97   113   114    2
    98    87    86    1
    99    94    91    1
   100    94    96    1
   101    86    83    1
   102    91    90    1
   103    90    84   am
   104   124   123    1
   105    81    79    1
   106    68    69    1
   107    69    70    1
   108    79    76    1
   109    83    84    1
   110    83    82    1
   111    84    85    2
   112   123   125    1
   113   123   122    1
   114    76    77    1
   115    76    75    1
   116   139   138   ar
   117   139   137   ar
   118    77    78    2
   119    70    71    2
   120   138   136   ar
   121   118   119    1
   122   137   135   ar
   123   122   119    1
   124   119   120    1
   125   136   133   ar
   126   135   133   ar
   127   135   134   ar
   128   121   120    2
   129   133   131   ar
   130   134   132   ar
   131   131   132   ar
   132   131   130    1
   133   127   130    1
   134   127   128    1
   135   127   126    1
   136   128   129    2
