@<TRIPOS>MOLECULE
tmp/3ryzA00.pdb
 150 146 0 0 0
SMALL
GASTEIGER

@<TRIPOS>ATOM
      1  N         20.3750   -2.2150    6.3650 N.3    62  HIS62      -0.1241
      2  CA        20.2750   -2.9290    7.6390 C.3    62  HIS62       0.1621
      3  C         18.8670   -3.4860    7.8640 C.2    62  HIS62       0.2264
      4  O         18.7130   -4.4940    8.5100 O.2    62  HIS62      -0.2867
      5  CB        20.7670   -2.1770    8.9110 C.3    62  HIS62       0.0745
      6  CG        20.4580   -0.7210    8.9980 C.ar   62  HIS62       0.0817
      7  ND1       19.4650   -0.2250    9.8440 N.ar   62  HIS62      -0.2268
      8  CD2       21.0810    0.3750    8.4590 C.ar   62  HIS62       0.1154
      9  CE1       19.4430    1.0960    9.7730 C.ar   62  HIS62       0.1986
     10  NE2       20.4120    1.4840    8.9530 N.ar   62  HIS62      -0.2212
     11  N          8.5510    6.2270   11.0830 N.3    90  GLN90      -0.1245
     12  CA         8.8360    5.0450   10.2340 C.3    90  GLN90       0.1566
     13  C          8.5540    3.8110   11.0150 C.2    90  GLN90       0.2260
     14  O          8.5360    3.8410   12.2460 O.2    90  GLN90      -0.2867
     15  CB        10.3070    5.0080    9.6690 C.3    90  GLN90       0.0367
     16  CG        11.3700    5.1870   10.7400 C.3    90  GLN90       0.0905
     17  CD        12.0670    3.9240   11.1320 C.2    90  GLN90       0.2608
     18  OE1       11.5350    2.8290   10.9900 O.2    90  GLN90      -0.2717
     19  NE2       13.2690    4.0760   11.6660 N.am   90  GLN90      -0.0878
     20  N          9.9240   -0.4730   10.8990 N.3    92  HIS92      -0.1241
     21  CA        10.8230   -1.4890   10.2640 C.3    92  HIS92       0.1621
     22  C         10.7630   -2.7460   11.1190 C.2    92  HIS92       0.2264
     23  O         10.1190   -2.7350   12.1770 O.2    92  HIS92      -0.2867
     24  CB        12.2670   -0.9450   10.1770 C.3    92  HIS92       0.0745
     25  CG        12.8340   -0.6330   11.5350 C.ar   92  HIS92       0.0817
     26  ND1       12.6430    0.5820   12.1780 N.ar   92  HIS92      -0.2268
     27  CD2       13.4770   -1.4480   12.4470 C.ar   92  HIS92       0.1154
     28  CE1       13.1810    0.5340   13.4020 C.ar   92  HIS92       0.1986
     29  NE2       13.6640   -0.7090   13.6070 N.ar   92  HIS92      -0.2212
     30  N         13.0290   -6.4130   12.4940 N.3    94  HIS94      -0.1241
     31  CA        14.2560   -7.2190   12.6550 C.3    94  HIS94       0.1621
     32  C         13.8070   -8.6680   12.6010 C.2    94  HIS94       0.2264
     33  O         12.7550   -9.0040   13.1170 O.2    94  HIS94      -0.2867
     34  CB        14.9380   -6.9810   14.0150 C.3    94  HIS94       0.0745
     35  CG        15.1840   -5.5120   14.2900 C.ar   94  HIS94       0.0817
     36  ND1       16.4210   -4.9420   14.0450 N.ar   94  HIS94      -0.2268
     37  CD2       14.3620   -4.4990   14.6710 C.ar   94  HIS94       0.1154
     38  CE1       16.3610   -3.6340   14.3700 C.ar   94  HIS94       0.1986
     39  NE2       15.1100   -3.3260   14.6820 N.ar   94  HIS94      -0.2212
     40  N          9.0990   -2.5770   14.8050 N.3   117  HIS117     -0.1241
     41  CA         9.3190   -1.3020   15.5760 C.3   117  HIS117      0.1621
     42  C          8.6420   -0.1820   14.8440 C.2   117  HIS117      0.2264
     43  O          9.0280    0.1640   13.7250 O.2   117  HIS117     -0.2867
     44  CB        10.8340   -1.0330   15.6660 C.3   117  HIS117      0.0745
     45  CG        11.5210   -2.0050   16.5530 C.ar  117  HIS117      0.0817
     46  ND1       12.8880   -2.2670   16.5290 N.ar  117  HIS117     -0.2268
     47  CD2       10.9820   -2.7990   17.5140 C.ar  117  HIS117      0.1154
     48  CE1       13.1740   -3.1560   17.4780 C.ar  117  HIS117      0.1986
     49  NE2       12.0430   -3.5030   18.0800 N.ar  117  HIS117     -0.2212
     50  N          8.3360    3.5890   15.1080 N.3   119  VAL119     -0.1245
     51  CA         9.2070    4.6090   15.6980 C.3   119  VAL119      0.1561
     52  C          8.4790    5.9570   15.7220 C.2   119  VAL119      0.2260
     53  O          8.0170    6.4150   14.6520 O.2   119  VAL119     -0.2867
     54  CB        10.4760    4.7250   14.8890 C.3   119  VAL119      0.0252
     55  CG1       11.4360    5.8130   15.5420 C.3   119  VAL119      0.0019
     56  CG2       11.1890    3.3790   14.7740 C.3   119  VAL119      0.0019
     57  N         12.9770   15.4030   14.5930 N.3   128  PHE128     -0.1227
     58  CA        13.4910   14.1180   14.9840 C.3   128  PHE128      0.1736
     59  C         14.9470   14.1570   15.4410 C.2   128  PHE128      0.2596
     60  O         15.2970   13.5130   16.4370 O.2   128  PHE128     -0.2718
     61  CB        13.2680   13.1070   13.8150 C.3   128  PHE128      0.0547
     62  CG        13.8360   11.7370   14.0720 C.ar  128  PHE128     -0.0202
     63  CD1       13.0810   10.8240   14.7550 C.ar  128  PHE128     -0.0042
     64  CD2       15.1210   11.3650   13.6790 C.ar  128  PHE128     -0.0042
     65  CE1       13.5360    9.5150   15.0060 C.ar  128  PHE128     -0.0003
     66  CE2       15.5810   10.0620   13.9340 C.ar  128  PHE128     -0.0003
     67  CZ        14.7830    9.1810   14.5970 C.ar  128  PHE128     -0.0000
     68  N         15.7980   14.9050   14.6990 N.am  129  GLY129     -0.1957
     69  CA        17.1850   14.9700   15.0480 C.3   129  GLY129      0.1869
     70  C         17.4200   15.6230   16.4270 C.2   129  GLY129      0.2309
     71  O         18.3650   15.2170   17.1260 O.2   129  GLY129     -0.2863
     72  N         16.2210   12.8000   19.2230 N.3   132  VAL132     -0.1245
     73  CA        17.1110   11.6680   19.5850 C.3   132  VAL132      0.1561
     74  C         18.1720   12.0550   20.6040 C.2   132  VAL132      0.2260
     75  O         18.8960   11.1610   21.1160 O.2   132  VAL132     -0.2867
     76  CB        17.7540   10.9720   18.3800 C.3   132  VAL132      0.0252
     77  CG1       16.7480   10.3400   17.4480 C.3   132  VAL132      0.0019
     78  CG2       18.7060   11.9400   17.6330 C.3   132  VAL132      0.0019
     79  N          9.2010    3.9010   20.9490 N.3   140  VAL140     -0.1245
     80  CA         9.1710    2.8720   19.9530 C.3   140  VAL140      0.1561
     81  C          8.1920    1.8120   20.4580 C.2   140  VAL140      0.2260
     82  O          8.3210    1.2780   21.5900 O.2   140  VAL140     -0.2867
     83  CB        10.5600    2.2160   19.6230 C.3   140  VAL140      0.0252
     84  CG1       10.3680    1.1370   18.4960 C.3   140  VAL140      0.0019
     85  CG2       11.4940    3.3190   19.1330 C.3   140  VAL140      0.0019
     86  N         18.1220    3.3100   21.1090 N.3   195  LEU195     -0.1231
     87  CA        18.0770    2.7860   19.7520 C.3   195  LEU195      0.1693
     88  C         18.8200    1.4290   19.7860 C.2   195  LEU195      0.2593
     89  O         19.8710    1.2860   20.4520 O.2   195  LEU195     -0.2718
     90  CB        18.8380    3.7160   18.8020 C.3   195  LEU195      0.0284
     91  CG        18.3570    5.1360   18.8130 C.3   195  LEU195      0.0019
     92  CD1       19.1540    5.9120   17.7450 C.3   195  LEU195      0.0001
     93  CD2       16.8970    5.2440   18.4400 C.3   195  LEU195      0.0001
     94  N         18.3660    0.4640   18.9770 N.am  196  THR196     -0.1939
     95  CA        19.0630   -0.8410   18.9510 C.3   196  THR196      0.2028
     96  C         20.0900   -0.9450   17.8320 C.2   196  THR196      0.2643
     97  O         20.6800   -2.0210   17.6650 O.2   196  THR196     -0.2714
     98  CB        18.0710   -2.0140   18.8640 C.3   196  THR196      0.1808
     99  OG1       17.4420   -1.9680   17.5690 O.3   196  THR196     -0.2208
    100  CG2       17.0300   -1.9730   19.9910 C.3   196  THR196      0.0379
    101  N         20.3030    0.1160   17.0240 N.am  197  THR197     -0.1937
    102  CA        21.3440    0.1410   16.0300 C.3   197  THR197      0.2013
    103  C         22.1700    1.4170   16.2990 C.2   197  THR197      0.2484
    104  O         21.6650    2.3980   16.8480 O.2   197  THR197     -0.2729
    105  CB        20.7790    0.2210   14.5830 C.3   197  THR197      0.1807
    106  OG1       19.7360    1.2270   14.5320 O.3   197  THR197     -0.2208
    107  CG2       20.1990   -1.1190   14.2060 C.3   197  THR197      0.0379
    108  N         23.4480    1.3910   15.8920 N.am  198  PRO198     -0.2715
    109  CA        24.3220    2.5780   15.9880 C.3   198  PRO198      0.1521
    110  C         23.5450    3.7830   15.3940 C.2   198  PRO198      0.2440
    111  O         23.0030    3.6820   14.2900 O.2   198  PRO198     -0.2731
    112  CB        25.5020    2.1710   15.1390 C.3   198  PRO198      0.0310
    113  CG        25.6090    0.6860   15.4060 C.3   198  PRO198      0.0237
    114  CD        24.1660    0.1980   15.3560 C.3   198  PRO198      0.0939
    115  N         23.5310    4.9260   16.0910 N.am  199  PRO199     -0.2727
    116  CA        24.4750    5.2630   17.2130 C.3   199  PRO199      0.1402
    117  C         23.9820    4.8790   18.6270 C.2   199  PRO199      0.2269
    118  O         24.6310    5.3560   19.5940 O.2   199  PRO199     -0.2865
    119  CB        24.6000    6.8030   17.0590 C.3   199  PRO199      0.0296
    120  CG        23.1840    7.2130   16.4780 C.3   199  PRO199      0.0237
    121  CD        22.8570    6.1200   15.4960 C.3   199  PRO199      0.0939
    122  N         21.6540    5.6070   20.6620 N.3   201  LEU201     -0.1245
    123  CA        21.3880    6.7440   21.5710 C.3   201  LEU201      0.1561
    124  C         20.3900    6.3280   22.6070 C.2   201  LEU201      0.2260
    125  O         19.3560    5.6540   22.2870 O.2   201  LEU201     -0.2867
    126  CB        20.8550    7.9170   20.7390 C.3   201  LEU201      0.0270
    127  CG        21.9210    8.4890   19.7570 C.3   201  LEU201      0.0019
    128  CD1       21.2770    9.5130   18.8290 C.3   201  LEU201      0.0001
    129  CD2       23.1020    9.1530   20.4870 C.3   201  LEU201      0.0001
    130  N         15.0530    6.4350   24.1350 N.3   204  VAL204     -0.1245
    131  CA        13.7840    5.7500   23.8010 C.3   204  VAL204      0.1561
    132  C         13.0050    5.3050   25.0260 C.2   204  VAL204      0.2260
    133  O         13.5670    4.6910   25.9500 O.2   204  VAL204     -0.2867
    134  CB        14.0480    4.4740   22.9380 C.3   204  VAL204      0.0252
    135  CG1       12.7400    3.7240   22.5910 C.3   204  VAL204      0.0019
    136  CG2       14.8820    4.7980   21.6470 C.3   204  VAL204      0.0019
    137  N         10.5880    2.5140   25.5370 N.3   206  TRP206     -0.1241
    138  CA        10.1320    1.3140   24.8680 C.3   206  TRP206      0.1605
    139  C          8.7860    0.9080   25.3840 C.2   206  TRP206      0.2264
    140  O          8.5270    0.8520   26.5920 O.2   206  TRP206     -0.2867
    141  CB        11.1500    0.1500   25.1190 C.3   206  TRP206      0.0550
    142  CG        12.2520    0.2390   24.1120 C.ar  206  TRP206      0.0003
    143  CD1       13.5140    0.8090   24.2650 C.ar  206  TRP206      0.0946
    144  CD2       12.1990   -0.1780   22.7170 C.ar  206  TRP206      0.0152
    145  NE1       14.2210    0.7810   23.0810 N.ar  206  TRP206     -0.2442
    146  CE2       13.4290    0.1680   22.1240 C.ar  206  TRP206      0.0810
    147  CE3       11.2260   -0.8560   21.9590 C.ar  206  TRP206      0.0012
    148  CZ2       13.7160   -0.1250   20.7910 C.ar  206  TRP206      0.0191
    149  CZ3       11.5350   -1.1820   20.6320 C.ar  206  TRP206      0.0001
    150  CH2       12.7750   -0.7740   20.0470 C.ar  206  TRP206      0.0015
@<TRIPOS>BOND
     1     1     2    1
     2     2     3    1
     3     2     5    1
     4     3     4    2
     5     8    10   ar
     6     8     6   ar
     7     5     6    1
     8    10     9   ar
     9     6     7   ar
    10    15    12    1
    11    15    16    1
    12     9     7   ar
    13    24    21    1
    14    24    25    1
    15    12    13    1
    16    12    11    1
    17    21    20    1
    18    21    22    1
    19    16    17    1
    20    18    17    2
    21    13    14    2
    22    22    23    2
    23    17    19   am
    24    25    26   ar
    25    25    27   ar
    26    26    28   ar
    27    27    29   ar
    28    30    31    1
    29    32    31    1
    30    32    33    2
    31    31    34    1
    32    28    29   ar
    33    64    66   ar
    34    64    62   ar
    35    43    42    2
    36    61    62    1
    37    61    58    1
    38    66    67   ar
    39    34    35    1
    40    36    35   ar
    41    36    38   ar
    42    62    63   ar
    43   107   105    1
    44   111   110    2
    45    35    37   ar
    46    38    39   ar
    47   106   105    1
    48   105   102    1
    49    57    58    1
    50    67    65   ar
    51    53    52    2
    52    37    39   ar
    53    68    69    1
    54    68    59   am
    55    63    65   ar
    56    56    54    1
    57    40    41    1
    58    42    41    1
    59    54    55    1
    60    54    51    1
    61    58    59    1
    62    69    70    1
    63    50    51    1
    64   112   113    1
    65   112   109    1
    66   114   113    1
    67   114   108    1
    68   110   109    1
    69   110   115   am
    70    59    60    2
    71   121   115    1
    72   121   120    1
    73    41    44    1
    74    44    45    1
    75    51    52    1
    76   108   109    1
    77   108   103   am
    78   102   103    1
    79   102   101    1
    80   115   116    1
    81   103   104    2
    82    70    71    2
    83   120   119    1
    84    46    45   ar
    85    46    48   ar
    86    45    47   ar
    87   101    96   am
    88   119   116    1
    89   116   117    1
    90    77    76    1
    91    48    49   ar
    92    47    49   ar
    93    99    98    1
    94    78    76    1
    95    97    96    2
    96    92    91    1
    97    96    95    1
    98    76    73    1
    99    93    91    1
   100    84    83    1
   101   117   118    2
   102    90    91    1
   103    90    87    1
   104   128   127    1
   105    98    95    1
   106    98   100    1
   107    95    94    1
   108    94    88   am
   109    85    83    1
   110    72    73    1
   111    73    74    1
   112    83    80    1
   113    87    88    1
   114    87    86    1
   115   127   129    1
   116   127   126    1
   117    88    89    2
   118    80    81    1
   119    80    79    1
   120   150   149   ar
   121   150   148   ar
   122    81    82    2
   123    74    75    2
   124   149   147   ar
   125   122   123    1
   126   126   123    1
   127   148   146   ar
   128   123   124    1
   129   136   134    1
   130   147   144   ar
   131   146   144   ar
   132   146   145   ar
   133   125   124    2
   134   135   134    1
   135   144   142   ar
   136   134   131    1
   137   145   143   ar
   138   131   130    1
   139   131   132    1
   140   142   143   ar
   141   142   141    1
   142   138   141    1
   143   138   139    1
   144   138   137    1
   145   132   133    2
   146   139   140    2
