@<TRIPOS>MOLECULE
tmp/3rz1A00.pdb
 143 140 0 0 0
SMALL
GASTEIGER

@<TRIPOS>ATOM
      1  N         20.3590   -2.2540    6.3630 N.3    61  HIS61      -0.1241
      2  CA        20.2410   -3.0140    7.6590 C.3    61  HIS61       0.1621
      3  C         18.8400   -3.5150    7.8580 C.2    61  HIS61       0.2264
      4  O         18.6810   -4.5500    8.4680 O.2    61  HIS61      -0.2867
      5  CB        20.7380   -2.3120    8.9780 C.3    61  HIS61       0.0745
      6  CG        20.4540   -0.8480    9.0800 C.ar   61  HIS61       0.0817
      7  ND1       19.4030   -0.3280    9.8210 N.ar   61  HIS61      -0.2268
      8  CD2       21.1260    0.2170    8.5720 C.ar   61  HIS61       0.1154
      9  CE1       19.4390    0.9940    9.7530 C.ar   61  HIS61       0.1986
     10  NE2       20.4620    1.3450    8.9870 N.ar   61  HIS61      -0.2212
     11  N          8.4730    6.1920   11.1360 N.3    89  GLN89      -0.1245
     12  CA         8.7530    5.0380   10.2690 C.3    89  GLN89       0.1566
     13  C          8.5160    3.8120   11.0740 C.2    89  GLN89       0.2260
     14  O          8.4610    3.8550   12.3030 O.2    89  GLN89      -0.2867
     15  CB        10.1980    5.0290    9.7060 C.3    89  GLN89       0.0367
     16  CG        11.2720    5.1790   10.8390 C.3    89  GLN89       0.0905
     17  CD        11.9830    3.8900   11.1900 C.2    89  GLN89       0.2608
     18  OE1       11.4600    2.7820   11.0420 O.2    89  GLN89      -0.2717
     19  NE2       13.2230    4.0450   11.6970 N.am   89  GLN89      -0.0878
     20  N          9.8960   -0.4740   10.9300 N.3    91  HIS91      -0.1241
     21  CA        10.7840   -1.4960   10.2830 C.3    91  HIS91       0.1621
     22  C         10.7090   -2.7240   11.1520 C.2    91  HIS91       0.2264
     23  O         10.0480   -2.7270   12.2230 O.2    91  HIS91      -0.2867
     24  CB        12.2300   -0.9610   10.2250 C.3    91  HIS91       0.0745
     25  CG        12.7670   -0.6700   11.6110 C.ar   91  HIS91       0.0817
     26  ND1       12.5590    0.5320   12.2420 N.ar   91  HIS91      -0.2268
     27  CD2       13.3980   -1.4800   12.5140 C.ar   91  HIS91       0.1154
     28  CE1       13.1040    0.4850   13.4530 C.ar   91  HIS91       0.1986
     29  NE2       13.5900   -0.7500   13.6530 N.ar   91  HIS91      -0.2212
     30  N         12.9840   -6.4460   12.5230 N.3    93  HIS93      -0.1241
     31  CA        14.2050   -7.2400   12.6900 C.3    93  HIS93       0.1621
     32  C         13.7660   -8.6780   12.6260 C.2    93  HIS93       0.2264
     33  O         12.6800   -9.0440   13.1260 O.2    93  HIS93      -0.2867
     34  CB        14.8620   -6.9970   14.0340 C.3    93  HIS93       0.0745
     35  CG        15.1220   -5.5450   14.3280 C.ar   93  HIS93       0.0817
     36  ND1       16.3610   -4.9820   14.0990 N.ar   93  HIS93      -0.2268
     37  CD2       14.3110   -4.5230   14.7270 C.ar   93  HIS93       0.1154
     38  CE1       16.3260   -3.6690   14.3970 C.ar   93  HIS93       0.1986
     39  NE2       15.0840   -3.3450   14.7420 N.ar   93  HIS93      -0.2212
     40  N          9.0750   -2.5940   14.8360 N.3   116  HIS116     -0.1241
     41  CA         9.2440   -1.3540   15.5990 C.3   116  HIS116      0.1621
     42  C          8.5900   -0.2020   14.8730 C.2   116  HIS116      0.2264
     43  O          9.0260    0.1580   13.7760 O.2   116  HIS116     -0.2867
     44  CB        10.7710   -1.0810   15.7060 C.3   116  HIS116      0.0745
     45  CG        11.4760   -2.0680   16.6000 C.ar  116  HIS116      0.0817
     46  ND1       12.8550   -2.3050   16.6070 N.ar  116  HIS116     -0.2268
     47  CD2       10.9380   -2.9030   17.5380 C.ar  116  HIS116      0.1154
     48  CE1       13.1140   -3.2330   17.5380 C.ar  116  HIS116      0.1986
     49  NE2       11.9830   -3.5830   18.1310 N.ar  116  HIS116     -0.2212
     50  N          8.2740    3.5870   15.1290 N.3   118  VAL118     -0.1245
     51  CA         9.1150    4.6120   15.7410 C.3   118  VAL118      0.1561
     52  C          8.4450    5.9660   15.7740 C.2   118  VAL118      0.2260
     53  O          7.9740    6.4110   14.7180 O.2   118  VAL118     -0.2867
     54  CB        10.4780    4.7250   14.9600 C.3   118  VAL118      0.0252
     55  CG1       11.4120    5.7600   15.6570 C.3   118  VAL118      0.0019
     56  CG2       11.2030    3.3350   14.8260 C.3   118  VAL118      0.0019
     57  N         12.9660   15.3590   14.6270 N.3   127  PHE127     -0.1227
     58  CA        13.4880   14.0630   15.0280 C.3   127  PHE127      0.1736
     59  C         14.9420   14.1160   15.4830 C.2   127  PHE127      0.2596
     60  O         15.3150   13.5010   16.4930 O.2   127  PHE127     -0.2718
     61  CB        13.2800   13.0530   13.8850 C.3   127  PHE127      0.0547
     62  CG        13.8050   11.7280   14.1810 C.ar  127  PHE127     -0.0202
     63  CD1       12.9970   10.8150   14.8150 C.ar  127  PHE127     -0.0042
     64  CD2       15.0630   11.3300   13.7480 C.ar  127  PHE127     -0.0042
     65  CE1       13.4700    9.5190   15.0980 C.ar  127  PHE127     -0.0003
     66  CE2       15.5260   10.0410   14.0270 C.ar  127  PHE127     -0.0003
     67  CZ        14.7160    9.1340   14.6750 C.ar  127  PHE127     -0.0000
     68  N         15.7970   14.8750   14.7440 N.am  128  GLY128     -0.1957
     69  CA        17.1870   14.9690   15.1060 C.3   128  GLY128      0.1869
     70  C         17.4110   15.5980   16.4910 C.2   128  GLY128      0.2309
     71  O         18.3330   15.2340   17.2090 O.2   128  GLY128     -0.2863
     72  N         16.1580   12.8090   19.2900 N.3   131  VAL131     -0.1245
     73  CA        17.0410   11.6600   19.6840 C.3   131  VAL131      0.1561
     74  C         18.1480   12.0740   20.6780 C.2   131  VAL131      0.2260
     75  O         18.8470   11.1910   21.1920 O.2   131  VAL131     -0.2867
     76  CB        17.7350   10.9760   18.4860 C.3   131  VAL131      0.0252
     77  CG1       16.7170   10.3920   17.5180 C.3   131  VAL131      0.0019
     78  CG2       18.6420   11.9350   17.7240 C.3   131  VAL131      0.0019
     79  N          9.2040    3.8500   21.0490 N.3   139  VAL139     -0.1245
     80  CA         9.1440    2.8130   20.0310 C.3   139  VAL139      0.1561
     81  C          8.1500    1.7330   20.5270 C.2   139  VAL139      0.2260
     82  O          8.2720    1.2570   21.6350 O.2   139  VAL139     -0.2867
     83  CB        10.5380    2.1810   19.6750 C.3   139  VAL139      0.0252
     84  CG1       10.3360    1.1580   18.5080 C.3   139  VAL139      0.0019
     85  CG2       11.4710    3.3180   19.2000 C.3   139  VAL139      0.0019
     86  N         18.0890    3.2720   21.1880 N.3   194  LEU194     -0.1231
     87  CA        18.0170    2.7420   19.8130 C.3   194  LEU194      0.1693
     88  C         18.7750    1.3910   19.8520 C.2   194  LEU194      0.2593
     89  O         19.8310    1.2600   20.5170 O.2   194  LEU194     -0.2718
     90  CB        18.8020    3.6640   18.8810 C.3   194  LEU194      0.0284
     91  CG        18.3170    5.0940   18.8580 C.3   194  LEU194      0.0019
     92  CD1       19.1560    5.8650   17.7780 C.3   194  LEU194      0.0001
     93  CD2       16.7460    5.2200   18.5020 C.3   194  LEU194      0.0001
     94  N         18.3410    0.4240   19.0340 N.am  195  THR195     -0.1939
     95  CA        19.0240   -0.8780   19.0260 C.3   195  THR195      0.2028
     96  C         20.0060   -0.9920   17.8690 C.2   195  THR195      0.2643
     97  O         20.6180   -2.0660   17.7250 O.2   195  THR195     -0.2714
     98  CB        18.0310   -2.0340   18.9260 C.3   195  THR195      0.1808
     99  OG1       17.3890   -1.9870   17.6310 O.3   195  THR195     -0.2208
    100  CG2       16.9980   -2.0040   20.0640 C.3   195  THR195      0.0379
    101  N         20.2050    0.0800   17.0820 N.am  196  THR196     -0.1937
    102  CA        21.2910    0.1230   16.0920 C.3   196  THR196      0.2013
    103  C         22.1000    1.3740   16.3590 C.2   196  THR196      0.2484
    104  O         21.5930    2.3490   16.9030 O.2   196  THR196     -0.2729
    105  CB        20.7470    0.1890   14.6450 C.3   196  THR196      0.1807
    106  OG1       19.7370    1.2430   14.5200 O.3   196  THR196     -0.2208
    107  CG2       20.1170   -1.1170   14.2160 C.3   196  THR196      0.0379
    108  N         23.3960    1.3620   15.9680 N.am  197  PRO197     -0.2715
    109  CA        24.2070    2.5620   16.0510 C.3   197  PRO197      0.1521
    110  C         23.4380    3.7530   15.4700 C.2   197  PRO197      0.2440
    111  O         22.8710    3.6790   14.3740 O.2   197  PRO197     -0.2731
    112  CB        25.4560    2.1960   15.2180 C.3   197  PRO197      0.0310
    113  CG        25.5930    0.6650   15.4500 C.3   197  PRO197      0.0237
    114  CD        24.1120    0.1990   15.3870 C.3   197  PRO197      0.0939
    115  N         23.4640    4.9000   16.1490 N.am  198  PRO198     -0.2727
    116  CA        24.3810    5.2600   17.2700 C.3   198  PRO198      0.1402
    117  C         23.9190    4.8590   18.6820 C.2   198  PRO198      0.2269
    118  O         24.5290    5.3350   19.6350 O.2   198  PRO198     -0.2865
    119  CB        24.4290    6.8030   17.1520 C.3   198  PRO198      0.0296
    120  CG        23.0380    7.1880   16.5880 C.3   198  PRO198      0.0237
    121  CD        22.7420    6.0860   15.5810 C.3   198  PRO198      0.0939
    122  N         21.6040    5.5900   20.7220 N.3   200  LEU200     -0.1245
    123  CA        21.3000    6.7070   21.6120 C.3   200  LEU200      0.1561
    124  C         20.3050    6.3240   22.6860 C.2   200  LEU200      0.2260
    125  O         19.3210    5.6100   22.3880 O.2   200  LEU200     -0.2867
    126  CB        20.7750    7.9100   20.8200 C.3   200  LEU200      0.0270
    127  CG        21.8820    8.4150   19.8880 C.3   200  LEU200      0.0019
    128  CD1       21.2730    9.5000   18.9400 C.3   200  LEU200      0.0001
    129  CD2       23.0340    9.0750   20.6450 C.3   200  LEU200      0.0001
    130  N         10.5790    2.4530   25.5890 N.3   205  TRP205     -0.1241
    131  CA        10.0990    1.2630   24.9220 C.3   205  TRP205      0.1605
    132  C          8.7350    0.8640   25.4360 C.2   205  TRP205      0.2264
    133  O          8.5110    0.8000   26.6550 O.2   205  TRP205     -0.2867
    134  CB        11.1310    0.0800   25.1710 C.3   205  TRP205      0.0550
    135  CG        12.2370    0.2130   24.1590 C.ar  205  TRP205      0.0003
    136  CD1       13.4830    0.7840   24.3060 C.ar  205  TRP205      0.0946
    137  CD2       12.1620   -0.2200   22.7880 C.ar  205  TRP205      0.0152
    138  NE1       14.1790    0.7630   23.1260 N.ar  205  TRP205     -0.2442
    139  CE2       13.4070    0.1290   22.1670 C.ar  205  TRP205      0.0810
    140  CE3       11.1790   -0.8850   22.0320 C.ar  205  TRP205      0.0012
    141  CZ2       13.6520   -0.1470   20.7920 C.ar  205  TRP205      0.0191
    142  CZ3       11.4340   -1.2090   20.7230 C.ar  205  TRP205      0.0001
    143  CH2       12.6610   -0.8310   20.0910 C.ar  205  TRP205      0.0015
@<TRIPOS>BOND
     1     1     2    1
     2     2     3    1
     3     2     5    1
     4     3     4    2
     5     8    10   ar
     6     8     6   ar
     7     5     6    1
     8    10     9   ar
     9     6     7   ar
    10    15    12    1
    11    15    16    1
    12     9     7   ar
    13    24    21    1
    14    24    25    1
    15    12    13    1
    16    12    11    1
    17    21    20    1
    18    21    22    1
    19    16    17    1
    20    18    17    2
    21    13    14    2
    22    22    23    2
    23    17    19   am
    24    25    26   ar
    25    25    27   ar
    26    26    28   ar
    27    27    29   ar
    28    30    31    1
    29    32    31    1
    30    32    33    2
    31    31    34    1
    32    28    29   ar
    33    64    66   ar
    34    64    62   ar
    35    43    42    2
    36    61    62    1
    37    61    58    1
    38    66    67   ar
    39    34    35    1
    40    36    35   ar
    41    36    38   ar
    42    62    63   ar
    43   107   105    1
    44    35    37   ar
    45   111   110    2
    46    38    39   ar
    47   106   105    1
    48    57    58    1
    49   105   102    1
    50    67    65   ar
    51    53    52    2
    52    37    39   ar
    53    68    69    1
    54    68    59   am
    55    63    65   ar
    56    56    54    1
    57    40    41    1
    58    42    41    1
    59    54    55    1
    60    54    51    1
    61    58    59    1
    62    69    70    1
    63    50    51    1
    64   112   113    1
    65   112   109    1
    66   114   113    1
    67   114   108    1
    68   110   109    1
    69   110   115   am
    70    59    60    2
    71   121   115    1
    72   121   120    1
    73    41    44    1
    74    44    45    1
    75    51    52    1
    76   108   109    1
    77   108   103   am
    78   102   103    1
    79   102   101    1
    80   115   116    1
    81   103   104    2
    82    70    71    2
    83   120   119    1
    84    45    46   ar
    85    45    47   ar
    86    46    48   ar
    87   101    96   am
    88   119   116    1
    89   116   117    1
    90    77    76    1
    91    47    49   ar
    92    48    49   ar
    93    99    98    1
    94    78    76    1
    95    97    96    2
    96    92    91    1
    97    96    95    1
    98    76    73    1
    99    93    91    1
   100    84    83    1
   101   117   118    2
   102    91    90    1
   103    90    87    1
   104    98    95    1
   105    98   100    1
   106   128   127    1
   107    95    94    1
   108    94    88   am
   109    85    83    1
   110    72    73    1
   111    83    80    1
   112    73    74    1
   113    87    88    1
   114    87    86    1
   115    88    89    2
   116   127   129    1
   117   127   126    1
   118    80    81    1
   119    80    79    1
   120   143   142   ar
   121   143   141   ar
   122    81    82    2
   123    74    75    2
   124   122   123    1
   125   142   140   ar
   126   141   139   ar
   127   126   123    1
   128   123   124    1
   129   140   137   ar
   130   139   137   ar
   131   139   138   ar
   132   125   124    2
   133   137   135   ar
   134   138   136   ar
   135   135   136   ar
   136   135   134    1
   137   131   134    1
   138   131   132    1
   139   131   130    1
   140   132   133    2
