@<TRIPOS>MOLECULE
tmp/3rz2A00.pdb
 138 136 0 0 0
SMALL
GASTEIGER

@<TRIPOS>ATOM
      1  N        -21.4970   11.2470  -27.9280 N.3    39  ARG39      -0.1245
      2  CA       -21.2030   12.2530  -26.9180 C.3    39  ARG39       0.1563
      3  C        -19.7000   12.1630  -26.6820 C.2    39  ARG39       0.2260
      4  O        -19.2070   11.1740  -26.1420 O.2    39  ARG39      -0.2867
      5  CB       -21.9530   11.9560  -25.6150 C.3    39  ARG39       0.0307
      6  CG       -23.4490   11.7500  -25.7790 C.3    39  ARG39       0.0489
      7  CD       -24.2390   11.9970  -24.4840 C.3    39  ARG39       0.2205
      8  NE       -24.0830   10.9500  -23.4710 N.pl3  39  ARG39      -0.0865
      9  CZ       -24.7450   10.9210  -22.3120 C.cat  39  ARG39       0.5346
     10  NH1      -25.6060   11.8810  -22.0140 N.pl3  39  ARG39       0.1354
     11  NH2      -24.5580    9.9280  -21.4510 N.pl3  39  ARG39       0.1354
     12  N        -21.0450   13.7910  -20.0060 N.3    43  ALA43      -0.1245
     13  CA       -22.4430   13.3700  -20.1350 C.3    43  ALA43       0.1562
     14  C        -23.3070   13.9810  -19.0350 C.2    43  ALA43       0.2260
     15  O        -23.0880   13.7370  -17.8480 O.2    43  ALA43      -0.2867
     16  CB       -22.5370   11.8540  -20.0870 C.3    43  ALA43       0.0290
     17  N        -26.9540   13.8050  -18.7450 N.3    45  TYR45      -0.1227
     18  CA       -28.3460   13.4080  -18.8330 C.3    45  TYR45       0.1736
     19  C        -28.5630   11.9210  -19.0570 C.2    45  TYR45       0.2595
     20  O        -27.6580   11.1980  -19.4750 O.2    45  TYR45      -0.2718
     21  CB       -29.0660   14.2190  -19.9260 C.3    45  TYR45       0.0548
     22  CG       -28.4630   14.1210  -21.3150 C.ar   45  TYR45      -0.0200
     23  CD1      -28.5640   12.9470  -22.0680 C.ar   45  TYR45      -0.0009
     24  CD2      -27.7970   15.2090  -21.8820 C.ar   45  TYR45      -0.0009
     25  CE1      -28.0190   12.8610  -23.3510 C.ar   45  TYR45       0.0417
     26  CE2      -27.2470   15.1330  -23.1600 C.ar   45  TYR45       0.0417
     27  CZ       -27.3620   13.9580  -23.8910 C.ar   45  TYR45       0.1957
     28  OH       -26.8270   13.8850  -25.1620 O.3    45  TYR45      -0.2866
     29  N        -29.7820   11.4860  -18.7470 N.am   46  ASP46      -0.1960
     30  CA       -30.2140   10.1030  -18.8970 C.3    46  ASP46       0.1840
     31  C        -30.3810    9.7800  -20.3760 C.2    46  ASP46       0.2623
     32  O        -30.5680   10.6750  -21.2000 O.2    46  ASP46      -0.2715
     33  CB       -31.5510    9.9020  -18.1800 C.3    46  ASP46       0.1450
     34  CG       -32.3260    8.7120  -18.7110 C.2    46  ASP46       0.3671
     35  OD1      -31.9530    7.5630  -18.3870 O.co2  46  ASP46      -0.2456
     36  OD2      -33.3030    8.9330  -19.4630 O.co2  46  ASP46      -0.2456
     37  N        -30.3340    8.4940  -20.7040 N.am   47  THR47      -0.1937
     38  CA       -30.4630    8.0610  -22.0850 C.3    47  THR47       0.2028
     39  C        -31.6420    7.1200  -22.3120 C.2    47  THR47       0.2642
     40  O        -31.9660    6.7950  -23.4520 O.2    47  THR47      -0.2714
     41  CB       -29.1880    7.3520  -22.5320 C.3    47  THR47       0.1808
     42  OG1      -28.9540    6.2220  -21.6860 O.3    47  THR47      -0.2208
     43  CG2      -28.0020    8.2920  -22.4340 C.3    47  THR47       0.0379
     44  N        -32.2890    6.6890  -21.2340 N.am   48  THR48      -0.1950
     45  CA       -33.4130    5.7650  -21.3550 C.3    48  THR48       0.1897
     46  C        -34.5390    6.2990  -22.2310 C.2    48  THR48       0.2313
     47  O        -35.0740    5.5680  -23.0630 O.2    48  THR48      -0.2863
     48  CB       -33.9990    5.3960  -19.9750 C.3    48  THR48       0.1794
     49  OG1      -34.7920    6.4810  -19.4830 O.3    48  THR48      -0.2208
     50  CG2      -32.8750    5.0840  -18.9840 C.3    48  THR48       0.0378
     51  N        -32.9740    6.2900  -25.8910 N.3    51  GLU51      -0.1245
     52  CA       -32.8620    4.9150  -26.3250 C.3    51  GLU51       0.1567
     53  C        -34.2610    4.3380  -26.4360 C.2    51  GLU51       0.2260
     54  O        -34.4990    3.3960  -27.1900 O.2    51  GLU51      -0.2867
     55  CB       -32.0380    4.1290  -25.3090 C.3    51  GLU51       0.0388
     56  CG       -30.5820    4.5800  -25.2180 C.3    51  GLU51       0.1160
     57  CD       -29.7810    4.2300  -26.4600 C.2    51  GLU51       0.3649
     58  OE1      -28.5400    4.3520  -26.4250 O.co2  51  GLU51      -0.2457
     59  OE2      -30.3920    3.8300  -27.4730 O.co2  51  GLU51      -0.2457
     60  N        -29.5870    5.1940  -30.4960 N.3    56  HIS56      -0.1226
     61  CA       -28.4970    4.8400  -29.6060 C.3    56  HIS56       0.1752
     62  C        -27.6090    6.0310  -29.2850 C.2    56  HIS56       0.2596
     63  O        -27.5320    6.9890  -30.0530 O.2    56  HIS56      -0.2718
     64  CB       -27.6300    3.7130  -30.1640 C.3    56  HIS56       0.0759
     65  CG       -26.7190    3.1150  -29.1320 C.ar   56  HIS56       0.0818
     66  ND1      -27.1950    2.4490  -28.0200 N.ar   56  HIS56      -0.2268
     67  CD2      -25.3710    3.1560  -28.9970 C.ar   56  HIS56       0.1154
     68  CE1      -26.1800    2.1090  -27.2460 C.ar   56  HIS56       0.1986
     69  NE2      -25.0620    2.5270  -27.8150 N.ar   56  HIS56      -0.2212
     70  N        -26.9510    5.9680  -28.1330 N.am   57  VAL57      -0.1966
     71  CA       -26.0560    7.0250  -27.7020 C.3    57  VAL57       0.1727
     72  C        -24.7390    6.3960  -27.3080 C.2    57  VAL57       0.2616
     73  O        -24.6490    5.7100  -26.2920 O.2    57  VAL57      -0.2715
     74  CB       -26.6190    7.8000  -26.4890 C.3    57  VAL57       0.0290
     75  CG1      -25.7160    8.9780  -26.1500 C.3    57  VAL57       0.0023
     76  CG2      -28.0280    8.2890  -26.7960 C.3    57  VAL57       0.0023
     77  N        -23.7260    6.6130  -28.1360 N.am   58  LEU58      -0.1963
     78  CA       -22.3950    6.0910  -27.8840 C.3    58  LEU58       0.1728
     79  C        -21.6650    7.1700  -27.1210 C.2    58  LEU58       0.2616
     80  O        -21.8200    8.3480  -27.4260 O.2    58  LEU58      -0.2715
     81  CB       -21.6840    5.8250  -29.2030 C.3    58  LEU58       0.0311
     82  CG       -22.3680    4.7350  -30.0230 C.3    58  LEU58       0.0022
     83  CD1      -22.4880    5.1430  -31.4830 C.3    58  LEU58       0.0001
     84  CD2      -21.5750    3.4470  -29.8470 C.3    58  LEU58       0.0001
     85  N        -20.8730    6.7790  -26.1320 N.am   59  ASP59      -0.1957
     86  CA       -20.1410    7.7560  -25.3480 C.3    59  ASP59       0.1840
     87  C        -18.6390    7.5700  -25.4970 C.2    59  ASP59       0.2622
     88  O        -18.0390    6.7450  -24.8080 O.2    59  ASP59      -0.2715
     89  CB       -20.5420    7.6300  -23.8860 C.3    59  ASP59       0.1450
     90  CG       -22.0230    7.8450  -23.6760 C.2    59  ASP59       0.3671
     91  OD1      -22.4720    8.9950  -23.8330 O.co2  59  ASP59      -0.2456
     92  OD2      -22.7420    6.8690  -23.3670 O.co2  59  ASP59      -0.2456
     93  N        -18.0350    8.3220  -26.4120 N.am   60  TRP60      -0.1960
     94  CA       -16.5960    8.2350  -26.6280 C.3    60  TRP60       0.1756
     95  C        -15.9910    9.6220  -26.4540 C.2    60  TRP60       0.2461
     96  O        -15.8820   10.3880  -27.4050 O.2    60  TRP60      -0.2730
     97  CB       -16.2810    7.7230  -28.0380 C.3    60  TRP60       0.0590
     98  CG       -17.0080    6.4730  -28.4550 C.ar   60  TRP60       0.0006
     99  CD1      -17.3940    5.4390  -27.6610 C.ar   60  TRP60       0.0946
    100  CD2      -17.3810    6.1150  -29.7890 C.ar   60  TRP60       0.0152
    101  NE1      -17.9850    4.4550  -28.4130 N.ar   60  TRP60      -0.2442
    102  CE2      -17.9880    4.8440  -29.7240 C.ar   60  TRP60       0.0810
    103  CE3      -17.2580    6.7480  -31.0340 C.ar   60  TRP60       0.0012
    104  CZ2      -18.4760    4.1870  -30.8630 C.ar   60  TRP60       0.0191
    105  CZ3      -17.7450    6.0940  -32.1690 C.ar   60  TRP60       0.0001
    106  CH2      -18.3450    4.8260  -32.0710 C.ar   60  TRP60       0.0015
    107  N        -15.5740    9.9620  -25.2340 N.am   61  PRO61      -0.2727
    108  CA       -15.0030   11.2930  -25.0670 C.3    61  PRO61       0.1402
    109  C        -13.5320   11.3670  -25.4160 C.2    61  PRO61       0.2269
    110  O        -12.9880   10.5250  -26.1270 O.2    61  PRO61      -0.2865
    111  CB       -15.2310   11.5940  -23.5830 C.3    61  PRO61       0.0296
    112  CG       -16.0720   10.4250  -23.0520 C.3    61  PRO61       0.0237
    113  CD       -15.6950    9.2840  -23.9370 C.3    61  PRO61       0.0939
    114  N         -8.5320    4.2260  -30.9440 N.3    71  GLN71      -0.1231
    115  CA        -9.6920    3.3690  -30.9290 C.3    71  GLN71       0.1698
    116  C        -10.8430    4.2070  -31.4650 C.2    71  GLN71       0.2592
    117  O        -11.4270    3.8890  -32.5080 O.2    71  GLN71      -0.2718
    118  CB        -9.9780    2.9320  -29.4990 C.3    71  GLN71       0.0381
    119  CG       -10.7860    1.6580  -29.3850 C.3    71  GLN71       0.0905
    120  CD       -10.2400    0.5580  -30.2760 C.2    71  GLN71       0.2608
    121  OE1       -9.0310    0.3150  -30.3160 O.2    71  GLN71      -0.2717
    122  NE2      -11.1280   -0.1190  -30.9920 N.am   71  GLN71      -0.0878
    123  N        -11.1360    5.2930  -30.7500 N.am   72  ILE72      -0.1980
    124  CA       -12.2010    6.2380  -31.0940 C.3    72  ILE72       0.1595
    125  C        -12.2830    6.6040  -32.5850 C.2    72  ILE72       0.2287
    126  O        -13.3700    6.8180  -33.1300 O.2    72  ILE72      -0.2864
    127  CB       -12.0480    7.5250  -30.2590 C.3    72  ILE72       0.0276
    128  CG1      -12.3430    7.2050  -28.7950 C.3    72  ILE72       0.0022
    129  CG2      -12.9910    8.6050  -30.7540 C.3    72  ILE72       0.0022
    130  CD1      -12.0400    8.3360  -27.8470 C.3    72  ILE72       0.0001
    131  N        -13.7300    3.1330  -34.4660 N.3    75  ASP75      -0.1239
    132  CA       -15.1750    3.0910  -34.2470 C.3    75  ASP75       0.1674
    133  C        -15.9360    4.1570  -35.0020 C.2    75  ASP75       0.2266
    134  O        -16.9410    3.8650  -35.6540 O.2    75  ASP75      -0.2867
    135  CB       -15.4480    3.2400  -32.7690 C.3    75  ASP75       0.1410
    136  CG       -14.5890    2.3330  -31.9580 C.2    75  ASP75       0.3668
    137  OD1      -13.3630    2.3740  -32.1670 O.co2  75  ASP75      -0.2456
    138  OD2      -15.1240    1.5740  -31.1290 O.co2  75  ASP75      -0.2456
@<TRIPOS>BOND
     1   134   133    2
     2   133   132    1
     3   131   132    1
     4   132   135    1
     5   126   125    2
     6   135   136    1
     7   125   124    1
     8   117   116    2
     9   105   106   ar
    10   105   103   ar
    11   137   136   ar
    12   106   104   ar
    13   136   138   ar
    14    83    82    1
    15   116   115    1
    16   116   123   am
    17   124   123    1
    18   124   127    1
    19   103   100   ar
    20   122   120   am
    21   114   115    1
    22   115   118    1
    23   104   102   ar
    24   129   127    1
    25    60    61    1
    26   121   120    2
    27   120   119    1
    28   127   128    1
    29    64    61    1
    30    64    65    1
    31    63    62    2
    32    82    84    1
    33    82    81    1
    34   100   102   ar
    35   100    98   ar
    36   102   101   ar
    37    61    62    1
    38   118   119    1
    39    62    70   am
    40    81    78    1
    41    65    67   ar
    42    65    66   ar
    43    67    69   ar
    44   128   130    1
    45    98    97    1
    46    98    99   ar
    47   101    99   ar
    48    77    78    1
    49    77    72   am
    50    70    71    1
    51    97    94    1
    52    66    68   ar
    53     1     2    1
    54    78    79    1
    55    69    68   ar
    56    71    72    1
    57    71    74    1
    58    59    57   ar
    59    80    79    2
    60    96    95    2
    61    72    73    2
    62    54    53    2
    63    79    85   am
    64     2     3    1
    65     2     5    1
    66    76    74    1
    67     3     4    2
    68    94    95    1
    69    94    93    1
    70    74    75    1
    71    57    58   ar
    72    57    56    1
    73    95   107   am
    74    53    52    1
    75    93    87   am
    76    52    51    1
    77    52    55    1
    78    85    86    1
    79   110   109    2
    80     6     5    1
    81     6     7    1
    82    87    86    1
    83    87    88    2
    84   109   108    1
    85    86    89    1
    86    55    56    1
    87   107   108    1
    88   107   113    1
    89    28    27    1
    90   108   111    1
    91     7     8    1
    92   113   112    1
    93    27    25   ar
    94    27    26   ar
    95    89    90    1
    96    91    90   ar
    97    90    92   ar
    98   111   112    1
    99     8     9    2
   100    40    39    2
   101    25    23   ar
   102    26    24   ar
   103    47    46    2
   104    41    43    1
   105    41    38    1
   106    41    42    1
   107    39    38    1
   108    39    44   am
   109     9    10    1
   110     9    11    1
   111    46    45    1
   112    38    37    1
   113    23    22   ar
   114    24    22   ar
   115    45    44    1
   116    45    48    1
   117    22    21    1
   118    32    31    2
   119    37    31   am
   120    31    30    1
   121    13    16    1
   122    13    12    1
   123    13    14    1
   124    48    49    1
   125    48    50    1
   126    21    18    1
   127    20    19    2
   128    36    34   ar
   129    19    18    1
   130    19    29   am
   131    14    15    2
   132    30    29    1
   133    30    33    1
   134    18    17    1
   135    34    35   ar
   136    34    33    1
