@<TRIPOS>MOLECULE
tmp/3rz5A00.pdb
 133 130 0 0 0
SMALL
GASTEIGER

@<TRIPOS>ATOM
      1  N          8.5530    6.2590   11.1670 N.3    90  GLN90      -0.1245
      2  CA         8.8060    5.1080   10.2990 C.3    90  GLN90       0.1566
      3  C          8.5720    3.8600   11.0860 C.2    90  GLN90       0.2260
      4  O          8.5190    3.9000   12.2980 O.2    90  GLN90      -0.2867
      5  CB        10.2950    5.1070    9.7800 C.3    90  GLN90       0.0367
      6  CG        11.4100    5.2700   10.9050 C.3    90  GLN90       0.0905
      7  CD        12.1120    3.9460   11.2630 C.2    90  GLN90       0.2608
      8  OE1       11.5510    2.8290   11.0650 O.2    90  GLN90      -0.2717
      9  NE2       13.3660    4.0490   11.7340 N.am   90  GLN90      -0.0878
     10  N          9.9740   -0.4640   10.9290 N.3    92  HIS92      -0.1241
     11  CA        10.8550   -1.4750   10.2720 C.3    92  HIS92       0.1621
     12  C         10.7380   -2.7340   11.1450 C.2    92  HIS92       0.2264
     13  O         10.0880   -2.7350   12.2310 O.2    92  HIS92      -0.2867
     14  CB        12.2860   -0.9500   10.2510 C.3    92  HIS92       0.0745
     15  CG        12.8000   -0.6640   11.6370 C.ar   92  HIS92       0.0817
     16  ND1       12.6110    0.5510   12.2560 N.ar   92  HIS92      -0.2268
     17  CD2       13.4320   -1.4560   12.5300 C.ar   92  HIS92       0.1154
     18  CE1       13.1410    0.5130   13.4690 C.ar   92  HIS92       0.1986
     19  NE2       13.6210   -0.7120   13.6740 N.ar   92  HIS92      -0.2212
     20  N         13.0310   -6.4460   12.5570 N.3    94  HIS94      -0.1241
     21  CA        14.2880   -7.2280   12.6910 C.3    94  HIS94       0.1621
     22  C         13.8270   -8.6560   12.5780 C.2    94  HIS94       0.2264
     23  O         12.7610   -9.0020   13.0760 O.2    94  HIS94      -0.2867
     24  CB        14.9230   -6.9840   14.0500 C.3    94  HIS94       0.0745
     25  CG        15.1610   -5.5210   14.3270 C.ar   94  HIS94       0.0817
     26  ND1       16.3700   -4.9050   14.0530 N.ar   94  HIS94      -0.2268
     27  CD2       14.3170   -4.5460   14.7540 C.ar   94  HIS94       0.1154
     28  CE1       16.2880   -3.6230   14.4180 C.ar   94  HIS94       0.1986
     29  NE2       15.0350   -3.3700   14.7840 N.ar   94  HIS94      -0.2212
     30  N          9.0780   -2.5570   14.8300 N.3   117  HIS117     -0.1241
     31  CA         9.3710   -1.3390   15.5870 C.3   117  HIS117      0.1621
     32  C          8.6950   -0.2080   14.8660 C.2   117  HIS117      0.2264
     33  O          9.1130    0.1820   13.7700 O.2   117  HIS117     -0.2867
     34  CB        10.9230   -1.1440   15.6350 C.3   117  HIS117      0.0745
     35  CG        11.5600   -2.0750   16.6130 C.ar  117  HIS117      0.0817
     36  ND1       12.9110   -2.3700   16.6470 N.ar  117  HIS117     -0.2268
     37  CD2       10.9700   -2.9010   17.5270 C.ar  117  HIS117      0.1154
     38  CE1       13.1370   -3.2830   17.5800 C.ar  117  HIS117      0.1986
     39  NE2       11.9880   -3.5780   18.1660 N.ar  117  HIS117     -0.2212
     40  N          8.2810    3.6230   15.1490 N.3   119  VAL119     -0.1245
     41  CA         9.1810    4.6130   15.7950 C.3   119  VAL119      0.1561
     42  C          8.4840    5.9630   15.8260 C.2   119  VAL119      0.2260
     43  O          8.0430    6.4510   14.7500 O.2   119  VAL119     -0.2867
     44  CB        10.4850    4.7750   15.0010 C.3   119  VAL119      0.0252
     45  CG1       11.4720    5.7810   15.7000 C.3   119  VAL119      0.0019
     46  CG2       11.2200    3.3860   14.7930 C.3   119  VAL119      0.0019
     47  N         13.0210   15.3570   14.7340 N.3   128  PHE128     -0.1227
     48  CA        13.4980   14.0690   15.0940 C.3   128  PHE128      0.1736
     49  C         14.9490   14.1260   15.5190 C.2   128  PHE128      0.2596
     50  O         15.3330   13.4730   16.5170 O.2   128  PHE128     -0.2718
     51  CB        13.2970   13.0730   13.9200 C.3   128  PHE128      0.0547
     52  CG        13.8430   11.7210   14.1940 C.ar  128  PHE128     -0.0202
     53  CD1       13.0590   10.7500   14.8210 C.ar  128  PHE128     -0.0042
     54  CD2       15.1490   11.3940   13.8460 C.ar  128  PHE128     -0.0042
     55  CE1       13.6130    9.4610   15.0980 C.ar  128  PHE128     -0.0003
     56  CE2       15.6560   10.1280   14.0950 C.ar  128  PHE128     -0.0003
     57  CZ        14.9130    9.1790   14.7210 C.ar  128  PHE128     -0.0000
     58  N         15.7640   14.9200   14.7940 N.am  129  GLY129     -0.1957
     59  CA        17.1680   15.0000   15.1620 C.3   129  GLY129      0.1869
     60  C         17.4000   15.6140   16.5320 C.2   129  GLY129      0.2309
     61  O         18.3640   15.2570   17.2090 O.2   129  GLY129     -0.2863
     62  N         16.1640   12.8120   19.3740 N.3   132  VAL132     -0.1245
     63  CA        17.0890   11.6810   19.7270 C.3   132  VAL132      0.1561
     64  C         18.1720   12.0830   20.7300 C.2   132  VAL132      0.2260
     65  O         18.8730   11.1820   21.2530 O.2   132  VAL132     -0.2867
     66  CB        17.7640   10.9790   18.5050 C.3   132  VAL132      0.0252
     67  CG1       16.6970   10.3170   17.6400 C.3   132  VAL132      0.0019
     68  CG2       18.7690   11.9080   17.7100 C.3   132  VAL132      0.0019
     69  N          9.1500    3.8200   21.0740 N.3   140  VAL140     -0.1245
     70  CA         9.1510    2.7960   20.0500 C.3   140  VAL140      0.1561
     71  C          8.1780    1.7310   20.5450 C.2   140  VAL140      0.2260
     72  O          8.3080    1.2460   21.6620 O.2   140  VAL140     -0.2867
     73  CB        10.5690    2.1810   19.6950 C.3   140  VAL140      0.0252
     74  CG1       10.4010    1.1980   18.5120 C.3   140  VAL140      0.0019
     75  CG2       11.5820    3.3000   19.2620 C.3   140  VAL140      0.0019
     76  N         18.0650    3.3080   21.1820 N.3   195  LEU195     -0.1231
     77  CA        18.0490    2.7590   19.8090 C.3   195  LEU195      0.1693
     78  C         18.8130    1.4200   19.8220 C.2   195  LEU195      0.2593
     79  O         19.8480    1.2850   20.5250 O.2   195  LEU195     -0.2718
     80  CB        18.7930    3.7190   18.8790 C.3   195  LEU195      0.0284
     81  CG        18.2500    5.1610   18.8380 C.3   195  LEU195      0.0019
     82  CD1       19.0450    5.8880   17.7470 C.3   195  LEU195      0.0001
     83  CD2       16.7590    5.1990   18.4550 C.3   195  LEU195      0.0001
     84  N         18.3380    0.4210   19.0560 N.am  196  THR196     -0.1939
     85  CA        19.0520   -0.8520   19.0320 C.3   196  THR196      0.2028
     86  C         20.0100   -0.9610   17.8790 C.2   196  THR196      0.2643
     87  O         20.5840   -2.0420   17.6880 O.2   196  THR196     -0.2714
     88  CB        18.1040   -2.0050   18.9520 C.3   196  THR196      0.1808
     89  OG1       17.4730   -1.9750   17.6460 O.3   196  THR196     -0.2208
     90  CG2       17.0460   -1.9440   20.1820 C.3   196  THR196      0.0379
     91  N         20.1900    0.1170   17.0890 N.am  197  THR197     -0.1937
     92  CA        21.2700    0.1640   16.0960 C.3   197  THR197      0.2013
     93  C         22.1130    1.4300   16.3290 C.2   197  THR197      0.2484
     94  O         21.5830    2.4330   16.8930 O.2   197  THR197     -0.2729
     95  CB        20.7310    0.1860   14.6510 C.3   197  THR197      0.1807
     96  OG1       19.7220    1.2180   14.5380 O.3   197  THR197     -0.2208
     97  CG2       20.1640   -1.1440   14.2670 C.3   197  THR197      0.0379
     98  N         23.4020    1.4170   15.8950 N.am  198  PRO198     -0.2715
     99  CA        24.1900    2.6590   16.0190 C.3   198  PRO198      0.1521
    100  C         23.3830    3.8620   15.4570 C.2   198  PRO198      0.2440
    101  O         22.7710    3.7440   14.3430 O.2   198  PRO198     -0.2731
    102  CB        25.4190    2.3470   15.1380 C.3   198  PRO198      0.0310
    103  CG        25.6520    0.8360   15.4420 C.3   198  PRO198      0.0237
    104  CD        24.2030    0.3330   15.2740 C.3   198  PRO198      0.0939
    105  N         23.3660    5.0220   16.1650 N.am  199  PRO199     -0.2727
    106  CA        24.2860    5.4230   17.2830 C.3   199  PRO199      0.1402
    107  C         23.9070    4.9730   18.7050 C.2   199  PRO199      0.2269
    108  O         24.5650    5.4330   19.6700 O.2   199  PRO199     -0.2865
    109  CB        24.2960    6.9710   17.1800 C.3   199  PRO199      0.0296
    110  CG        22.9260    7.2680   16.6340 C.3   199  PRO199      0.0237
    111  CD        22.6700    6.1990   15.6060 C.3   199  PRO199      0.0939
    112  N         21.6330    5.6420   20.7430 N.3   201  LEU201     -0.1245
    113  CA        21.2840    6.7320   21.6580 C.3   201  LEU201      0.1561
    114  C         20.2760    6.3320   22.7460 C.2   201  LEU201      0.2260
    115  O         19.2780    5.6050   22.4660 O.2   201  LEU201     -0.2867
    116  CB        20.7650    7.9360   20.8640 C.3   201  LEU201      0.0270
    117  CG        21.8620    8.4870   19.9800 C.3   201  LEU201      0.0019
    118  CD1       21.2970    9.5640   19.0100 C.3   201  LEU201      0.0001
    119  CD2       22.9950    9.1030   20.7890 C.3   201  LEU201      0.0001
    120  N         10.5840    2.4590   25.6690 N.3   206  TRP206     -0.1241
    121  CA        10.1630    1.2720   24.9370 C.3   206  TRP206      0.1605
    122  C          8.7960    0.8410   25.4370 C.2   206  TRP206      0.2264
    123  O          8.5410    0.7590   26.6520 O.2   206  TRP206     -0.2867
    124  CB        11.1850    0.0980   25.1350 C.3   206  TRP206      0.0550
    125  CG        12.2730    0.1990   24.1460 C.ar  206  TRP206      0.0003
    126  CD1       13.4810    0.7950   24.3170 C.ar  206  TRP206      0.0946
    127  CD2       12.1950   -0.1830   22.7710 C.ar  206  TRP206      0.0152
    128  NE1       14.1980    0.7710   23.1400 N.ar  206  TRP206     -0.2442
    129  CE2       13.4390    0.1290   22.1840 C.ar  206  TRP206      0.0810
    130  CE3       11.2100   -0.8410   21.9920 C.ar  206  TRP206      0.0012
    131  CZ2       13.7290   -0.1780   20.8440 C.ar  206  TRP206      0.0191
    132  CZ3       11.5060   -1.1610   20.6670 C.ar  206  TRP206      0.0001
    133  CH2       12.7400   -0.8180   20.1010 C.ar  206  TRP206      0.0015
@<TRIPOS>BOND
     1     5     2    1
     2     5     6    1
     3    14    11    1
     4    14    15    1
     5    11    10    1
     6    11    12    1
     7     2     3    1
     8     2     1    1
     9     6     7    1
    10     8     7    2
    11     3     4    2
    12    12    13    2
    13     7     9   am
    14    15    16   ar
    15    15    17   ar
    16    16    18   ar
    17    17    19   ar
    18    20    21    1
    19    22    21    1
    20    22    23    2
    21    21    24    1
    22    18    19   ar
    23    33    32    2
    24    54    56   ar
    25    54    52   ar
    26    51    52    1
    27    51    48    1
    28    24    25    1
    29    26    25   ar
    30    26    28   ar
    31    56    57   ar
    32    52    53   ar
    33    97    95    1
    34    25    27   ar
    35   101   100    2
    36    28    29   ar
    37    96    95    1
    38    95    92    1
    39    57    55   ar
    40    47    48    1
    41    43    42    2
    42    27    29   ar
    43    46    44    1
    44    58    59    1
    45    58    49   am
    46    53    55   ar
    47    30    31    1
    48    32    31    1
    49    44    45    1
    50    44    41    1
    51    48    49    1
    52   102   103    1
    53   102    99    1
    54    40    41    1
    55    59    60    1
    56   104   103    1
    57   104    98    1
    58   100    99    1
    59   100   105   am
    60    49    50    2
    61    31    34    1
    62   111   105    1
    63   111   110    1
    64    34    35    1
    65    41    42    1
    66    98    99    1
    67    98    93   am
    68    92    93    1
    69    92    91    1
    70   105   106    1
    71    93    94    2
    72    60    61    2
    73    35    36   ar
    74    35    37   ar
    75   110   109    1
    76    36    38   ar
    77    91    86   am
    78   109   106    1
    79   106   107    1
    80    37    39   ar
    81    38    39   ar
    82    67    66    1
    83    89    88    1
    84    87    86    2
    85    68    66    1
    86    82    81    1
    87    86    85    1
    88    83    81    1
    89    66    63    1
    90    74    73    1
    91   107   108    2
    92    81    80    1
    93    80    77    1
    94    88    85    1
    95    88    90    1
    96   118   117    1
    97    85    84    1
    98    84    78   am
    99    75    73    1
   100    62    63    1
   101    73    70    1
   102    63    64    1
   103    77    78    1
   104    77    76    1
   105    78    79    2
   106   117   119    1
   107   117   116    1
   108    70    71    1
   109    70    69    1
   110   133   132   ar
   111   133   131   ar
   112    71    72    2
   113   132   130   ar
   114    64    65    2
   115   112   113    1
   116   131   129   ar
   117   116   113    1
   118   113   114    1
   119   130   127   ar
   120   129   127   ar
   121   129   128   ar
   122   115   114    2
   123   127   125   ar
   124   128   126   ar
   125   125   126   ar
   126   125   124    1
   127   121   124    1
   128   121   122    1
   129   121   120    1
   130   122   123    2
