@<TRIPOS>MOLECULE
tmp/3rz7A00.pdb
 157 152 0 0 0
SMALL
GASTEIGER

@<TRIPOS>ATOM
      1  N          8.5980    6.2130   11.1470 N.3    89  GLN89      -0.1245
      2  CA         8.8300    5.0600   10.2240 C.3    89  GLN89       0.1566
      3  C          8.5860    3.8020   11.0350 C.2    89  GLN89       0.2260
      4  O          8.5490    3.8710   12.2730 O.2    89  GLN89      -0.2867
      5  CB        10.3100    5.0560    9.6990 C.3    89  GLN89       0.0367
      6  CG        11.3950    5.2360   10.7740 C.3    89  GLN89       0.0905
      7  CD        12.0930    3.8980   11.1810 C.2    89  GLN89       0.2608
      8  OE1       11.5170    2.7980   11.0460 O.2    89  GLN89      -0.2717
      9  NE2       13.3380    4.0090   11.6750 N.am   89  GLN89      -0.0878
     10  N         10.0000   -0.4820   10.9490 N.3    91  HIS91      -0.1241
     11  CA        10.8310   -1.4960   10.2700 C.3    91  HIS91       0.1621
     12  C         10.7830   -2.7580   11.1260 C.2    91  HIS91       0.2264
     13  O         10.0990   -2.7680   12.1480 O.2    91  HIS91      -0.2867
     14  CB        12.2550   -0.9930   10.1970 C.3    91  HIS91       0.0745
     15  CG        12.8240   -0.6830   11.5630 C.ar   91  HIS91       0.0817
     16  ND1       12.5870    0.5150   12.2030 N.ar   91  HIS91      -0.2268
     17  CD2       13.4910   -1.4670   12.4520 C.ar   91  HIS91       0.1154
     18  CE1       13.1440    0.4800   13.4130 C.ar   91  HIS91       0.1986
     19  NE2       13.6780   -0.7230   13.5880 N.ar   91  HIS91      -0.2212
     20  N         13.0220   -6.4990   12.5550 N.3    93  HIS93      -0.1241
     21  CA        14.2760   -7.2390   12.7060 C.3    93  HIS93       0.1621
     22  C         13.8670   -8.6780   12.6080 C.2    93  HIS93       0.2264
     23  O         12.7770   -9.0170   13.0820 O.2    93  HIS93      -0.2867
     24  CB        14.8740   -6.9930   14.0710 C.3    93  HIS93       0.0745
     25  CG        15.1510   -5.5420   14.3150 C.ar   93  HIS93       0.0817
     26  ND1       16.3880   -4.9750   14.0660 N.ar   93  HIS93      -0.2268
     27  CD2       14.3190   -4.5280   14.6700 C.ar   93  HIS93       0.1154
     28  CE1       16.3270   -3.6730   14.3610 C.ar   93  HIS93       0.1986
     29  NE2       15.0910   -3.3880   14.7520 N.ar   93  HIS93      -0.2212
     30  N          9.1250   -2.5860   14.8410 N.3   116  HIS116     -0.1241
     31  CA         9.3330   -1.3530   15.5920 C.3   116  HIS116      0.1621
     32  C          8.6600   -0.1830   14.8970 C.2   116  HIS116      0.2264
     33  O          9.0780    0.1800   13.7730 O.2   116  HIS116     -0.2867
     34  CB        10.8530   -1.0900   15.6500 C.3   116  HIS116      0.0745
     35  CG        11.5430   -2.0540   16.5700 C.ar  116  HIS116      0.0817
     36  ND1       12.9000   -2.2800   16.5620 N.ar  116  HIS116     -0.2268
     37  CD2       11.0360   -2.8350   17.5540 C.ar  116  HIS116      0.1154
     38  CE1       13.2040   -3.1750   17.4950 C.ar  116  HIS116      0.1986
     39  NE2       12.0920   -3.5140   18.1230 N.ar  116  HIS116     -0.2212
     40  N          8.2700    3.5760   15.1200 N.3   118  VAL118     -0.1245
     41  CA         9.1600    4.6120   15.7330 C.3   118  VAL118      0.1561
     42  C          8.4500    5.9720   15.7570 C.2   118  VAL118      0.2260
     43  O          8.0230    6.4610   14.7060 O.2   118  VAL118     -0.2867
     44  CB        10.5470    4.7460   14.9440 C.3   118  VAL118      0.0252
     45  CG1       11.5120    5.8090   15.6170 C.3   118  VAL118      0.0019
     46  CG2       11.2530    3.3860   14.7430 C.3   118  VAL118      0.0019
     47  N         12.9660   15.4720   14.6720 N.3   127  PHE127     -0.1227
     48  CA        13.5120   14.1760   15.0380 C.3   127  PHE127      0.1736
     49  C         14.9730   14.2050   15.4550 C.2   127  PHE127      0.2596
     50  O         15.3430   13.5800   16.4650 O.2   127  PHE127     -0.2718
     51  CB        13.3490   13.2240   13.8600 C.3   127  PHE127      0.0547
     52  CG        13.9190   11.8480   14.1190 C.ar  127  PHE127     -0.0202
     53  CD1       13.1730   10.8940   14.7620 C.ar  127  PHE127     -0.0042
     54  CD2       15.2050   11.5160   13.7000 C.ar  127  PHE127     -0.0042
     55  CE1       13.7260    9.5320   14.9830 C.ar  127  PHE127     -0.0003
     56  CE2       15.7590   10.2390   13.9230 C.ar  127  PHE127     -0.0003
     57  CZ        15.0040    9.2500   14.5450 C.ar  127  PHE127     -0.0000
     58  N         15.8000   14.9830   14.7310 N.am  128  GLY128     -0.1957
     59  CA        17.2280   15.0720   15.0640 C.3   128  GLY128      0.1869
     60  C         17.4130   15.6800   16.4650 C.2   128  GLY128      0.2309
     61  O         18.3410   15.2930   17.1770 O.2   128  GLY128     -0.2863
     62  N         16.1500   12.8410   19.2830 N.3   131  VAL131     -0.1231
     63  CA        17.1120   11.7260   19.5880 C.3   131  VAL131      0.1692
     64  C         18.2170   12.0920   20.6170 C.2   131  VAL131      0.2591
     65  O         18.8730   11.1970   21.1610 O.2   131  VAL131     -0.2718
     66  CB        17.7860   11.0660   18.3380 C.3   131  VAL131      0.0266
     67  CG1       16.7310   10.4630   17.4790 C.3   131  VAL131      0.0020
     68  CG2       18.7270   12.0500   17.6120 C.3   131  VAL131      0.0020
     69  N         18.3910   13.3900   20.8810 N.am  132  GLN132     -0.1979
     70  CA        19.3690   13.8390   21.8860 C.3   132  GLN132      0.1601
     71  C         18.7910   13.9410   23.2880 C.2   132  GLN132      0.2287
     72  O         19.4790   14.3810   24.2230 O.2   132  GLN132     -0.2864
     73  CB        20.0030   15.2040   21.4600 C.3   132  GLN132      0.0394
     74  CG        20.6690   15.1800   20.0170 C.3   132  GLN132      0.0908
     75  CD        21.8610   14.1360   19.7680 C.2   132  GLN132      0.2608
     76  OE1       22.6170   13.7420   20.6930 O.2   132  GLN132     -0.2717
     77  NE2       22.0170   13.7130   18.4940 N.am  132  GLN132     -0.0878
     78  N         12.1830    9.6380   22.1140 N.3   137  LEU137     -0.1245
     79  CA        11.4860    8.7300   21.1930 C.3   137  LEU137      0.1561
     80  C         10.6190    7.7520   21.9610 C.2   137  LEU137      0.2260
     81  O         10.8510    7.5110   23.1540 O.2   137  LEU137     -0.2867
     82  CB        12.4750    7.9240   20.2780 C.3   137  LEU137      0.0270
     83  CG        13.4820    8.4630   19.2440 C.3   137  LEU137      0.0019
     84  CD1       14.0520    7.4260   18.2520 C.3   137  LEU137      0.0001
     85  CD2       13.0110    9.6920   18.5310 C.3   137  LEU137      0.0001
     86  N          9.2180    3.8490   21.0620 N.3   139  VAL139     -0.1245
     87  CA         9.1790    2.7950   20.0390 C.3   139  VAL139      0.1561
     88  C          8.2080    1.7530   20.5110 C.2   139  VAL139      0.2260
     89  O          8.3010    1.3000   21.6340 O.2   139  VAL139     -0.2867
     90  CB        10.5780    2.2060   19.7050 C.3   139  VAL139      0.0252
     91  CG1       10.4050    1.1940   18.4760 C.3   139  VAL139      0.0019
     92  CG2       11.4970    3.3520   19.2560 C.3   139  VAL139      0.0019
     93  N         18.1240    3.2700   21.1110 N.3   194  LEU194     -0.1231
     94  CA        18.0380    2.7540   19.7600 C.3   194  LEU194      0.1693
     95  C         18.8060    1.4220   19.8160 C.2   194  LEU194      0.2593
     96  O         19.8420    1.3060   20.4750 O.2   194  LEU194     -0.2718
     97  CB        18.8080    3.6830   18.8100 C.3   194  LEU194      0.0284
     98  CG        18.4050    5.1690   18.7580 C.3   194  LEU194      0.0019
     99  CD1       19.2860    5.8910   17.7100 C.3   194  LEU194      0.0001
    100  CD2       16.9190    5.2870   18.3830 C.3   194  LEU194      0.0001
    101  N         18.3520    0.4170   19.0820 N.am  195  THR195     -0.1939
    102  CA        19.0920   -0.8610   19.0350 C.3   195  THR195      0.2028
    103  C         20.0680   -0.9820   17.8780 C.2   195  THR195      0.2643
    104  O         20.6440   -2.0570   17.7080 O.2   195  THR195     -0.2714
    105  CB        18.1040   -2.0580   18.9330 C.3   195  THR195      0.1808
    106  OG1       17.4490   -1.9780   17.6560 O.3   195  THR195     -0.2208
    107  CG2       17.0800   -2.0400   20.0810 C.3   195  THR195      0.0379
    108  N         20.2630    0.0930   17.0910 N.am  196  THR196     -0.1937
    109  CA        21.3190    0.1540   16.0730 C.3   196  THR196      0.2013
    110  C         22.1690    1.3780   16.3620 C.2   196  THR196      0.2484
    111  O         21.6390    2.3830   16.9380 O.2   196  THR196     -0.2729
    112  CB        20.7810    0.2100   14.6270 C.3   196  THR196      0.1807
    113  OG1       19.8210    1.2630   14.5150 O.3   196  THR196     -0.2208
    114  CG2       20.0860   -1.1520   14.2920 C.3   196  THR196      0.0379
    115  N         23.4400    1.3330   15.9520 N.am  197  PRO197     -0.2715
    116  CA        24.2710    2.5550   16.0370 C.3   197  PRO197      0.1521
    117  C         23.4880    3.7610   15.4900 C.2   197  PRO197      0.2440
    118  O         22.8780    3.6610   14.4020 O.2   197  PRO197     -0.2731
    119  CB        25.4620    2.1990   15.1470 C.3   197  PRO197      0.0310
    120  CG        25.6750    0.6550   15.4800 C.3   197  PRO197      0.0237
    121  CD        24.2070    0.1770   15.4140 C.3   197  PRO197      0.0939
    122  N         23.5160    4.9070   16.1940 N.am  198  PRO198     -0.2727
    123  CA        24.4680    5.2120   17.2620 C.3   198  PRO198      0.1402
    124  C         24.0270    4.8750   18.6780 C.2   198  PRO198      0.2269
    125  O         24.6790    5.3710   19.6370 O.2   198  PRO198     -0.2865
    126  CB        24.6060    6.7700   17.1590 C.3   198  PRO198      0.0296
    127  CG        23.2940    7.2130   16.6320 C.3   198  PRO198      0.0237
    128  CD        23.0060    6.1520   15.5530 C.3   198  PRO198      0.0939
    129  N         21.6420    5.6130   20.6860 N.3   200  LEU200     -0.1245
    130  CA        21.3810    6.7450   21.5790 C.3   200  LEU200      0.1561
    131  C         20.3670    6.3630   22.6710 C.2   200  LEU200      0.2260
    132  O         19.3690    5.6940   22.3760 O.2   200  LEU200     -0.2867
    133  CB        20.8450    7.9360   20.7700 C.3   200  LEU200      0.0270
    134  CG        21.9030    8.4710   19.7690 C.3   200  LEU200      0.0019
    135  CD1       21.2800    9.5060   18.8260 C.3   200  LEU200      0.0001
    136  CD2       23.0240    9.0850   20.5700 C.3   200  LEU200      0.0001
    137  N         15.0300    6.4640   24.1700 N.3   203  VAL203     -0.1245
    138  CA        13.8120    5.7280   23.8440 C.3   203  VAL203      0.1561
    139  C         13.0280    5.2820   25.0510 C.2   203  VAL203      0.2260
    140  O         13.5950    4.6250   25.9680 O.2   203  VAL203     -0.2867
    141  CB        14.0960    4.4510   22.9910 C.3   203  VAL203      0.0252
    142  CG1       12.7480    3.8230   22.5780 C.3   203  VAL203      0.0019
    143  CG2       14.8980    4.8330   21.7280 C.3   203  VAL203      0.0019
    144  N         10.5670    2.5140   25.5880 N.3   205  TRP205     -0.1241
    145  CA        10.1270    1.2790   24.9470 C.3   205  TRP205      0.1605
    146  C          8.7740    0.8880   25.4500 C.2   205  TRP205      0.2264
    147  O          8.5310    0.8580   26.6600 O.2   205  TRP205     -0.2867
    148  CB        11.1630    0.1090   25.1680 C.3   205  TRP205      0.0550
    149  CG        12.2600    0.2390   24.1370 C.ar  205  TRP205      0.0003
    150  CD1       13.5110    0.8200   24.3050 C.ar  205  TRP205      0.0946
    151  CD2       12.1930   -0.1750   22.7650 C.ar  205  TRP205      0.0152
    152  NE1       14.2130    0.7870   23.1150 N.ar  205  TRP205     -0.2442
    153  CE2       13.4280    0.1710   22.1650 C.ar  205  TRP205      0.0810
    154  CE3       11.1980   -0.8180   21.9820 C.ar  205  TRP205      0.0012
    155  CZ2       13.7020   -0.1000   20.8130 C.ar  205  TRP205      0.0191
    156  CZ3       11.4700   -1.1050   20.6620 C.ar  205  TRP205      0.0001
    157  CH2       12.7250   -0.7590   20.0830 C.ar  205  TRP205      0.0015
@<TRIPOS>BOND
     1     5     2    1
     2     5     6    1
     3    14    11    1
     4    14    15    1
     5     2     3    1
     6     2     1    1
     7    11    10    1
     8    11    12    1
     9     6     7    1
    10     3     4    2
    11     8     7    2
    12    12    13    2
    13     7     9   am
    14    15    16   ar
    15    15    17   ar
    16    16    18   ar
    17    17    19   ar
    18    20    21    1
    19    22    21    1
    20    22    23    2
    21    21    24    1
    22    18    19   ar
    23    54    56   ar
    24    54    52   ar
    25    33    32    2
    26    51    52    1
    27    51    48    1
    28    56    57   ar
    29    26    25   ar
    30    26    28   ar
    31    24    25    1
    32    52    53   ar
    33   114   112    1
    34    25    27   ar
    35    28    29   ar
    36   118   117    2
    37   113   112    1
    38    57    55   ar
    39   112   109    1
    40    27    29   ar
    41    47    48    1
    42    43    42    2
    43    58    59    1
    44    58    49   am
    45    46    44    1
    46    53    55   ar
    47    30    31    1
    48    32    31    1
    49    44    45    1
    50    44    41    1
    51    48    49    1
    52    59    60    1
    53    40    41    1
    54   119   120    1
    55   119   116    1
    56   121   120    1
    57   121   115    1
    58    49    50    2
    59   117   116    1
    60   117   122   am
    61   128   122    1
    62   128   127    1
    63    31    34    1
    64    34    35    1
    65    41    42    1
    66   115   116    1
    67   115   110   am
    68   109   110    1
    69   109   108    1
    70   122   123    1
    71   110   111    2
    72    60    61    2
    73    36    35   ar
    74    36    38   ar
    75    35    37   ar
    76   127   126    1
    77   108   103   am
    78   126   123    1
    79   123   124    1
    80    67    66    1
    81    38    39   ar
    82    37    39   ar
    83    68    66    1
    84   106   105    1
    85   104   103    2
    86    99    98    1
    87   103   102    1
    88    84    83    1
    89    66    63    1
    90   100    98    1
    91    91    90    1
    92    77    75   am
    93    85    83    1
    94   124   125    2
    95    98    97    1
    96    97    94    1
    97   135   134    1
    98   105   102    1
    99   105   107    1
   100   102   101    1
   101   101    95   am
   102    83    82    1
   103    92    90    1
   104    62    63    1
   105    63    64    1
   106    90    87    1
   107    94    95    1
   108    94    93    1
   109    75    74    1
   110    75    76    2
   111   134   136    1
   112   134   133    1
   113    95    96    2
   114    74    73    1
   115    87    88    1
   116    87    86    1
   117   157   156   ar
   118   157   155   ar
   119    82    79    1
   120    88    89    2
   121    64    69   am
   122    64    65    2
   123   156   154   ar
   124   129   130    1
   125   133   130    1
   126   155   153   ar
   127    69    70    1
   128    79    80    1
   129    79    78    1
   130    73    70    1
   131   130   131    1
   132   143   141    1
   133    70    71    1
   134    80    81    2
   135   154   151   ar
   136   153   151   ar
   137   153   152   ar
   138   132   131    2
   139   142   141    1
   140   151   149   ar
   141   141   138    1
   142   152   150   ar
   143    71    72    2
   144   138   137    1
   145   138   139    1
   146   149   150   ar
   147   149   148    1
   148   145   148    1
   149   145   146    1
   150   145   144    1
   151   139   140    2
   152   146   147    2
