@<TRIPOS>MOLECULE
tmp/3rzaB00.pdb
 98 91 0 0 0
SMALL
GASTEIGER

@<TRIPOS>ATOM
      1  N         23.9030   47.4900   39.1270 N.3   138  GLU138     -0.1245
      2  CA        24.2100   46.9570   40.4720 C.3   138  GLU138      0.1567
      3  C         25.6900   46.6630   40.7000 C.2   138  GLU138      0.2260
      4  O         26.0610   46.1860   41.7740 O.2   138  GLU138     -0.2867
      5  CB        23.4280   45.6630   40.7130 C.3   138  GLU138      0.0388
      6  CG        21.9310   45.7440   40.4920 C.3   138  GLU138      0.1160
      7  CD        21.2010   46.4270   41.6120 C.2   138  GLU138      0.3649
      8  OE1       21.8050   47.1150   42.4730 O.co2 138  GLU138     -0.2457
      9  OE2       19.9670   46.2970   41.6720 O.co2 138  GLU138     -0.2457
     10  N         27.7180   49.3500   40.1850 N.3   140  GLY140     -0.1225
     11  CA        28.1480   50.7540   40.2910 C.3   140  GLY140      0.1811
     12  C         27.8640   51.5800   39.0600 C.2   140  GLY140      0.2280
     13  O         28.7290   52.3530   38.6140 O.2   140  GLY140     -0.2866
     14  N         28.6340   60.6220   45.5880 N.3   176  GLN176     -0.1245
     15  CA        29.2710   59.6160   46.4550 C.3   176  GLN176      0.1566
     16  C         30.7160   59.4050   46.0350 C.2   176  GLN176      0.2260
     17  O         31.0080   59.3090   44.8390 O.2   176  GLN176     -0.2867
     18  CB        28.5310   58.2830   46.4150 C.3   176  GLN176      0.0367
     19  CG        28.9710   57.2910   47.4930 C.3   176  GLN176      0.0905
     20  CD        29.4090   55.9550   46.9470 C.2   176  GLN176      0.2608
     21  OE1       30.5920   55.6820   46.8530 O.2   176  GLN176     -0.2717
     22  NE2       28.4510   55.1060   46.6130 N.am  176  GLN176     -0.0878
     23  N         34.2560   56.9240   47.2290 N.3   177  LEU177     -0.1245
     24  CA        34.9410   55.9070   48.0220 C.3   177  LEU177      0.1561
     25  C         36.2870   56.5010   48.4830 C.2   177  LEU177      0.2260
     26  O         36.9450   57.2110   47.7300 O.2   177  LEU177     -0.2867
     27  CB        35.1460   54.6230   47.2120 C.3   177  LEU177      0.0270
     28  CG        33.8920   53.9970   46.5950 C.3   177  LEU177      0.0019
     29  CD1       34.2480   52.7620   45.7810 C.3   177  LEU177      0.0001
     30  CD2       32.8690   53.6390   47.6730 C.3   177  LEU177      0.0001
     31  N         33.2810   55.3520   52.7110 N.3   242  GLU242     -0.1245
     32  CA        32.6290   56.2230   51.7400 C.3   242  GLU242      0.1567
     33  C         32.2010   57.5490   52.3730 C.2   242  GLU242      0.2260
     34  O         32.2200   57.6910   53.5890 O.2   242  GLU242     -0.2867
     35  CB        31.4200   55.5360   51.1390 C.3   242  GLU242      0.0388
     36  CG        30.4010   55.0920   52.1550 C.3   242  GLU242      0.1160
     37  CD        28.9750   55.1660   51.6250 C.2   242  GLU242      0.3649
     38  OE1       28.6320   54.3110   50.8020 O.co2 242  GLU242     -0.2457
     39  OE2       28.2020   56.0910   52.0150 O.co2 242  GLU242     -0.2457
     40  N         29.1630   60.8600   51.2720 N.3   244  ARG244     -0.1245
     41  CA        28.1280   61.3480   50.3700 C.3   244  ARG244      0.1563
     42  C         27.7800   62.7390   50.7800 C.2   244  ARG244      0.2260
     43  O         27.8010   63.0300   51.9690 O.2   244  ARG244     -0.2867
     44  CB        26.8520   60.4920   50.4330 C.3   244  ARG244      0.0307
     45  CG        27.0620   59.0120   50.2450 C.3   244  ARG244      0.0489
     46  CD        25.7970   58.2420   50.4800 C.3   244  ARG244      0.2205
     47  NE        26.0930   56.8160   50.3870 N.pl3 244  ARG244     -0.0865
     48  CZ        25.4530   55.8920   49.6610 C.cat 244  ARG244      0.5346
     49  NH1       24.3260   56.1440   48.9880 N.pl3 244  ARG244      0.1354
     50  NH2       25.9230   54.6340   49.6830 N.pl3 244  ARG244      0.1354
     51  N         32.1790   57.5310   42.8520 N.3   279  SER279     -0.1202
     52  CA        31.2170   56.5520   42.3170 C.3   279  SER279      0.2020
     53  C         30.2170   57.1950   41.3500 C.2   279  SER279      0.2618
     54  O         29.9520   56.6510   40.2920 O.2   279  SER279     -0.2717
     55  CB        30.4740   55.8820   43.4480 C.3   279  SER279      0.2103
     56  OG        31.3860   55.2450   44.2930 O.3   279  SER279     -0.2182
     57  N         29.6660   58.3470   41.7380 N.am  280  TYR280     -0.1975
     58  CA        28.7470   59.1040   40.8780 C.3   280  TYR280      0.1639
     59  C         28.6420   60.5610   41.3470 C.2   280  TYR280      0.2290
     60  O         28.8240   60.8340   42.5340 O.2   280  TYR280     -0.2864
     61  CB        27.3450   58.4320   40.8390 C.3   280  TYR280      0.0560
     62  CG        26.7940   58.0090   42.2100 C.ar  280  TYR280     -0.0198
     63  CD1       26.1600   58.9360   43.0450 C.ar  280  TYR280     -0.0009
     64  CD2       26.9000   56.6800   42.6620 C.ar  280  TYR280     -0.0009
     65  CE1       25.6530   58.5670   44.3080 C.ar  280  TYR280      0.0417
     66  CE2       26.3660   56.2880   43.9250 C.ar  280  TYR280      0.0417
     67  CZ        25.7530   57.2590   44.7380 C.ar  280  TYR280      0.1957
     68  OH        25.2410   56.9520   45.9670 O.3   280  TYR280     -0.2866
     69  N         19.1050   59.3670   49.0870 N.3   312  GLY312     -0.1210
     70  CA        20.4090   59.1620   49.7370 C.3   312  GLY312      0.1956
     71  C         21.4650   58.4690   48.8670 C.2   312  GLY312      0.2612
     72  O         22.5610   58.2420   49.3280 O.2   312  GLY312     -0.2717
     73  N         21.1430   58.1260   47.6190 N.am  313  GLY313     -0.1942
     74  CA        22.0690   57.3860   46.7750 C.3   313  GLY313      0.2014
     75  C         21.8270   57.5510   45.2860 C.2   313  GLY313      0.2639
     76  O         21.0550   58.4140   44.8650 O.2   313  GLY313     -0.2714
     77  N         22.4900   56.6920   44.5090 N.am  314  GLY314     -0.1954
     78  CA        22.6080   56.8330   43.0660 C.3   314  GLY314      0.1869
     79  C         21.6770   55.9320   42.2560 C.2   314  GLY314      0.2309
     80  O         20.9950   55.0600   42.7810 O.2   314  GLY314     -0.2863
     81  N         14.5320   45.3440   48.9700 N.3   337  ILE337     -0.1231
     82  CA        15.3200   45.0400   47.7870 C.3   337  ILE337      0.1692
     83  C         16.7110   44.5800   48.2120 C.2   337  ILE337      0.2592
     84  O         17.1450   44.8640   49.3370 O.2   337  ILE337     -0.2718
     85  CB        15.3740   46.2340   46.7630 C.3   337  ILE337      0.0266
     86  CG1       16.0080   47.5210   47.3560 C.3   337  ILE337      0.0019
     87  CG2       13.9800   46.5360   46.2520 C.3   337  ILE337      0.0020
     88  CD1       16.4110   48.5310   46.3250 C.3   337  ILE337      0.0001
     89  N         17.3490   43.7920   47.3520 N.am  338  HIS338     -0.1976
     90  CA        18.6930   43.2240   47.5920 C.3   338  HIS338      0.1656
     91  C         18.7470   42.1850   48.7160 C.2   338  HIS338      0.2291
     92  O         19.8150   41.9230   49.2690 O.2   338  HIS338     -0.2864
     93  CB        19.7550   44.3150   47.8730 C.3   338  HIS338      0.0771
     94  CG        19.9150   45.3240   46.7890 C.ar  338  HIS338      0.0820
     95  ND1       20.9760   46.1990   46.7770 N.ar  338  HIS338     -0.2267
     96  CD2       19.2140   45.5590   45.6540 C.ar  338  HIS338      0.1154
     97  CE1       20.9080   46.9560   45.7030 C.ar  338  HIS338      0.1986
     98  NE2       19.8480   46.5880   44.9980 N.ar  338  HIS338     -0.2212
@<TRIPOS>BOND
     1    13    12    2
     2    12    11    1
     3     1     2    1
     4    10    11    1
     5    54    53    2
     6     2     3    1
     7     2     5    1
     8     6     5    1
     9     6     7    1
    10     3     4    2
    11    61    58    1
    12    61    62    1
    13    58    59    1
    14    58    57    1
    15    59    60    2
    16    53    57   am
    17    53    52    1
    18     7     9   ar
    19     7     8   ar
    20    62    64   ar
    21    62    63   ar
    22    79    80    2
    23    79    78    1
    24    52    51    1
    25    52    55    1
    26    64    66   ar
    27    63    65   ar
    28    78    77    1
    29    55    56    1
    30    66    67   ar
    31    65    67   ar
    32    77    75   am
    33    67    68    1
    34    17    16    2
    35    76    75    2
    36    98    96   ar
    37    98    97   ar
    38    75    74    1
    39    14    15    1
    40    96    94   ar
    41    97    95   ar
    42    29    28    1
    43    16    15    1
    44    87    85    1
    45    88    86    1
    46    18    15    1
    47    18    19    1
    48    28    27    1
    49    28    30    1
    50    22    20   am
    51    85    86    1
    52    85    82    1
    53    74    73    1
    54    95    94   ar
    55    94    93    1
    56    21    20    2
    57    20    19    1
    58    27    24    1
    59    23    24    1
    60    89    90    1
    61    89    83   am
    62    90    93    1
    63    90    91    1
    64    73    71   am
    65    26    25    2
    66    82    83    1
    67    82    81    1
    68    24    25    1
    69    83    84    2
    70    91    92    2
    71    71    72    2
    72    71    70    1
    73    49    48    1
    74    69    70    1
    75    48    50    1
    76    48    47    2
    77    45    44    1
    78    45    46    1
    79    41    44    1
    80    41    42    1
    81    41    40    1
    82    47    46    1
    83    42    43    2
    84    38    37   ar
    85    35    32    1
    86    35    36    1
    87    37    39   ar
    88    37    36    1
    89    32    33    1
    90    32    31    1
    91    33    34    2
