@<TRIPOS>MOLECULE
tmp/3rzbA00.pdb
 141 134 0 0 0
SMALL
GASTEIGER

@<TRIPOS>ATOM
      1  N         93.9310   84.6520  -43.0530 N.3    10  ILE10      -0.1245
      2  CA        92.7750   83.8430  -43.3930 C.3    10  ILE10       0.1561
      3  C         93.0040   82.3430  -43.2500 C.2    10  ILE10       0.2260
      4  O         92.0590   81.5630  -43.3430 O.2    10  ILE10      -0.2867
      5  CB        92.2700   84.1520  -44.8280 C.3    10  ILE10       0.0252
      6  CG1       93.3820   83.9300  -45.8500 C.3    10  ILE10       0.0019
      7  CG2       91.7830   85.5850  -44.9100 C.3    10  ILE10       0.0019
      8  CD1       92.9730   84.2700  -47.2700 C.3    10  ILE10       0.0001
      9  N         98.5900   81.9680  -44.6180 N.3    18  VAL18      -0.1245
     10  CA        98.0300   82.6410  -45.7860 C.3    18  VAL18       0.1561
     11  C         97.3010   83.9140  -45.3560 C.2    18  VAL18       0.2260
     12  O         96.5600   83.9230  -44.3800 O.2    18  VAL18      -0.2867
     13  CB        97.0910   81.6890  -46.5900 C.3    18  VAL18       0.0252
     14  CG1       95.9740   81.1870  -45.7120 C.3    18  VAL18       0.0019
     15  CG2       96.5360   82.4100  -47.8150 C.3    18  VAL18       0.0019
     16  N         95.5130   85.9080  -52.3110 N.3    31  ALA31      -0.1245
     17  CA        95.7680   85.0910  -51.1360 C.3    31  ALA31       0.1562
     18  C         97.2880   84.9700  -51.1260 C.2    31  ALA31       0.2260
     19  O         97.8640   84.3750  -52.0320 O.2    31  ALA31      -0.2867
     20  CB        95.1570   83.7380  -51.2940 C.3    31  ALA31       0.0290
     21  N        100.5720   83.4960  -49.4260 N.3    33  LYS33      -0.1245
     22  CA       101.0720   82.4730  -48.5300 C.3    33  LYS33       0.1561
     23  C        102.5690   82.6110  -48.2920 C.2    33  LYS33       0.2260
     24  O        103.3600   82.5380  -49.2290 O.2    33  LYS33      -0.2867
     25  CB       100.7830   81.0870  -49.1200 C.3    33  LYS33       0.0271
     26  CG       101.1970   79.9230  -48.2310 C.3    33  LYS33       0.0035
     27  CD       100.8700   78.5780  -48.8770 C.3    33  LYS33       0.0206
     28  CE        99.3580   78.3920  -49.0330 C.3    33  LYS33       0.1093
     29  NZ        99.0350   77.1140  -49.7360 N.3    33  LYS33      -0.1314
     30  N         92.9200   76.0970  -57.4000 N.3    56  VAL56      -0.1245
     31  CA        93.2050   77.5100  -57.1170 C.3    56  VAL56       0.1561
     32  C         94.4600   77.9210  -57.9200 C.2    56  VAL56       0.2260
     33  O         95.5150   77.2910  -57.8150 O.2    56  VAL56      -0.2867
     34  CB        93.4530   77.7370  -55.6050 C.3    56  VAL56       0.0252
     35  CG1       93.8230   79.1810  -55.3490 C.3    56  VAL56       0.0019
     36  CG2       92.1880   77.4200  -54.8070 C.3    56  VAL56       0.0019
     37  N         98.2710   83.4630  -54.6480 N.3    72  PHE72      -0.1227
     38  CA        97.1790   82.7150  -55.2330 C.3    72  PHE72       0.1736
     39  C         96.0040   83.6260  -55.4840 C.2    72  PHE72       0.2595
     40  O         95.8720   84.6870  -54.8760 O.2    72  PHE72      -0.2718
     41  CB        96.7120   81.6230  -54.2770 C.3    72  PHE72       0.0547
     42  CG        97.7110   80.5490  -54.0460 C.ar   72  PHE72      -0.0202
     43  CD1       97.8430   79.4990  -54.9510 C.ar   72  PHE72      -0.0042
     44  CD2       98.5220   80.5780  -52.9120 C.ar   72  PHE72      -0.0042
     45  CE1       98.7730   78.4830  -54.7300 C.ar   72  PHE72      -0.0003
     46  CE2       99.4460   79.5770  -52.6820 C.ar   72  PHE72      -0.0003
     47  CZ        99.5750   78.5170  -53.5980 C.ar   72  PHE72      -0.0000
     48  N         95.1470   83.2100  -56.4000 N.am   73  GLU73      -0.1965
     49  CA        93.9550   83.9840  -56.6430 C.3    73  GLU73       0.1733
     50  C         93.2070   83.8480  -55.3190 C.2    73  GLU73       0.2616
     51  O         93.3190   82.8210  -54.6250 O.2    73  GLU73      -0.2715
     52  CB        93.1430   83.3630  -57.7710 C.3    73  GLU73       0.0429
     53  CG        92.8860   81.8790  -57.5750 C.3    73  GLU73       0.1163
     54  CD        91.7990   81.3570  -58.4940 C.2    73  GLU73       0.3649
     55  OE1       90.8970   82.1380  -58.8370 O.co2  73  GLU73      -0.2457
     56  OE2       91.8290   80.1720  -58.8610 O.co2  73  GLU73      -0.2457
     57  N         92.4550   84.8730  -54.9710 N.am   74  PHE74      -0.1960
     58  CA        91.6980   84.8910  -53.7280 C.3    74  PHE74       0.1771
     59  C         90.3250   84.2890  -53.9800 C.2    74  PHE74       0.2619
     60  O         89.6370   84.6950  -54.9040 O.2    74  PHE74      -0.2715
     61  CB        91.5710   86.3460  -53.2420 C.3    74  PHE74       0.0574
     62  CG        90.7500   86.5130  -51.9950 C.ar   74  PHE74      -0.0200
     63  CD1       89.4480   87.0010  -52.0680 C.ar   74  PHE74      -0.0042
     64  CD2       91.2770   86.1750  -50.7480 C.ar   74  PHE74      -0.0042
     65  CE1       88.6780   87.1510  -50.9180 C.ar   74  PHE74      -0.0003
     66  CE2       90.5180   86.3210  -49.5930 C.ar   74  PHE74      -0.0003
     67  CZ        89.2170   86.8080  -49.6780 C.ar   74  PHE74      -0.0000
     68  N         89.9610   83.2940  -53.1780 N.am   75  LEU75      -0.1963
     69  CA        88.6680   82.6460  -53.2900 C.3    75  LEU75       0.1728
     70  C         87.8250   83.2400  -52.1810 C.2    75  LEU75       0.2616
     71  O         88.3310   83.7790  -51.2090 O.2    75  LEU75      -0.2715
     72  CB        88.8110   81.1280  -53.1720 C.3    75  LEU75       0.0311
     73  CG        88.9540   80.3630  -54.5000 C.3    75  LEU75       0.0022
     74  CD1       87.5930   80.2910  -55.1900 C.3    75  LEU75       0.0001
     75  CD2       89.9850   81.0020  -55.4260 C.3    75  LEU75       0.0001
     76  N         86.5220   83.1280  -52.3090 N.am   76  HIS76      -0.1959
     77  CA        85.6490   83.7860  -51.3650 C.3    76  HIS76       0.1787
     78  C         85.4940   83.2390  -49.9690 C.2    76  HIS76       0.2620
     79  O         85.3320   84.0060  -49.0260 O.2    76  HIS76      -0.2715
     80  CB        84.2880   83.9240  -52.0340 C.3    76  HIS76       0.0785
     81  CG        84.3620   84.5480  -53.3970 C.ar   76  HIS76       0.0821
     82  ND1       83.2850   84.6040  -54.2560 N.ar   76  HIS76      -0.2267
     83  CD2       85.3930   85.1450  -54.0440 C.ar   76  HIS76       0.1154
     84  CE1       83.6500   85.2070  -55.3770 C.ar   76  HIS76       0.1986
     85  NE2       84.9250   85.5490  -55.2720 N.ar   76  HIS76      -0.2212
     86  N         85.5650   81.9270  -49.8300 N.am   77  GLN77      -0.1963
     87  CA        85.3590   81.2950  -48.5240 C.3    77  GLN77       0.1733
     88  C         85.8470   79.8700  -48.6160 C.2    77  GLN77       0.2616
     89  O         86.0010   79.3540  -49.7110 O.2    77  GLN77      -0.2715
     90  CB        83.8580   81.2870  -48.2200 C.3    77  GLN77       0.0408
     91  CG        83.4570   80.7240  -46.8820 C.3    77  GLN77       0.0908
     92  CD        82.0640   81.2020  -46.4870 C.2    77  GLN77       0.2608
     93  OE1       81.8600   82.3830  -46.1630 O.2    77  GLN77      -0.2717
     94  NE2       81.1070   80.3030  -46.5230 N.am   77  GLN77      -0.0878
     95  N         86.0890   79.2350  -47.4660 N.am   78  ASP78      -0.1971
     96  CA        86.5340   77.8410  -47.4700 C.3    78  ASP78       0.1709
     97  C         85.3550   76.9310  -47.1380 C.2    78  ASP78       0.2293
     98  O         84.3780   77.3510  -46.5370 O.2    78  ASP78      -0.2864
     99  CB        87.6620   77.6190  -46.4630 C.3    78  ASP78       0.1436
    100  CG        87.2420   77.9260  -45.0360 C.2    78  ASP78       0.3671
    101  OD1       86.9660   76.9830  -44.2760 O.co2  78  ASP78      -0.2456
    102  OD2       87.1650   79.1200  -44.6760 O.co2  78  ASP78      -0.2456
    103  N         84.2360   76.6390  -43.3330 N.3    81  LYS81      -0.1245
    104  CA        83.3350   77.6810  -42.8600 C.3    81  LYS81       0.1561
    105  C         81.9290   77.5040  -43.4260 C.2    81  LYS81       0.2260
    106  O         80.9270   77.6690  -42.7130 O.2    81  LYS81      -0.2867
    107  CB        83.8580   79.0760  -43.2400 C.3    81  LYS81       0.0271
    108  CG        82.9190   80.1910  -42.7870 C.3    81  LYS81       0.0035
    109  CD        83.0170   80.3860  -41.2670 C.3    81  LYS81       0.0206
    110  CE        81.6750   80.7310  -40.6260 C.3    81  LYS81       0.1093
    111  NZ        80.8100   79.5140  -40.5220 N.3    81  LYS81      -0.1314
    112  N         89.0920   72.7970  -44.9220 N.3   123  GLN123     -0.1245
    113  CA        89.7600   74.1030  -44.8790 C.3   123  GLN123      0.1566
    114  C         90.4790   74.4750  -46.1580 C.2   123  GLN123      0.2260
    115  O         90.6620   75.6650  -46.4230 O.2   123  GLN123     -0.2867
    116  CB        90.8050   74.1770  -43.7710 C.3   123  GLN123      0.0367
    117  CG        90.3250   73.8850  -42.4040 C.3   123  GLN123      0.0905
    118  CD        91.4680   73.3750  -41.5490 C.2   123  GLN123      0.2608
    119  OE1       91.2500   72.6400  -40.5870 O.2   123  GLN123     -0.2717
    120  NE2       92.7040   73.7660  -41.9010 N.am  123  GLN123     -0.0878
    121  N         88.1700   75.5560  -51.5100 N.3   126  LEU126     -0.1245
    122  CA        87.6950   76.9280  -51.5360 C.3   126  LEU126      0.1561
    123  C         86.5680   77.1450  -52.5250 C.2   126  LEU126      0.2260
    124  O         86.5990   76.6330  -53.6240 O.2   126  LEU126     -0.2867
    125  CB        88.8600   77.8450  -51.8660 C.3   126  LEU126      0.0270
    126  CG        90.0660   77.5530  -50.9680 C.3   126  LEU126      0.0019
    127  CD1       91.1950   78.4170  -51.4100 C.3   126  LEU126      0.0001
    128  CD2       89.7060   77.8100  -49.4910 C.3   126  LEU126      0.0001
    129  N         93.0510   73.7670  -52.9730 N.3   136  ALA136     -0.1231
    130  CA        94.0840   74.7140  -52.5950 C.3   136  ALA136      0.1694
    131  C         95.0450   74.0420  -51.6280 C.2   136  ALA136      0.2592
    132  O         94.8560   72.8910  -51.2610 O.2   136  ALA136     -0.2718
    133  CB        93.4740   75.9200  -51.9330 C.3   136  ALA136      0.0304
    134  N         96.0790   74.7750  -51.2390 N.am  137  ASP137     -0.1974
    135  CA        97.0780   74.2950  -50.2960 C.3   137  ASP137      0.1709
    136  C         97.6130   72.9000  -50.5760 C.2   137  ASP137      0.2293
    137  O         97.6340   72.0590  -49.6760 O.2   137  ASP137     -0.2864
    138  CB        96.5130   74.2960  -48.8780 C.3   137  ASP137      0.1436
    139  CG        96.0430   75.6610  -48.4330 C.2   137  ASP137      0.3671
    140  OD1       96.6060   76.6720  -48.8910 O.co2 137  ASP137     -0.2456
    141  OD2       95.1100   75.7170  -47.6060 O.co2 137  ASP137     -0.2456
@<TRIPOS>BOND
     1    56    54   ar
     2    55    54   ar
     3    54    53    1
     4    32    33    2
     5    32    31    1
     6    52    53    1
     7    52    49    1
     8    30    31    1
     9    31    34    1
    10    49    48    1
    11    49    50    1
    12    48    39   am
    13    34    35    1
    14    34    36    1
    15    39    38    1
    16    39    40    2
    17    75    73    1
    18    84    85   ar
    19    84    82   ar
    20    50    57   am
    21    50    51    2
    22    85    83   ar
    23    38    37    1
    24    38    41    1
    25    74    73    1
    26    57    58    1
    27    43    45   ar
    28    43    42   ar
    29    60    59    2
    30    45    47   ar
    31    73    72    1
    32    41    42    1
    33    82    81   ar
    34    42    44   ar
    35    83    81   ar
    36    59    58    1
    37    59    68   am
    38    58    61    1
    39   124   123    2
    40    47    46   ar
    41    81    80    1
    42    69    68    1
    43    69    72    1
    44    69    70    1
    45    61    62    1
    46   129   130    1
    47    44    46   ar
    48   130   133    1
    49   130   131    1
    50   123   122    1
    51    16    17    1
    52    76    70   am
    53    76    77    1
    54    70    71    2
    55    63    62   ar
    56    63    65   ar
    57    80    77    1
    58    19    18    2
    59    62    64   ar
    60   125   122    1
    61   125   126    1
    62   131   132    2
    63   131   134   am
    64   122   121    1
    65   127   126    1
    66    77    78    1
    67    20    17    1
    68   134   135    1
    69    17    18    1
    70   126   128    1
    71    65    67   ar
    72    64    66   ar
    73   136   135    1
    74   136   137    2
    75   135   138    1
    76    78    86   am
    77    78    79    2
    78    86    87    1
    79    29    28    1
    80    89    88    2
    81    67    66   ar
    82    21    22    1
    83    24    23    2
    84    25    22    1
    85    25    26    1
    86    28    27    1
    87   140   139   ar
    88   138   139    1
    89    27    26    1
    90    88    87    1
    91    88    95   am
    92    22    23    1
    93    87    90    1
    94   139   141   ar
    95    90    91    1
    96    15    13    1
    97    96    95    1
    98    96    97    1
    99    96    99    1
   100     8     6    1
   101    97    98    2
   102    91    92    1
   103    13    10    1
   104    13    14    1
   105    94    92   am
   106    92    93    2
   107    99   100    1
   108   115   114    2
   109   114   113    1
   110     6     5    1
   111    10    11    1
   112    10     9    1
   113    11    12    2
   114   100   102   ar
   115   100   101   ar
   116   112   113    1
   117     7     5    1
   118   113   116    1
   119     5     2    1
   120   116   117    1
   121   105   104    1
   122   105   106    2
   123     2     3    1
   124     2     1    1
   125     4     3    2
   126   103   104    1
   127   107   104    1
   128   107   108    1
   129   108   109    1
   130   117   118    1
   131   120   118   am
   132   118   119    2
   133   109   110    1
   134   110   111    1
