@<TRIPOS>MOLECULE
tmp/3rzcC00.pdb
 87 83 0 0 0
SMALL
GASTEIGER

@<TRIPOS>ATOM
      1  N         23.2550   32.0960  -24.8820 N.3    28  PRO28      -0.2102
      2  CA        22.1580   31.1520  -25.0920 C.3    28  PRO28       0.1504
      3  C         20.8010   31.7740  -24.7570 C.2    28  PRO28       0.2576
      4  O         20.7440   32.9050  -24.2720 O.2    28  PRO28      -0.2718
      5  CB        22.4890   30.0120  -24.1270 C.3    28  PRO28       0.0282
      6  CG        23.2570   30.6520  -23.0290 C.3    28  PRO28       0.0208
      7  CD        23.9320   31.8770  -23.5880 C.3    28  PRO28       0.0893
      8  N         19.7250   31.0420  -25.0310 N.am   29  ASP29      -0.1960
      9  CA        18.3690   31.5340  -24.7900 C.3    29  ASP29       0.1840
     10  C         17.6450   30.7110  -23.7260 C.2    29  ASP29       0.2622
     11  O         17.0400   29.6780  -24.0210 O.2    29  ASP29      -0.2715
     12  CB        17.5600   31.5950  -26.0970 C.3    29  ASP29       0.1450
     13  CG        17.6170   30.2970  -26.9040 C.2    29  ASP29       0.3671
     14  OD1       18.4740   29.4310  -26.6220 O.co2  29  ASP29      -0.2456
     15  OD2       16.7970   30.1470  -27.8340 O.co2  29  ASP29      -0.2456
     16  N         17.7230   31.1800  -22.4830 N.am   30  ASN30      -0.1972
     17  CA        17.1020   30.4920  -21.3550 C.3    30  ASN30       0.1688
     18  C         15.5840   30.6420  -21.3530 C.2    30  ASN30       0.2292
     19  O         14.8590   29.6480  -21.4060 O.2    30  ASN30      -0.2864
     20  CB        17.6910   30.9860  -20.0290 C.3    30  ASN30       0.1181
     21  CG        17.0610   30.3130  -18.8210 C.2    30  ASN30       0.2629
     22  OD1       17.3060   29.1390  -18.5490 O.2    30  ASN30      -0.2716
     23  ND2       16.2510   31.0620  -18.0840 N.am   30  ASN30      -0.0877
     24  N          9.7370   29.0150  -21.4560 N.3    50  VAL50      -0.1231
     25  CA        11.0070   28.4340  -20.9950 C.3    50  VAL50       0.1692
     26  C         11.5140   27.2190  -21.7860 C.2    50  VAL50       0.2592
     27  O         12.7220   26.9880  -21.8510 O.2    50  VAL50      -0.2718
     28  CB        10.9740   28.0850  -19.4730 C.3    50  VAL50       0.0266
     29  CG1       10.9040   29.3520  -18.6290 C.3    50  VAL50       0.0020
     30  CG2        9.8160   27.1420  -19.1400 C.3    50  VAL50       0.0020
     31  N         10.5990   26.4510  -22.3760 N.am   51  ASP51      -0.1960
     32  CA        10.9580   25.2110  -23.0730 C.3    51  ASP51       0.1840
     33  C         11.4270   25.4310  -24.5150 C.2    51  ASP51       0.2621
     34  O         11.2280   26.5050  -25.0880 O.2    51  ASP51      -0.2715
     35  CB         9.7890   24.2190  -23.0430 C.3    51  ASP51       0.1450
     36  CG         9.5270   23.6560  -21.6530 C.2    51  ASP51       0.3671
     37  OD1       10.4410   23.6840  -20.8010 O.co2  51  ASP51      -0.2456
     38  OD2        8.3980   23.1740  -21.4170 O.co2  51  ASP51      -0.2456
     39  N         12.0520   24.3990  -25.0830 N.am   52  GLN52      -0.1977
     40  CA        12.5230   24.4050  -26.4720 C.3    52  GLN52       0.1601
     41  C         11.3640   24.6400  -27.4440 C.2    52  GLN52       0.2287
     42  O         11.4660   25.4570  -28.3610 O.2    52  GLN52      -0.2864
     43  CB        13.2340   23.0830  -26.7920 C.3    52  GLN52       0.0394
     44  CG        14.1420   23.1160  -28.0230 C.3    52  GLN52       0.0908
     45  CD        15.4790   23.8100  -27.7750 C.2    52  GLN52       0.2608
     46  OE1       15.9330   23.9380  -26.6350 O.2    52  GLN52      -0.2717
     47  NE2       16.1190   24.2520  -28.8520 N.am   52  GLN52      -0.0878
     48  N         12.7690   27.6560  -29.9990 N.3    67  LYS67      -0.1245
     49  CA        14.1820   27.9500  -29.7490 C.3    67  LYS67       0.1561
     50  C         15.1020   27.5400  -30.9010 C.2    67  LYS67       0.2260
     51  O         16.2080   28.0690  -31.0310 O.2    67  LYS67      -0.2867
     52  CB        14.6490   27.3140  -28.4380 C.3    67  LYS67       0.0271
     53  CG        14.1230   28.0070  -27.1920 C.3    67  LYS67       0.0035
     54  CD        14.8290   27.5050  -25.9450 C.3    67  LYS67       0.0206
     55  CE        14.2270   28.1120  -24.6900 C.3    67  LYS67       0.1093
     56  NZ        14.9360   27.6560  -23.4640 N.3    67  LYS67      -0.1314
     57  N         19.5630   35.3500  -20.9260 N.3    93  ASP93      -0.1225
     58  CA        20.6070   34.4250  -21.3850 C.3    93  ASP93       0.1805
     59  C         21.0960   33.4100  -20.3390 C.2    93  ASP93       0.2598
     60  O         21.9290   32.5570  -20.6500 O.2    93  ASP93      -0.2718
     61  CB        21.7840   35.1800  -22.0320 C.3    93  ASP93       0.1424
     62  CG        22.3410   36.2920  -21.1510 C.2    93  ASP93       0.3668
     63  OD1       22.2410   36.2010  -19.9110 O.co2  93  ASP93      -0.2456
     64  OD2       22.8970   37.2610  -21.7100 O.co2  93  ASP93      -0.2456
     65  N         20.5810   33.5010  -19.1140 N.am   94  ARG94      -0.1966
     66  CA        20.8830   32.5170  -18.0660 C.3    94  ARG94       0.1729
     67  C         19.6310   32.1210  -17.2870 C.2    94  ARG94       0.2616
     68  O         18.6120   32.8130  -17.3340 O.2    94  ARG94      -0.2715
     69  CB        21.9410   33.0430  -17.0830 C.3    94  ARG94       0.0348
     70  CG        23.2570   33.5120  -17.6930 C.3    94  ARG94       0.0492
     71  CD        24.1640   32.3680  -18.1230 C.3    94  ARG94       0.2205
     72  NE        25.5010   32.8620  -18.4450 N.pl3  94  ARG94      -0.0865
     73  CZ        25.8590   33.3710  -19.6210 C.cat  94  ARG94       0.5346
     74  NH1       27.1000   33.8010  -19.7980 N.pl3  94  ARG94       0.1354
     75  NH2       24.9870   33.4560  -20.6180 N.pl3  94  ARG94       0.1354
     76  N         19.7190   31.0050  -16.5670 N.am   95  GLY95      -0.1955
     77  CA        18.6440   30.5600  -15.6810 C.3    95  GLY95       0.1869
     78  C         18.8170   31.0480  -14.2540 C.2    95  GLY95       0.2309
     79  O         18.1870   30.5240  -13.3320 O.2    95  GLY95      -0.2863
     80  N         23.0030   35.5410  -12.8960 N.3    98  LEU98      -0.1245
     81  CA        24.1710   35.7850  -13.7440 C.3    98  LEU98       0.1561
     82  C         23.7630   36.2440  -15.1420 C.2    98  LEU98       0.2260
     83  O         24.6150   36.5850  -15.9670 O.2    98  LEU98      -0.2867
     84  CB        25.0320   34.5210  -13.8450 C.3    98  LEU98       0.0270
     85  CG        25.6740   33.9610  -12.5720 C.3    98  LEU98       0.0019
     86  CD1       26.1620   32.5390  -12.8070 C.3    98  LEU98       0.0001
     87  CD2       26.8110   34.8420  -12.0720 C.3    98  LEU98       0.0001
@<TRIPOS>BOND
     1    51    50    2
     2    50    49    1
     3    48    49    1
     4    49    52    1
     5    47    45   am
     6    52    53    1
     7    42    41    2
     8    44    45    1
     9    44    43    1
    10    15    13   ar
    11    45    46    2
    12    41    40    1
    13    53    54    1
    14    13    14   ar
    15    13    12    1
    16    43    40    1
    17    40    39    1
    18    12     9    1
    19    54    55    1
    20     2     1    1
    21     2     3    1
    22     2     5    1
    23    34    33    2
    24    39    33   am
    25     8     9    1
    26     8     3   am
    27     1     7    1
    28     9    10    1
    29     3     4    2
    30    55    56    1
    31    33    32    1
    32     5     6    1
    33    11    10    2
    34    10    16   am
    35     7     6    1
    36    32    35    1
    37    32    31    1
    38    35    36    1
    39    16    17    1
    40    31    26   am
    41    61    58    1
    42    61    62    1
    43    27    26    2
    44    26    25    1
    45    64    62   ar
    46    36    38   ar
    47    36    37   ar
    48    24    25    1
    49    19    18    2
    50    58    57    1
    51    58    59    1
    52    17    18    1
    53    17    20    1
    54    62    63   ar
    55    25    28    1
    56    60    59    2
    57    75    73    1
    58    59    65   am
    59    20    21    1
    60    74    73    1
    61    73    72    2
    62    28    30    1
    63    28    29    1
    64    65    66    1
    65    21    22    2
    66    21    23   am
    67    72    71    1
    68    71    70    1
    69    66    67    1
    70    66    69    1
    71    70    69    1
    72    68    67    2
    73    67    76   am
    74    76    77    1
    75    83    82    2
    76    77    78    1
    77    82    81    1
    78    78    79    2
    79    84    81    1
    80    84    85    1
    81    81    80    1
    82    86    85    1
    83    85    87    1
