@<TRIPOS>MOLECULE
tmp/3rzeA01.pdb
 197 195 0 0 0
SMALL
GASTEIGER

@<TRIPOS>ATOM
      1  N          4.1860   36.6790   16.7630 N.3    76  TRP76      -0.1241
      2  CA         5.0620   35.5590   17.1060 C.3    76  TRP76       0.1605
      3  C          6.5200   36.0400   17.1120 C.2    76  TRP76       0.2264
      4  O          7.3130   35.5580   17.9190 O.2    76  TRP76      -0.2867
      5  CB         4.8840   34.4010   16.1180 C.3    76  TRP76       0.0550
      6  CG         5.7270   33.2010   16.4310 C.ar   76  TRP76       0.0003
      7  CD1        5.4410   32.2120   17.3230 C.ar   76  TRP76       0.0946
      8  CD2        7.0110   32.8770   15.8730 C.ar   76  TRP76       0.0152
      9  NE1        6.4410   31.2670   17.3220 N.ar   76  TRP76      -0.2442
     10  CE2        7.4240   31.6560   16.4510 C.ar   76  TRP76       0.0810
     11  CE3        7.8550   33.5020   14.9370 C.ar   76  TRP76       0.0012
     12  CZ2        8.6430   31.0460   16.1270 C.ar   76  TRP76       0.0191
     13  CZ3        9.0630   32.8970   14.6180 C.ar   76  TRP76       0.0001
     14  CH2        9.4460   31.6840   15.2090 C.ar   76  TRP76       0.0015
     15  N          8.4780   36.0280   20.8910 N.3    80  ASP80      -0.1225
     16  CA         9.7050   35.2430   21.0050 C.3    80  ASP80       0.1805
     17  C         10.8060   36.1500   21.5690 C.2    80  ASP80       0.2597
     18  O         11.5260   35.7440   22.4810 O.2    80  ASP80      -0.2718
     19  CB        10.0990   34.6470   19.6390 C.3    80  ASP80       0.1424
     20  CG        11.4700   33.9990   19.5900 C.2    80  ASP80       0.3668
     21  OD1       12.4310   34.6800   19.1730 O.co2  80  ASP80      -0.2456
     22  OD2       11.5770   32.8010   19.9410 O.co2  80  ASP80      -0.2456
     23  N         10.9070   37.3850   21.0460 N.am   81  TYR81      -0.1976
     24  CA        11.8960   38.3690   21.4760 C.3    81  TYR81       0.1639
     25  C         11.5670   39.0400   22.8150 C.2    81  TYR81       0.2290
     26  O         12.4840   39.2900   23.5960 O.2    81  TYR81      -0.2864
     27  CB        12.1790   39.3960   20.3680 C.3    81  TYR81       0.0560
     28  CG        13.1740   38.9030   19.3370 C.ar   81  TYR81      -0.0198
     29  CD1       14.5430   38.9270   19.5910 C.ar   81  TYR81      -0.0009
     30  CD2       12.7470   38.4020   18.1110 C.ar   81  TYR81      -0.0009
     31  CE1       15.4650   38.4840   18.6420 C.ar   81  TYR81       0.0417
     32  CE2       13.6580   37.9440   17.1580 C.ar   81  TYR81       0.0417
     33  CZ        15.0180   37.9870   17.4280 C.ar   81  TYR81       0.1957
     34  OH        15.9270   37.5380   16.4980 O.3    81  TYR81      -0.2866
     35  N         11.7870   36.0920   25.8580 N.3    84  SER84      -0.1202
     36  CA        13.1780   35.7020   26.0990 C.3    84  SER84       0.2020
     37  C         13.9700   36.8180   26.7930 C.2    84  SER84       0.2619
     38  O         14.8140   36.5230   27.6360 O.2    84  SER84      -0.2717
     39  CB        13.8570   35.2600   24.8100 C.3    84  SER84       0.2103
     40  OG        13.4780   33.9380   24.4690 O.3    84  SER84      -0.2182
     41  N         13.6650   38.0890   26.4750 N.am   85  THR85      -0.1952
     42  CA        14.2840   39.2510   27.1150 C.3    85  THR85       0.1897
     43  C         13.7380   39.3480   28.5440 C.2    85  THR85       0.2313
     44  O         14.5030   39.6040   29.4750 O.2    85  THR85      -0.2863
     45  CB        14.0170   40.5120   26.2870 C.3    85  THR85       0.1794
     46  OG1       14.5750   40.3170   24.9920 O.3    85  THR85      -0.2208
     47  CG2       14.6080   41.7700   26.9040 C.3    85  THR85       0.0378
     48  N         15.6300   36.8150   30.8070 N.3    88  ILE88      -0.1245
     49  CA        16.9200   37.3170   31.3040 C.3    88  ILE88       0.1561
     50  C         16.6930   38.4720   32.2810 C.2    88  ILE88       0.2260
     51  O         17.4250   38.5900   33.2610 O.2    88  ILE88      -0.2867
     52  CB        17.9790   37.6410   30.1980 C.3    88  ILE88       0.0252
     53  CG1       19.4050   37.7590   30.7980 C.3    88  ILE88       0.0019
     54  CG2       17.6100   38.8770   29.3510 C.3    88  ILE88       0.0019
     55  CD1       20.5380   37.3710   29.8760 C.3    88  ILE88       0.0001
     56  N         10.8550   45.5500   22.0970 N.3   131  TRP131     -0.1241
     57  CA        11.1570   44.6780   20.9600 C.3   131  TRP131      0.1605
     58  C         10.1110   44.7450   19.8560 C.2   131  TRP131      0.2264
     59  O         10.4500   44.5140   18.6970 O.2   131  TRP131     -0.2867
     60  CB        11.3650   43.2330   21.4230 C.3   131  TRP131      0.0550
     61  CG        12.7650   42.9920   21.8740 C.ar  131  TRP131      0.0003
     62  CD1       13.2530   43.1340   23.1380 C.ar  131  TRP131      0.0946
     63  CD2       13.8920   42.7130   21.0370 C.ar  131  TRP131      0.0152
     64  NE1       14.6100   42.9120   23.1490 N.ar  131  TRP131     -0.2442
     65  CE2       15.0290   42.6500   21.8700 C.ar  131  TRP131      0.0810
     66  CE3       14.0500   42.4920   19.6600 C.ar  131  TRP131      0.0012
     67  CZ2       16.3060   42.3610   21.3740 C.ar  131  TRP131      0.0191
     68  CZ3       15.3170   42.2230   19.1690 C.ar  131  TRP131      0.0001
     69  CH2       16.4220   42.1390   20.0230 C.ar  131  TRP131      0.0015
     70  N         12.9500   31.0700   10.0330 N.3   145  LYS145     -0.1245
     71  CA        11.7040   31.3630   10.7610 C.3   145  LYS145      0.1561
     72  C         10.7360   32.2980    9.9800 C.2   145  LYS145      0.2260
     73  O         10.6960   32.2340    8.7480 O.2   145  LYS145     -0.2867
     74  CB        11.9880   31.8450   12.2100 C.3   145  LYS145      0.0271
     75  CG        12.7840   33.1450   12.3450 C.3   145  LYS145      0.0035
     76  CD        12.6810   33.6940   13.7650 C.3   145  LYS145      0.0206
     77  CE        13.0290   35.1580   13.8560 C.3   145  LYS145      0.1093
     78  NZ        14.4770   35.4010   13.6430 N.3   145  LYS145     -0.1314
     79  N         22.1600   43.0240   14.7800 N.3   157  LYS157     -0.1245
     80  CA        22.0830   41.6700   15.3310 C.3   157  LYS157      0.1561
     81  C         23.1120   41.4520   16.4480 C.2   157  LYS157      0.2260
     82  O         22.8160   40.7360   17.4040 O.2   157  LYS157     -0.2867
     83  CB        22.2900   40.6220   14.2320 C.3   157  LYS157      0.0271
     84  CG        21.0090   39.9900   13.7130 C.3   157  LYS157      0.0035
     85  CD        21.3080   38.6180   13.1040 C.3   157  LYS157      0.0206
     86  CE        20.1350   37.9710   12.4020 C.3   157  LYS157      0.1093
     87  NZ        19.0830   37.4930   13.3410 N.3   157  LYS157     -0.1314
     88  N         22.1910   43.9050   19.7120 N.3   160  THR160     -0.1203
     89  CA        21.1020   43.3680   20.5400 C.3   160  THR160      0.1994
     90  C         21.5630   42.0940   21.2500 C.2   160  THR160      0.2617
     91  O         20.9900   41.7260   22.2760 O.2   160  THR160     -0.2717
     92  CB        19.8240   43.1270   19.7340 C.3   160  THR160      0.1784
     93  OG1       20.1020   42.2660   18.6310 O.3   160  THR160     -0.2211
     94  CG2       19.1620   44.4170   19.2780 C.3   160  THR160      0.0376
     95  N         22.5980   41.4240   20.6990 N.am  161  ALA161     -0.1979
     96  CA        23.1970   40.2240   21.2760 C.3   161  ALA161      0.1597
     97  C         23.8820   40.5900   22.5920 C.2   161  ALA161      0.2287
     98  O         23.7470   39.8580   23.5670 O.2   161  ALA161     -0.2864
     99  CB        24.2060   39.6230   20.3110 C.3   161  ALA161      0.0319
    100  N         21.0090   42.7770   25.1720 N.3   164  ASN164     -0.1225
    101  CA        20.0130   41.8680   25.7510 C.3   164  ASN164      0.1785
    102  C         20.5490   40.5480   26.3540 C.2   164  ASN164      0.2597
    103  O         19.7990   39.8620   27.0520 O.2   164  ASN164     -0.2718
    104  CB        18.8450   41.6370   24.7870 C.3   164  ASN164      0.1169
    105  CG        18.0780   42.8960   24.4790 C.2   164  ASN164      0.2627
    106  OD1       17.0550   43.1940   25.0990 O.2   164  ASN164     -0.2716
    107  ND2       18.5660   43.6790   23.5280 N.am  164  ASN164     -0.0877
    108  N         21.8300   40.1990   26.1160 N.am  165  PHE165     -0.1976
    109  CA        22.4000   38.9700   26.6710 C.3   165  PHE165      0.1639
    110  C         23.7980   39.1260   27.2660 C.2   165  PHE165      0.2290
    111  O         23.9340   38.9220   28.4660 O.2   165  PHE165     -0.2864
    112  CB        22.2990   37.7890   25.6890 C.3   165  PHE165      0.0560
    113  CG        22.7870   36.4520   26.2030 C.ar  165  PHE165     -0.0200
    114  CD1       21.9260   35.5910   26.8750 C.ar  165  PHE165     -0.0042
    115  CD2       24.0950   36.0330   25.9720 C.ar  165  PHE165     -0.0042
    116  CE1       22.3720   34.3470   27.3300 C.ar  165  PHE165     -0.0003
    117  CE2       24.5410   34.7910   26.4300 C.ar  165  PHE165     -0.0003
    118  CZ        23.6760   33.9550   27.1040 C.ar  165  PHE165     -0.0000
    119  N         20.0230   28.9330   32.6880 N.3   367  PHE367     -0.1241
    120  CA        19.8980   29.9840   31.6730 C.3   367  PHE367      0.1605
    121  C         21.1620   30.2280   30.8400 C.2   367  PHE367      0.2264
    122  O         21.0500   30.6880   29.7080 O.2   367  PHE367     -0.2867
    123  CB        19.4120   31.2830   32.3220 C.3   367  PHE367      0.0534
    124  CG        18.6840   32.2220   31.3940 C.ar  367  PHE367     -0.0203
    125  CD1       17.3210   32.0820   31.1670 C.ar  367  PHE367     -0.0042
    126  CD2       19.3500   33.2790   30.7860 C.ar  367  PHE367     -0.0042
    127  CE1       16.6420   32.9610   30.3210 C.ar  367  PHE367     -0.0003
    128  CE2       18.6710   34.1580   29.9390 C.ar  367  PHE367     -0.0003
    129  CZ        17.3190   33.9980   29.7180 C.ar  367  PHE367     -0.0000
    130  N         21.0940   28.9560   26.7710 N.3   371  TRP371     -0.1241
    131  CA        21.1810   30.0340   25.7950 C.3   371  TRP371      0.1605
    132  C         22.5620   30.3510   25.2310 C.2   371  TRP371      0.2264
    133  O         22.6230   30.7310   24.0610 O.2   371  TRP371     -0.2867
    134  CB        20.5010   31.2980   26.3190 C.3   371  TRP371      0.0550
    135  CG        19.0060   31.2250   26.3360 C.ar  371  TRP371      0.0003
    136  CD1       18.2050   31.0750   27.4300 C.ar  371  TRP371      0.0946
    137  CD2       18.1310   31.3420   25.2100 C.ar  371  TRP371      0.0152
    138  NE1       16.8820   31.0950   27.0550 N.ar  371  TRP371     -0.2442
    139  CE2       16.8060   31.2700   25.6980 C.ar  371  TRP371      0.0810
    140  CE3       18.3350   31.5110   23.8310 C.ar  371  TRP371      0.0012
    141  CZ2       15.6910   31.3460   24.8560 C.ar  371  TRP371      0.0191
    142  CZ3       17.2300   31.5870   22.9980 C.ar  371  TRP371      0.0001
    143  CH2       15.9270   31.5000   23.5100 C.ar  371  TRP371      0.0015
    144  N         23.5350   29.0300   21.6680 N.3   374  TYR374     -0.1227
    145  CA        22.8120   29.7780   20.6320 C.3   374  TYR374      0.1736
    146  C         23.4320   31.1580   20.3930 C.2   374  TYR374      0.2595
    147  O         23.5170   31.5860   19.2430 O.2   374  TYR374     -0.2718
    148  CB        21.3130   29.8940   20.9940 C.3   374  TYR374      0.0548
    149  CG        20.5380   30.9460   20.2220 C.ar  374  TYR374     -0.0200
    150  CD1       20.1160   30.7130   18.9170 C.ar  374  TYR374     -0.0009
    151  CD2       20.1900   32.1580   20.8140 C.ar  374  TYR374     -0.0009
    152  CE1       19.4010   31.6770   18.2050 C.ar  374  TYR374      0.0417
    153  CE2       19.4640   33.1240   20.1160 C.ar  374  TYR374      0.0417
    154  CZ        19.0620   32.8740   18.8150 C.ar  374  TYR374      0.1957
    155  OH        18.3520   33.8210   18.1180 O.3   374  TYR374     -0.2866
    156  N         23.8220   31.8630   21.4730 N.am  375  PHE375     -0.1976
    157  CA        24.4360   33.1870   21.3790 C.3   375  PHE375      0.1639
    158  C         25.8650   33.1260   20.8760 C.2   375  PHE375      0.2290
    159  O         26.3320   34.0880   20.2610 O.2   375  PHE375     -0.2864
    160  CB        24.3140   33.9720   22.6900 C.3   375  PHE375      0.0560
    161  CG        22.9920   34.6900   22.8100 C.ar  375  PHE375     -0.0200
    162  CD1       21.9230   34.1060   23.4780 C.ar  375  PHE375     -0.0042
    163  CD2       22.8060   35.9400   22.2300 C.ar  375  PHE375     -0.0042
    164  CE1       20.6960   34.7660   23.5770 C.ar  375  PHE375     -0.0003
    165  CE2       21.5740   36.5950   22.3230 C.ar  375  PHE375     -0.0003
    166  CZ        20.5310   36.0060   23.0030 C.ar  375  PHE375     -0.0000
    167  N         25.5230   32.7580   17.1820 N.3   378  PHE378     -0.1241
    168  CA        25.1960   34.0660   16.6270 C.3   378  PHE378      0.1605
    169  C         26.5020   34.8040   16.3700 C.2   378  PHE378      0.2264
    170  O         26.5930   35.5760   15.4200 O.2   378  PHE378     -0.2867
    171  CB        24.3290   34.8480   17.6220 C.3   378  PHE378      0.0534
    172  CG        22.9700   35.2490   17.1040 C.ar  378  PHE378     -0.0203
    173  CD1       22.6320   36.5900   16.9600 C.ar  378  PHE378     -0.0042
    174  CD2       22.0230   34.2870   16.7640 C.ar  378  PHE378     -0.0042
    175  CE1       21.3730   36.9630   16.4800 C.ar  378  PHE378     -0.0003
    176  CE2       20.7710   34.6610   16.2690 C.ar  378  PHE378     -0.0003
    177  CZ        20.4500   35.9960   16.1390 C.ar  378  PHE378     -0.0000
    178  N         17.9730   26.8910   19.2720 N.3   397  ILE397     -0.1245
    179  CA        16.7860   27.7100   19.5420 C.3   397  ILE397      0.1561
    180  C         15.8290   26.9230   20.4390 C.2   397  ILE397      0.2260
    181  O         15.1380   27.5240   21.2620 O.2   397  ILE397     -0.2867
    182  CB        16.0760   28.3020   18.2870 C.3   397  ILE397      0.0252
    183  CG1       15.5600   27.2250   17.3150 C.3   397  ILE397      0.0019
    184  CG2       16.9360   29.3260   17.5720 C.3   397  ILE397      0.0019
    185  CD1       14.0720   27.2490   17.1210 C.3   397  ILE397      0.0001
    186  N         14.4760   27.0070   24.5070 N.3   401  TYR401     -0.1241
    187  CA        13.0800   26.6990   24.8230 C.3   401  TYR401      0.1605
    188  C         13.0440   25.5890   25.8910 C.2   401  TYR401      0.2264
    189  O         12.0140   25.3980   26.5380 O.2   401  TYR401     -0.2867
    190  CB        12.2840   26.2720   23.5590 C.3   401  TYR401      0.0534
    191  CG        12.1380   27.3090   22.4540 C.ar  401  TYR401     -0.0201
    192  CD1       11.9700   28.6610   22.7500 C.ar  401  TYR401     -0.0009
    193  CD2       12.0530   26.9230   21.1160 C.ar  401  TYR401     -0.0009
    194  CE1       11.8120   29.6130   21.7380 C.ar  401  TYR401      0.0417
    195  CE2       11.8940   27.8660   20.0960 C.ar  401  TYR401      0.0417
    196  CZ        11.7650   29.2090   20.4120 C.ar  401  TYR401      0.1957
    197  OH        11.6020   30.1390   19.4130 O.3   401  TYR401     -0.2866
@<TRIPOS>BOND
     1    73    72    2
     2    72    71    1
     3    70    71    1
     4    71    74    1
     5    74    75    1
     6    75    76    1
     7    86    85    1
     8    86    87    1
     9    85    84    1
    10    78    77    1
    11    84    83    1
    12    76    77    1
    13    83    80    1
    14    13    11   ar
    15    13    14   ar
    16    79    80    1
    17    11     8   ar
    18    14    12   ar
    19    80    81    1
    20   170   169    2
    21     8     6   ar
    22     8    10   ar
    23     5     6    1
    24     5     2    1
    25    12    10   ar
    26   177   176   ar
    27   177   175   ar
    28   176   174   ar
    29   169   168    1
    30     6     7   ar
    31    81    82    2
    32    10     9   ar
    33   175   173   ar
    34    34    33    1
    35   168   167    1
    36   168   171    1
    37     1     2    1
    38   174   172   ar
    39   173   172   ar
    40   172   171    1
    41     2     3    1
    42     3     4    2
    43   185   183    1
    44    32    33   ar
    45    32    30   ar
    46   183   182    1
    47     9     7   ar
    48    33    31   ar
    49   184   182    1
    50    30    28   ar
    51   155   154    1
    52   152   154   ar
    53   152   150   ar
    54   182   179    1
    55    93    92    1
    56    31    29   ar
    57    59    58    2
    58   154   153   ar
    59   150   149   ar
    60    68    66   ar
    61    68    69   ar
    62    21    20   ar
    63   147   146    2
    64   178   179    1
    65    94    92    1
    66    28    29   ar
    67    28    27    1
    68   197   196    1
    69   179   180    1
    70    20    19    1
    71    20    22   ar
    72    19    16    1
    73    66    63   ar
    74    88    89    1
    75    92    89    1
    76    58    57    1
    77    69    67   ar
    78   195   196   ar
    79   195   193   ar
    80   153   151   ar
    81   149   151   ar
    82   149   148    1
    83   159   158    2
    84    99    96    1
    85    27    24    1
    86   146   145    1
    87   146   156   am
    88   196   194   ar
    89   180   181    2
    90    89    90    1
    91   145   148    1
    92   145   144    1
    93    95    90   am
    94    95    96    1
    95   158   157    1
    96    15    16    1
    97    57    60    1
    98    57    56    1
    99    16    17    1
   100    63    65   ar
   101    63    61   ar
   102    23    24    1
   103    23    17   am
   104   193   191   ar
   105    90    91    2
   106    96    97    1
   107    67    65   ar
   108   157   156    1
   109   157   160    1
   110    60    61    1
   111    24    25    1
   112    17    18    2
   113   194   192   ar
   114    65    64   ar
   115    61    62   ar
   116   163   165   ar
   117   163   161   ar
   118   165   166   ar
   119   191   192   ar
   120   191   190    1
   121    97    98    2
   122   160   161    1
   123   161   162   ar
   124    25    26    2
   125   142   143   ar
   126   142   140   ar
   127   166   164   ar
   128    62    64   ar
   129   162   164   ar
   130   143   141   ar
   131   107   105   am
   132   190   187    1
   133   140   137   ar
   134   133   132    2
   135    40    39    1
   136   105   104    1
   137   105   106    2
   138   186   187    1
   139   104   101    1
   140    39    36    1
   141   187   188    1
   142   141   139   ar
   143    46    45    1
   144   100   101    1
   145   137   139   ar
   146   137   135   ar
   147   132   131    1
   148   112   113    1
   149   112   109    1
   150   139   138   ar
   151   101   102    1
   152   131   134    1
   153   131   130    1
   154    35    36    1
   155   188   189    2
   156   115   113   ar
   157   115   117   ar
   158    36    37    1
   159   108   102   am
   160   108   109    1
   161   113   114   ar
   162    45    47    1
   163    45    42    1
   164   134   135    1
   165   135   136   ar
   166   102   103    2
   167   117   118   ar
   168    41    37   am
   169    41    42    1
   170   109   110    1
   171    37    38    2
   172   114   116   ar
   173   138   136   ar
   174   118   116   ar
   175    42    43    1
   176   110   111    2
   177    43    44    2
   178    54    52    1
   179   122   121    2
   180   129   128   ar
   181   129   127   ar
   182    55    53    1
   183   128   126   ar
   184    52    53    1
   185    52    49    1
   186   127   125   ar
   187   126   124   ar
   188    48    49    1
   189   121   120    1
   190   125   124   ar
   191    49    50    1
   192   124   123    1
   193   120   123    1
   194   120   119    1
   195    50    51    2
