@<TRIPOS>MOLECULE
tmp/3rzfA00.pdb
 142 134 0 0 0
SMALL
GASTEIGER

@<TRIPOS>ATOM
      1  N         97.6740  -21.2390   61.4110 N.3     5  ARG5       -0.1231
      2  CA        96.5300  -22.1460   61.5830 C.3     5  ARG5        0.1694
      3  C         95.5160  -22.0100   60.4340 C.2     5  ARG5        0.2591
      4  O         95.7560  -21.2710   59.4720 O.2     5  ARG5       -0.2718
      5  CB        95.8400  -21.8920   62.9380 C.3     5  ARG5        0.0321
      6  CG        96.7490  -21.9950   64.1800 C.3     5  ARG5        0.0489
      7  CD        95.9520  -21.8640   65.4920 C.3     5  ARG5        0.2205
      8  NE        96.8120  -21.8340   66.6820 N.pl3   5  ARG5       -0.0865
      9  CZ        96.3800  -21.9070   67.9430 C.cat   5  ARG5        0.5346
     10  NH1       95.0830  -22.0220   68.2160 N.pl3   5  ARG5        0.1354
     11  NH2       97.2550  -21.8670   68.9430 N.pl3   5  ARG5        0.1354
     12  N         94.3920  -22.7240   60.5370 N.am    6  LEU6       -0.1980
     13  CA        93.3320  -22.6540   59.5250 C.3     6  LEU6        0.1596
     14  C         91.9170  -22.5400   60.0880 C.2     6  LEU6        0.2287
     15  O         91.1360  -21.7050   59.6270 O.2     6  LEU6       -0.2864
     16  CB        93.4280  -23.8230   58.5380 C.3     6  LEU6        0.0297
     17  CG        94.3170  -23.5720   57.3160 C.3     6  LEU6        0.0022
     18  CD1       94.7210  -24.8790   56.6500 C.3     6  LEU6        0.0001
     19  CD2       93.6430  -22.6320   56.3130 C.3     6  LEU6        0.0001
     20  N         93.1240  -27.3480   62.3040 N.3    14  VAL14      -0.1245
     21  CA        93.7120  -27.5310   60.9790 C.3    14  VAL14       0.1561
     22  C         94.8190  -26.5010   60.8140 C.2    14  VAL14       0.2260
     23  O         94.6640  -25.3530   61.2280 O.2    14  VAL14      -0.2867
     24  CB        92.6790  -27.3320   59.8520 C.3    14  VAL14       0.0252
     25  CG1       93.2440  -27.8150   58.5250 C.3    14  VAL14       0.0019
     26  CG2       91.3790  -28.0650   60.1660 C.3    14  VAL14       0.0019
     27  N         97.9650  -24.5790   58.3700 N.3    16  ARG16      -0.1245
     28  CA        98.5610  -24.2570   57.0790 C.3    16  ARG16       0.1563
     29  C        100.0690  -24.0930   57.2390 C.2    16  ARG16       0.2260
     30  O        100.5610  -23.0130   57.5780 O.2    16  ARG16      -0.2867
     31  CB        97.9350  -22.9880   56.4860 C.3    16  ARG16       0.0307
     32  CG        98.4940  -22.5780   55.1210 C.3    16  ARG16       0.0489
     33  CD        97.9250  -21.2510   54.6290 C.3    16  ARG16       0.2205
     34  NE        98.1480  -20.1610   55.5770 N.pl3  16  ARG16      -0.0865
     35  CZ        97.2050  -19.6330   56.3540 C.cat  16  ARG16       0.5346
     36  NH1       95.9580  -20.0830   56.3030 N.pl3  16  ARG16       0.1354
     37  NH2       97.5100  -18.6490   57.1860 N.pl3  16  ARG16       0.1354
     38  N         98.3510  -29.3370   55.2060 N.3    27  ALA27      -0.1245
     39  CA        97.2640  -29.0560   56.1500 C.3    27  ALA27       0.1562
     40  C         97.0940  -30.1830   57.1700 C.2    27  ALA27       0.2260
     41  O         96.8110  -31.3220   56.7930 O.2    27  ALA27      -0.2867
     42  CB        95.9620  -28.8140   55.3990 C.3    27  ALA27       0.0290
     43  N         95.4190  -31.9830   60.5810 N.3    29  LYS29      -0.1245
     44  CA        94.4360  -32.1820   61.6210 C.3    29  LYS29       0.1561
     45  C         95.1780  -32.6880   62.8390 C.2    29  LYS29       0.2260
     46  O         95.8700  -33.7070   62.7720 O.2    29  LYS29      -0.2867
     47  CB        93.3810  -33.2030   61.1900 C.3    29  LYS29       0.0271
     48  CG        92.1780  -33.3040   62.1350 C.3    29  LYS29       0.0035
     49  CD        91.0090  -34.0720   61.5080 C.3    29  LYS29       0.0206
     50  CE        89.6940  -33.7840   62.2310 C.3    29  LYS29       0.1093
     51  NZ        88.5030  -34.2160   61.4470 N.3    29  LYS29      -0.1314
     52  N         89.2990  -34.3650   49.3370 N.3    59  VAL59      -0.1245
     53  CA        90.7550  -34.3540   49.4650 C.3    59  VAL59       0.1561
     54  C         91.3600  -35.7460   49.7290 C.2    59  VAL59       0.2260
     55  O         90.6570  -36.6740   50.1390 O.2    59  VAL59      -0.2867
     56  CB        91.1700  -33.3500   50.5700 C.3    59  VAL59       0.0252
     57  CG1       92.6790  -33.2200   50.6660 C.3    59  VAL59       0.0019
     58  CG2       90.5440  -31.9870   50.2970 C.3    59  VAL59       0.0019
     59  N         97.2500  -33.2360   55.0670 N.3    81  MET81      -0.1230
     60  CA        96.5040  -33.1760   53.8120 C.3    81  MET81       0.1702
     61  C         96.9810  -32.0560   52.9010 C.2    81  MET81       0.2592
     62  O         97.6870  -31.1520   53.3360 O.2    81  MET81      -0.2718
     63  CB        95.0240  -32.9530   54.1050 C.3    81  MET81       0.0401
     64  CG        94.2960  -34.1680   54.6310 C.3    81  MET81       0.0596
     65  SD        93.0290  -33.7070   55.8220 S.3    81  MET81      -0.1393
     66  CE        94.0450  -33.3390   57.2540 C.3    81  MET81       0.0692
     67  N         96.5680  -32.1220   51.6370 N.am   82  GLU82      -0.1966
     68  CA        96.8680  -31.0860   50.6470 C.3    82  GLU82       0.1733
     69  C         96.0670  -29.8050   50.8980 C.2    82  GLU82       0.2616
     70  O         94.8630  -29.8490   51.1330 O.2    82  GLU82      -0.2715
     71  CB        96.6320  -31.6060   49.2140 C.3    82  GLU82       0.0429
     72  CG        95.2380  -32.2200   48.9530 C.3    82  GLU82       0.1163
     73  CD        95.0230  -32.7170   47.5170 C.2    82  GLU82       0.3649
     74  OE1       93.8800  -32.6060   47.0170 O.co2  82  GLU82      -0.2457
     75  OE2       95.9810  -33.2260   46.8920 O.co2  82  GLU82      -0.2457
     76  N         96.7510  -28.6690   50.8660 N.am   83  TYR83      -0.1960
     77  CA        96.0980  -27.3730   50.9910 C.3    83  TYR83       0.1771
     78  C         95.8120  -26.8640   49.5870 C.2    83  TYR83       0.2620
     79  O         96.5930  -27.1080   48.6660 O.2    83  TYR83      -0.2715
     80  CB        96.9830  -26.4210   51.7940 C.3    83  TYR83       0.0574
     81  CG        96.6030  -24.9550   51.7710 C.ar   83  TYR83      -0.0198
     82  CD1       95.3680  -24.5130   52.2510 C.ar   83  TYR83      -0.0009
     83  CD2       97.5080  -24.0020   51.3070 C.ar   83  TYR83      -0.0009
     84  CE1       95.0380  -23.1520   52.2390 C.ar   83  TYR83       0.0417
     85  CE2       97.1930  -22.6460   51.2920 C.ar   83  TYR83       0.0417
     86  CZ        95.9610  -22.2240   51.7570 C.ar   83  TYR83       0.1957
     87  OH        95.6660  -20.8760   51.7350 O.3    83  TYR83      -0.2866
     88  N         94.6610  -26.2600   49.2990 N.am   84  CYS84      -0.1953
     89  CA        94.2990  -26.1210   47.8490 C.3    84  CYS84       0.1819
     90  C         94.1100  -24.6950   47.1380 C.2    84  CYS84       0.2177
     91  O         94.8490  -24.4830   46.1760 O.2    84  CYS84      -0.4542
     92  CB        93.1220  -27.0930   47.6740 C.3    84  CYS84       0.0997
     93  SG        93.2710  -28.6400   48.6200 S.3    84  CYS84      -0.0797
     94  N         93.2240  -23.7020   47.4700 N.2    85  GLU85      -0.2326
     95  CA        93.3760  -22.3380   46.7890 C.3    85  GLU85       0.1876
     96  C         92.1240  -21.4410   46.5760 C.2    85  GLU85       0.2644
     97  O         92.3060  -20.2350   46.4560 O.2    85  GLU85      -0.2712
     98  CB        94.1610  -22.5550   45.5040 C.3    85  GLU85       0.0893
     99  CG        95.5700  -23.0290   45.7670 C.3    85  GLU85       0.2714
    100  CD        96.6040  -22.5730   44.7490 C.2    85  GLU85       0.4042
    101  OE1       96.3510  -22.6960   43.5300 O.co2  85  GLU85      -0.2416
    102  OE2       97.6680  -22.0930   45.1630 O.co2  85  GLU85      -0.2416
    103  N         90.8840  -21.9790   46.5540 N.am   86  GLY86      -0.1938
    104  CA        89.7390  -21.1200   46.3300 C.3    86  GLY86       0.2014
    105  C         88.8910  -20.9020   47.5860 C.2    86  GLY86       0.2639
    106  O         87.8280  -20.2740   47.5310 O.2    86  GLY86      -0.2714
    107  N         89.3280  -21.4490   48.7190 N.am   87  GLY87      -0.1939
    108  CA        88.6080  -21.2460   49.9590 C.3    87  GLY87       0.2014
    109  C         87.3210  -22.0680   50.0850 C.2    87  GLY87       0.2638
    110  O         87.0920  -23.0030   49.3290 O.2    87  GLY87      -0.2714
    111  N         86.5490  -21.6770   51.0770 N.am   88  ASP88      -0.1971
    112  CA        85.3110  -22.3130   51.4040 C.3    88  ASP88       0.1709
    113  C         84.2540  -21.8770   50.5510 C.2    88  ASP88       0.2293
    114  O         84.1850  -20.7340   50.0910 O.2    88  ASP88      -0.2864
    115  CB        84.9470  -22.0570   52.8670 C.3    88  ASP88       0.1436
    116  CG        85.9940  -22.5850   53.8290 C.2    88  ASP88       0.3671
    117  OD1       86.7870  -23.4580   53.4220 O.co2  88  ASP88      -0.2456
    118  OD2       86.0210  -22.1250   54.9890 O.co2  88  ASP88      -0.2456
    119  N         82.8970  -18.7420   52.0910 N.3    91  LYS91      -0.1245
    120  CA        83.6160  -17.4860   51.8560 C.3    91  LYS91       0.1561
    121  C         83.1470  -16.8500   50.5490 C.2    91  LYS91       0.2260
    122  O         83.0500  -15.6250   50.4390 O.2    91  LYS91      -0.2867
    123  CB        85.1360  -17.6910   51.8450 C.3    91  LYS91       0.0271
    124  CG        85.9280  -16.4520   52.2810 C.3    91  LYS91       0.0035
    125  CD        87.3840  -16.4900   51.8260 C.3    91  LYS91       0.0206
    126  CE        88.0890  -15.1780   52.1570 C.3    91  LYS91       0.1093
    127  NZ        89.3610  -15.0220   51.4010 N.3    91  LYS91      -0.1314
    128  N         85.7720  -26.6060   49.5180 N.3   137  VAL137     -0.1245
    129  CA        86.6850  -25.7270   48.8090 C.3   137  VAL137      0.1561
    130  C         86.3010  -25.5480   47.3350 C.2   137  VAL137      0.2260
    131  O         86.2330  -26.5160   46.5660 O.2   137  VAL137     -0.2867
    132  CB        88.1460  -26.2510   48.8980 C.3   137  VAL137      0.0252
    133  CG1       89.1360  -25.2350   48.3260 C.3   137  VAL137      0.0019
    134  CG2       88.5090  -26.5840   50.3290 C.3   137  VAL137      0.0019
    135  N         85.5000  -31.8240   52.4290 N.3   150  ILE150     -0.1245
    136  CA        86.4960  -31.9480   53.4510 C.3   150  ILE150      0.1561
    137  C         85.8350  -32.1390   54.8260 C.2   150  ILE150      0.2260
    138  O         84.6240  -32.1960   54.9500 O.2   150  ILE150     -0.2867
    139  CB        87.3790  -30.6870   53.4700 C.3   150  ILE150      0.0252
    140  CG1       88.0700  -30.5330   52.1160 C.3   150  ILE150      0.0019
    141  CG2       88.4000  -30.7420   54.5970 C.3   150  ILE150      0.0019
    142  CD1       88.7660  -29.2020   51.9330 C.3   150  ILE150      0.0001
@<TRIPOS>BOND
     1   101   100   ar
     2   100   102   ar
     3   100    99    1
     4    98    99    1
     5    98    95    1
     6    99    91    1
     7    91    90    1
     8   104   103    1
     9   104   105    1
    10    97    96    2
    11   103    96   am
    12   131   130    2
    13    96    95    1
    14    95    94    1
    15    75    73   ar
    16    74    73   ar
    17    90    94    2
    18    90    89    1
    19   130   129    1
    20    73    72    1
    21   106   105    2
    22   105   107   am
    23    92    89    1
    24    92    93    1
    25    89    88    1
    26   133   132    1
    27    79    78    2
    28   107   108    1
    29   129   132    1
    30   129   128    1
    31   132   134    1
    32    72    71    1
    33    71    68    1
    34    88    78   am
    35   110   109    2
    36    52    53    1
    37    53    54    1
    38    53    56    1
    39    78    77    1
    40    54    55    2
    41   108   109    1
    42   109   111   am
    43   114   113    2
    44    58    56    1
    45   122   121    2
    46   121   120    1
    47   113   112    1
    48    56    57    1
    49    68    69    1
    50    68    67    1
    51    76    69   am
    52    76    77    1
    53    69    70    2
    54    77    80    1
    55   111   112    1
    56    85    83   ar
    57    85    86   ar
    58    83    81   ar
    59   127   126    1
    60   112   115    1
    61    67    61   am
    62    87    86    1
    63    86    84   ar
    64    81    80    1
    65    81    82   ar
    66   125   126    1
    67   125   124    1
    68   123   120    1
    69   123   124    1
    70   120   119    1
    71   142   140    1
    72   140   139    1
    73    84    82   ar
    74   135   136    1
    75   115   116    1
    76    61    62    2
    77    61    60    1
    78   117   116   ar
    79   136   139    1
    80   136   137    1
    81   139   141    1
    82    60    63    1
    83    60    59    1
    84   116   118   ar
    85    63    64    1
    86    33    32    1
    87    33    34    1
    88    64    65    1
    89   137   138    2
    90    32    31    1
    91    38    39    1
    92    42    39    1
    93    34    35    2
    94    65    66    1
    95    39    40    1
    96    36    35    1
    97    19    17    1
    98    35    37    1
    99    31    28    1
   100    18    17    1
   101    41    40    2
   102    28    29    1
   103    28    27    1
   104    29    30    2
   105    17    16    1
   106    25    24    1
   107    16    13    1
   108     4     3    2
   109    13    14    1
   110    13    12    1
   111    15    14    2
   112    24    26    1
   113    24    21    1
   114     3    12   am
   115     3     2    1
   116    43    44    1
   117    22    21    1
   118    22    23    2
   119    21    20    1
   120    47    44    1
   121    47    48    1
   122     1     2    1
   123    51    50    1
   124    49    48    1
   125    49    50    1
   126     2     5    1
   127    44    45    1
   128    46    45    2
   129     5     6    1
   130     6     7    1
   131     7     8    1
   132     8     9    2
   133     9    10    1
   134     9    11    1
