@<TRIPOS>MOLECULE
tmp/3s00A00.pdb
 182 174 0 0 0
SMALL
GASTEIGER

@<TRIPOS>ATOM
      1  N        -80.7920   96.5040  -67.9150 N.3    10  ILE10      -0.1231
      2  CA       -79.7010   96.7750  -66.9980 C.3    10  ILE10       0.1692
      3  C        -79.6680   95.7700  -65.8580 C.2    10  ILE10       0.2593
      4  O        -78.6410   95.1390  -65.6160 O.2    10  ILE10      -0.2718
      5  CB       -79.7930   98.2080  -66.4220 C.3    10  ILE10       0.0266
      6  CG1      -79.5520   99.2270  -67.5360 C.3    10  ILE10       0.0019
      7  CG2      -78.7690   98.3940  -65.3140 C.3    10  ILE10       0.0020
      8  CD1      -79.6410  100.6720  -67.0840 C.3    10  ILE10       0.0001
      9  N        -80.7890   95.6160  -65.1620 N.am   11  GLY11      -0.1942
     10  CA       -80.8310   94.6760  -64.0580 C.3    11  GLY11       0.2014
     11  C        -82.1840   94.5400  -63.3860 C.2    11  GLY11       0.2639
     12  O        -83.2260   94.7900  -63.9980 O.2    11  GLY11      -0.2714
     13  N        -82.1620   94.1310  -62.1190 N.am   12  GLU12      -0.1963
     14  CA       -83.3780   93.9520  -61.3360 C.3    12  GLU12       0.1733
     15  C        -83.4720   95.0070  -60.2480 C.2    12  GLU12       0.2617
     16  O        -82.6920   95.0040  -59.2960 O.2    12  GLU12      -0.2715
     17  CB       -83.4030   92.5650  -60.6890 C.3    12  GLU12       0.0429
     18  CG       -83.6260   91.4160  -61.6500 C.3    12  GLU12       0.1163
     19  CD       -84.9610   91.5080  -62.3590 C.2    12  GLU12       0.3649
     20  OE1      -85.9810   91.7740  -61.6820 O.co2  12  GLU12      -0.2457
     21  OE2      -84.9920   91.3080  -63.5930 O.co2  12  GLU12      -0.2457
     22  N        -84.4300   95.9120  -60.3910 N.am   13  GLY13      -0.1940
     23  CA       -84.5950   96.9470  -59.3940 C.3    13  GLY13       0.2014
     24  C        -85.3780   96.3970  -58.2240 C.2    13  GLY13       0.2639
     25  O        -85.8690   95.2690  -58.2680 O.2    13  GLY13      -0.2714
     26  N        -85.5060   97.1930  -57.1730 N.am   14  THR14      -0.1950
     27  CA       -86.2390   96.7600  -56.0000 C.3    14  THR14       0.1897
     28  C        -87.7350   96.6690  -56.3140 C.2    14  THR14       0.2313
     29  O        -88.4450   95.8190  -55.7740 O.2    14  THR14      -0.2863
     30  CB       -86.0040   97.7350  -54.8300 C.3    14  THR14       0.1794
     31  OG1      -86.6560   98.9810  -55.0990 O.3    14  THR14      -0.2208
     32  CG2      -84.5090   98.0010  -54.6600 C.3    14  THR14       0.0378
     33  N        -84.9690   97.1630  -64.5600 N.3    18  VAL18      -0.1245
     34  CA       -84.3960   98.4430  -64.9690 C.3    18  VAL18       0.1561
     35  C        -83.8480   98.2680  -66.3750 C.2    18  VAL18       0.2260
     36  O        -83.1890   97.2810  -66.6790 O.2    18  VAL18      -0.2867
     37  CB       -83.2470   98.8900  -64.0510 C.3    18  VAL18       0.0252
     38  CG1      -82.7650  100.2790  -64.4680 C.3    18  VAL18       0.0019
     39  CG2      -83.7110   98.9020  -62.6050 C.3    18  VAL18       0.0019
     40  N        -82.0600  105.6660  -67.6080 N.3    31  ALA31      -0.1245
     41  CA       -82.3150  104.4560  -66.8350 C.3    31  ALA31       0.1562
     42  C        -83.8190  104.4550  -66.6230 C.2    31  ALA31       0.2260
     43  O        -84.3400  105.2560  -65.8380 O.2    31  ALA31      -0.2867
     44  CB       -81.6090  104.5210  -65.4950 C.3    31  ALA31       0.0290
     45  N        -87.1740  102.6840  -65.3110 N.3    33  LYS33      -0.1245
     46  CA       -87.5990  101.6910  -64.3450 C.3    33  LYS33       0.1561
     47  C        -89.1050  101.4580  -64.3850 C.2    33  LYS33       0.2260
     48  O        -89.8860  102.3820  -64.1730 O.2    33  LYS33      -0.2867
     49  CB       -87.1750  102.1370  -62.9470 C.3    33  LYS33       0.0271
     50  CG       -85.7330  102.6300  -62.9000 C.3    33  LYS33       0.0035
     51  CD       -85.2540  102.8210  -61.4780 C.3    33  LYS33       0.0206
     52  CE       -83.8210  103.3070  -61.4620 C.3    33  LYS33       0.1093
     53  NZ       -83.2820  103.2790  -60.0820 N.3    33  LYS33      -0.1314
     54  N        -78.9680  110.9730  -58.1770 N.3    60  VAL60      -0.1245
     55  CA       -79.3040  110.6270  -59.5550 C.3    60  VAL60       0.1561
     56  C        -80.6270  111.3170  -59.8820 C.2    60  VAL60       0.2260
     57  O        -81.6640  111.0330  -59.2820 O.2    60  VAL60      -0.2867
     58  CB       -79.4500  109.1010  -59.7190 C.3    60  VAL60       0.0252
     59  CG1      -79.9440  108.7590  -61.1110 C.3    60  VAL60       0.0019
     60  CG2      -78.1180  108.4380  -59.4580 C.3    60  VAL60       0.0019
     61  N        -84.7900  107.9840  -65.0140 N.3    76  PHE76      -0.1227
     62  CA       -83.6200  108.4720  -64.2930 C.3    76  PHE76       0.1736
     63  C        -82.4460  108.7610  -65.2220 C.2    76  PHE76       0.2595
     64  O        -82.3150  108.1600  -66.2820 O.2    76  PHE76      -0.2718
     65  CB       -83.1760  107.4100  -63.2730 C.3    76  PHE76       0.0547
     66  CG       -84.0120  107.3660  -62.0330 C.ar   76  PHE76      -0.0202
     67  CD1      -83.7220  108.1990  -60.9590 C.ar   76  PHE76      -0.0042
     68  CD2      -85.1000  106.5010  -61.9410 C.ar   76  PHE76      -0.0042
     69  CE1      -84.5070  108.1800  -59.7950 C.ar   76  PHE76      -0.0003
     70  CE2      -85.8950  106.4690  -60.7880 C.ar   76  PHE76      -0.0003
     71  CZ       -85.6040  107.3060  -59.7160 C.ar   76  PHE76      -0.0000
     72  N        -81.5880  109.6900  -64.8150 N.am   77  GLU77      -0.1965
     73  CA       -80.4010  109.9740  -65.6160 C.3    77  GLU77       0.1733
     74  C        -79.5790  108.6870  -65.5680 C.2    77  GLU77       0.2616
     75  O        -79.5460  108.0050  -64.5480 O.2    77  GLU77      -0.2715
     76  CB       -79.6010  111.1410  -65.0250 C.3    77  GLU77       0.0429
     77  CG       -78.9800  110.8840  -63.6740 C.3    77  GLU77       0.1163
     78  CD       -78.0150  111.9840  -63.2570 C.2    77  GLU77       0.3649
     79  OE1      -77.0480  112.2480  -64.0020 O.co2  77  GLU77      -0.2457
     80  OE2      -78.2180  112.5890  -62.1870 O.co2  77  GLU77      -0.2457
     81  N        -78.9470  108.3430  -66.6820 N.am   78  PHE78      -0.1960
     82  CA       -78.1440  107.1310  -66.7740 C.3    78  PHE78       0.1771
     83  C        -76.6950  107.3700  -66.3150 C.2    78  PHE78       0.2619
     84  O        -76.0410  108.3350  -66.7310 O.2    78  PHE78      -0.2715
     85  CB       -78.1760  106.6280  -68.2320 C.3    78  PHE78       0.0574
     86  CG       -77.4180  105.3460  -68.4690 C.ar   78  PHE78      -0.0200
     87  CD1      -76.1010  105.3690  -68.8960 C.ar   78  PHE78      -0.0042
     88  CD2      -78.0220  104.1050  -68.2380 C.ar   78  PHE78      -0.0042
     89  CE1      -75.3900  104.1920  -69.0930 C.ar   78  PHE78      -0.0003
     90  CE2      -77.3140  102.9250  -68.4310 C.ar   78  PHE78      -0.0003
     91  CZ       -75.9920  102.9680  -68.8610 C.ar   78  PHE78      -0.0000
     92  N        -76.2190  106.5200  -65.4100 N.am   79  LEU79      -0.1963
     93  CA       -74.8360  106.6010  -64.9550 C.3    79  LEU79       0.1728
     94  C        -74.1930  105.3200  -65.4840 C.2    79  LEU79       0.2616
     95  O        -74.8980  104.3650  -65.7520 O.2    79  LEU79      -0.2715
     96  CB       -74.7800  106.7530  -63.4310 C.3    79  LEU79       0.0311
     97  CG       -74.8250  108.2590  -63.1170 C.3    79  LEU79       0.0022
     98  CD1      -76.2300  108.7170  -62.7870 C.3    79  LEU79       0.0001
     99  CD2      -73.8770  108.5580  -61.9950 C.3    79  LEU79       0.0001
    100  N        -72.8730  105.2820  -65.6560 N.am   80  HIS80      -0.1959
    101  CA       -72.2590  104.1010  -66.2640 C.3    80  HIS80       0.1787
    102  C        -71.9040  102.8670  -65.4650 C.2    80  HIS80       0.2620
    103  O        -71.7390  101.7940  -66.0520 O.2    80  HIS80      -0.2715
    104  CB       -71.0440  104.5070  -67.1010 C.3    80  HIS80       0.0785
    105  CG       -71.3690  104.7470  -68.5490 C.ar   80  HIS80       0.0821
    106  ND1      -71.9150  105.9270  -69.0070 N.ar   80  HIS80      -0.2267
    107  CD2      -71.2720  103.9340  -69.6290 C.ar   80  HIS80       0.1154
    108  CE1      -72.1400  105.8300  -70.3060 C.ar   80  HIS80       0.1986
    109  NE2      -71.7570  104.6320  -70.7080 N.ar   80  HIS80      -0.2212
    110  N        -71.7700  102.9790  -64.1480 N.am   81  GLN81      -0.1963
    111  CA       -71.4740  101.7640  -63.3680 C.3    81  GLN81       0.1733
    112  C        -71.9990  101.9100  -61.9440 C.2    81  GLN81       0.2616
    113  O        -72.1390  103.0210  -61.4770 O.2    81  GLN81      -0.2715
    114  CB       -69.9590  101.5230  -63.3410 C.3    81  GLN81       0.0408
    115  CG       -69.5280  100.1680  -62.7760 C.3    81  GLN81       0.0908
    116  CD       -68.1310   99.8030  -63.2250 C.2    81  GLN81       0.2608
    117  OE1      -67.9060   99.4810  -64.3960 O.2    81  GLN81      -0.2717
    118  NE2      -67.1830   99.8710  -62.3120 N.am   81  GLN81      -0.0878
    119  N        -72.3120  100.8050  -61.2680 N.am   82  ASP82      -0.1971
    120  CA       -72.7620  100.9180  -59.8740 C.3    82  ASP82       0.1709
    121  C        -71.6120  100.5330  -58.9480 C.2    82  ASP82       0.2293
    122  O        -70.6220   99.9450  -59.3920 O.2    82  ASP82      -0.2864
    123  CB       -74.0330  100.0820  -59.5860 C.3    82  ASP82       0.1436
    124  CG       -73.8310   98.5700  -59.7150 C.2    82  ASP82       0.3671
    125  OD1      -72.7570   98.0320  -59.4180 O.co2  82  ASP82      -0.2456
    126  OD2      -74.8010   97.8940  -60.0800 O.co2  82  ASP82      -0.2456
    127  N        -70.6010   96.6880  -58.6990 N.3    85  LYS85      -0.1245
    128  CA       -69.7170   96.2470  -59.7650 C.3    85  LYS85       0.1561
    129  C        -68.3010   96.8120  -59.5990 C.2    85  LYS85       0.2260
    130  O        -67.3230   96.0940  -59.7740 O.2    85  LYS85      -0.2867
    131  CB       -70.2850   96.6540  -61.1260 C.3    85  LYS85       0.0271
    132  CG       -69.4490   96.1270  -62.2670 C.3    85  LYS85       0.0035
    133  CD       -69.9990   96.5170  -63.6220 C.3    85  LYS85       0.0206
    134  CE       -69.2720   95.7020  -64.6690 C.3    85  LYS85       0.1093
    135  NZ       -67.8330   95.6240  -64.2780 N.3    85  LYS85      -0.1314
    136  N        -77.9200  100.8370  -50.8330 N.3   125  LYS125     -0.1245
    137  CA       -77.1070   99.6470  -51.0270 C.3   125  LYS125      0.1561
    138  C        -76.1900   99.8900  -52.2190 C.2   125  LYS125      0.2260
    139  O        -76.4620  100.7510  -53.0600 O.2   125  LYS125     -0.2867
    140  CB       -77.9940   98.4190  -51.2350 C.3   125  LYS125      0.0271
    141  CG       -79.0740   98.5780  -52.2860 C.3   125  LYS125      0.0035
    142  CD       -80.1640   97.5350  -52.0990 C.3   125  LYS125      0.0206
    143  CE       -81.3400   97.7910  -53.0240 C.3   125  LYS125      0.1093
    144  NZ       -82.4200   96.7650  -52.8040 N.3   125  LYS125     -0.1314
    145  N        -75.8240   98.5960  -55.0040 N.3   127  GLN127     -0.1231
    146  CA       -76.5010   98.5910  -56.2970 C.3   127  GLN127      0.1698
    147  C        -77.1670   99.9180  -56.6710 C.2   127  GLN127      0.2592
    148  O        -77.3270  100.1890  -57.8620 O.2   127  GLN127     -0.2718
    149  CB       -77.5610   97.4710  -56.3770 C.3   127  GLN127      0.0381
    150  CG       -77.0220   96.0630  -56.2230 C.3   127  GLN127      0.0905
    151  CD       -78.0310   95.0110  -56.6570 C.2   127  GLN127      0.2608
    152  OE1      -79.2220   95.1160  -56.3630 O.2   127  GLN127     -0.2717
    153  NE2      -77.5540   93.9860  -57.3540 N.am  127  GLN127     -0.0878
    154  N        -77.5870  100.7330  -55.7000 N.am  128  ASN128     -0.1974
    155  CA       -78.2000  102.0050  -56.0720 C.3   128  ASN128      0.1688
    156  C        -77.2980  103.2120  -55.8720 C.2   128  ASN128      0.2292
    157  O        -77.7610  104.3340  -55.8270 O.2   128  ASN128     -0.2864
    158  CB       -79.6040  102.2360  -55.4380 C.3   128  ASN128      0.1181
    159  CG       -79.6540  102.0120  -53.9440 C.2   128  ASN128      0.2629
    160  OD1      -78.7360  102.3800  -53.2120 O.2   128  ASN128     -0.2716
    161  ND2      -80.7610  101.4280  -53.4790 N.am  128  ASN128     -0.0877
    162  N        -74.4180  105.0310  -57.7670 N.3   130  LEU130     -0.1245
    163  CA       -73.8960  105.0610  -59.1260 C.3   130  LEU130      0.1561
    164  C        -72.7140  105.9920  -59.2910 C.2   130  LEU130      0.2260
    165  O        -72.6870  107.0770  -58.7260 O.2   130  LEU130     -0.2867
    166  CB       -75.0110  105.4790  -60.0790 C.3   130  LEU130      0.0270
    167  CG       -76.1340  104.4540  -60.2010 C.3   130  LEU130      0.0019
    168  CD1      -77.4480  105.1490  -60.4550 C.3   130  LEU130      0.0001
    169  CD2      -75.8010  103.4990  -61.3380 C.3   130  LEU130      0.0001
    170  N        -79.3440  106.8290  -55.9650 N.3   140  ALA140     -0.1231
    171  CA       -80.5810  106.7320  -56.7380 C.3   140  ALA140      0.1694
    172  C        -81.6670  106.1340  -55.8500 C.2   140  ALA140      0.2592
    173  O        -81.3620  105.4770  -54.8560 O.2   140  ALA140     -0.2718
    174  CB       -80.3810  105.8480  -57.9480 C.3   140  ALA140      0.0304
    175  N        -82.9220  106.3860  -56.2180 N.am  141  ASP141     -0.1974
    176  CA       -84.1090  105.8740  -55.5350 C.3   141  ASP141      0.1709
    177  C        -84.4910  106.4670  -54.1860 C.2   141  ASP141      0.2293
    178  O        -85.2620  105.8810  -53.4270 O.2   141  ASP141     -0.2864
    179  CB       -84.0190  104.3480  -55.4700 C.3   141  ASP141      0.1436
    180  CG       -83.9770  103.7190  -56.8600 C.2   141  ASP141      0.3671
    181  OD1      -84.2290  104.4540  -57.8610 O.co2 141  ASP141     -0.2456
    182  OD2      -83.7000  102.4950  -56.9550 O.co2 141  ASP141     -0.2456
@<TRIPOS>BOND
     1   109   108   ar
     2   109   107   ar
     3   108   106   ar
     4   107   105   ar
     5    89    87   ar
     6    89    91   ar
     7   106   105   ar
     8    87    86   ar
     9    91    90   ar
    10   105   104    1
    11    86    88   ar
    12    86    85    1
    13    90    88   ar
    14    85    82    1
    15     1     2    1
    16    40    41    1
    17     6     8    1
    18     6     5    1
    19   104   101    1
    20     2     5    1
    21     2     3    1
    22    41    42    1
    23    41    44    1
    24    82    81    1
    25    82    83    1
    26    84    83    2
    27    81    74   am
    28    36    35    2
    29    42    43    2
    30     5     7    1
    31    35    34    1
    32    83    92   am
    33    64    63    2
    34   101   100    1
    35   101   102    1
    36   103   102    2
    37     3     4    2
    38     3     9   am
    39    95    94    2
    40   100    94   am
    41    73    74    1
    42    73    76    1
    43    73    72    1
    44    74    75    2
    45    94    93    1
    46   102   110   am
    47    92    93    1
    48    45    46    1
    49    63    72   am
    50    63    62    1
    51     9    10    1
    52    76    77    1
    53    61    62    1
    54    34    33    1
    55    34    37    1
    56    93    96    1
    57   134   135    1
    58   134   133    1
    59    38    37    1
    60   117   116    2
    61    47    46    1
    62    47    48    2
    63    46    49    1
    64    62    65    1
    65   110   111    1
    66    10    11    1
    67    37    39    1
    68    79    78   ar
    69    12    11    2
    70    77    78    1
    71   133   132    1
    72    21    19   ar
    73    96    97    1
    74    11    13   am
    75   111   114    1
    76   111   112    1
    77   114   115    1
    78    65    66    1
    79    78    80   ar
    80   116   115    1
    81   116   118   am
    82    97    98    1
    83    97    99    1
    84    49    50    1
    85    50    51    1
    86    19    20   ar
    87    19    18    1
    88   132   131    1
    89    13    14    1
    90    66    68   ar
    91    66    67   ar
    92   112   113    2
    93   112   119   am
    94    68    70   ar
    95    18    17    1
    96    51    52    1
    97    52    53    1
    98   169   167    1
    99    14    17    1
   100    14    15    1
   101   119   120    1
   102   131   128    1
   103    59    58    1
   104    67    69   ar
   105    70    71   ar
   106   168   167    1
   107    22    15   am
   108    22    23    1
   109    15    16    2
   110   167   166    1
   111   126   124   ar
   112   166   163    1
   113    56    55    1
   114    56    57    2
   115   120   123    1
   116   120   121    1
   117    69    71   ar
   118   130   129    2
   119   128   129    1
   120   128   127    1
   121    58    55    1
   122    58    60    1
   123   124   123    1
   124   124   125   ar
   125    55    54    1
   126    23    24    1
   127   122   121    2
   128   164   163    1
   129   164   165    2
   130   163   162    1
   131    25    24    2
   132    24    26   am
   133   174   171    1
   134   148   147    2
   135   181   180   ar
   136   153   151   am
   137    26    27    1
   138   182   180   ar
   139   180   179    1
   140   171   170    1
   141   171   172    1
   142   147   146    1
   143   147   154   am
   144   151   152    2
   145   151   150    1
   146   149   146    1
   147   149   150    1
   148    28    27    1
   149    28    29    2
   150   146   145    1
   151   175   172   am
   152   175   176    1
   153   155   156    1
   154   155   154    1
   155   155   158    1
   156    27    30    1
   157   156   157    2
   158   172   173    2
   159   176   179    1
   160   176   177    1
   161   158   159    1
   162    31    30    1
   163    30    32    1
   164   177   178    2
   165   159   161   am
   166   159   160    2
   167   139   138    2
   168   143   144    1
   169   143   142    1
   170   141   142    1
   171   141   140    1
   172   138   137    1
   173   140   137    1
   174   137   136    1
