@<TRIPOS>MOLECULE
tmp/3s0bA00.pdb
 147 136 0 0 0
SMALL
GASTEIGER

@<TRIPOS>ATOM
      1  N        -14.4520  -17.3840   13.3640 N.3     6  LEU6       -0.1245
      2  CA       -13.9330  -16.0450   13.2020 C.3     6  LEU6        0.1561
      3  C        -15.0590  -15.0660   12.9880 C.2     6  LEU6        0.2260
      4  O        -15.0640  -13.9790   13.5730 O.2     6  LEU6       -0.2867
      5  CB       -12.9340  -15.9900   12.0380 C.3     6  LEU6        0.0270
      6  CG       -12.4550  -14.5700   11.7090 C.3     6  LEU6        0.0019
      7  CD1      -11.6410  -13.9940   12.8400 C.3     6  LEU6        0.0001
      8  CD2      -11.6570  -14.5930   10.3950 C.3     6  LEU6        0.0001
      9  N        -15.5730  -12.0950   15.5360 N.3    10  LEU10      -0.1245
     10  CA       -15.4310  -10.7380   15.0630 C.3    10  LEU10       0.1561
     11  C        -16.6970   -9.9180   15.2990 C.2    10  LEU10       0.2260
     12  O        -16.6050   -8.7610   15.7390 O.2    10  LEU10      -0.2867
     13  CB       -15.0490  -10.7550   13.5860 C.3    10  LEU10       0.0270
     14  CG       -14.8110   -9.3480   13.0280 C.3    10  LEU10       0.0019
     15  CD1      -13.6860   -8.5790   13.7380 C.3    10  LEU10       0.0001
     16  CD2      -14.4770   -9.4690   11.5620 C.3    10  LEU10       0.0001
     17  N        -10.5380   -3.5650   18.8720 N.3    50  ILE50      -0.1231
     18  CA       -10.6940   -4.8210   18.1600 C.3    50  ILE50       0.1692
     19  C         -9.3380   -5.5250   18.0980 C.2    50  ILE50       0.2591
     20  O         -9.2250   -6.7200   18.3800 O.2    50  ILE50      -0.2718
     21  CB       -11.2710   -4.6330   16.7700 C.3    50  ILE50       0.0266
     22  CG1      -12.7170   -4.1470   16.8750 C.3    50  ILE50       0.0019
     23  CG2      -11.1860   -5.9160   15.9470 C.3    50  ILE50       0.0020
     24  CD1      -13.2670   -3.6370   15.5850 C.3    50  ILE50       0.0001
     25  N         -8.2950   -4.7910   17.7240 N.am   51  LEU51      -0.1980
     26  CA        -6.9900   -5.4210   17.6050 C.3    51  LEU51       0.1596
     27  C         -6.4320   -5.9160   18.9090 C.2    51  LEU51       0.2287
     28  O         -5.8740   -7.0140   18.9600 O.2    51  LEU51      -0.2864
     29  CB        -6.0100   -4.4920   16.9140 C.3    51  LEU51       0.0297
     30  CG        -6.3590   -4.0990   15.4710 C.3    51  LEU51       0.0022
     31  CD1       -5.2420   -3.3330   14.8380 C.3    51  LEU51       0.0001
     32  CD2       -6.7220   -5.2930   14.5910 C.3    51  LEU51       0.0001
     33  N         -8.1070   -9.2150   19.8690 N.3    54  PHE54      -0.1241
     34  CA        -7.5930  -10.3490   19.1080 C.3    54  PHE54       0.1605
     35  C         -6.0940  -10.5930   19.3420 C.2    54  PHE54       0.2264
     36  O         -5.5070  -11.4200   18.6770 O.2    54  PHE54      -0.2867
     37  CB        -7.8160  -10.1090   17.6190 C.3    54  PHE54       0.0534
     38  CG        -9.1680  -10.4970   17.1240 C.ar   54  PHE54      -0.0203
     39  CD1       -9.4190  -11.8040   16.7650 C.ar   54  PHE54      -0.0042
     40  CD2      -10.1780   -9.5730   16.9930 C.ar   54  PHE54      -0.0042
     41  CE1      -10.6520  -12.1910   16.2790 C.ar   54  PHE54      -0.0003
     42  CE2      -11.3890   -9.9370   16.5020 C.ar   54  PHE54      -0.0003
     43  CZ       -11.6310  -11.2600   16.1530 C.ar   54  PHE54      -0.0000
     44  N         -3.7010   -8.8500   18.4560 N.3    56  ILE56      -0.1245
     45  CA        -2.9520   -8.3470   17.3230 C.3    56  ILE56       0.1561
     46  C         -2.0970   -7.1630   17.7750 C.2    56  ILE56       0.2260
     47  O         -1.0380   -6.9050   17.2020 O.2    56  ILE56      -0.2867
     48  CB        -3.8950   -7.9630   16.1600 C.3    56  ILE56       0.0252
     49  CG1       -4.5180   -9.2220   15.5680 C.3    56  ILE56       0.0019
     50  CG2       -3.1550   -7.1940   15.1040 C.3    56  ILE56       0.0019
     51  CD1       -5.7340   -8.9300   14.7300 C.3    56  ILE56       0.0001
     52  N         -1.9150  -11.6200   14.2140 N.3    68  ILE68      -0.1245
     53  CA        -2.4180  -11.2950   12.8790 C.3    68  ILE68       0.1561
     54  C         -2.4490  -12.5530   11.9990 C.2    68  ILE68       0.2260
     55  O         -3.3800  -12.7370   11.2250 O.2    68  ILE68      -0.2867
     56  CB        -1.6520  -10.1490   12.2320 C.3    68  ILE68       0.0252
     57  CG1       -2.3380   -9.7030   10.9290 C.3    68  ILE68       0.0019
     58  CG2       -0.2830  -10.5610   11.9070 C.3    68  ILE68       0.0019
     59  CD1       -3.8170   -9.5930   11.0230 C.3    68  ILE68       0.0001
     60  N         -5.5840  -14.8370   12.4920 N.3    71  VAL71      -0.1231
     61  CA        -6.7420  -14.3530   11.7770 C.3    71  VAL71       0.1692
     62  C         -6.5360  -14.4850   10.2580 C.2    71  VAL71       0.2591
     63  O         -7.3620  -15.0680    9.5730 O.2    71  VAL71      -0.2718
     64  CB        -7.0390  -12.8760   12.1430 C.3    71  VAL71       0.0266
     65  CG1       -8.0920  -12.2720   11.1860 C.3    71  VAL71       0.0020
     66  CG2       -7.4700  -12.7430   13.6040 C.3    71  VAL71       0.0020
     67  N         -5.4280  -13.9590    9.7510 N.am   72  MET72      -0.1979
     68  CA        -5.2960  -13.8180    8.2940 C.3    72  MET72       0.1605
     69  C         -5.0840  -15.1230    7.5660 C.2    72  MET72       0.2287
     70  O         -5.4860  -15.2560    6.3910 O.2    72  MET72      -0.2864
     71  CB        -4.2300  -12.8040    7.9420 C.3    72  MET72       0.0413
     72  CG        -4.6190  -11.3970    8.2810 C.3    72  MET72       0.0598
     73  SD        -5.9900  -10.8600    7.1880 S.3    72  MET72      -0.1393
     74  CE        -6.7120   -9.7580    8.3250 C.3    72  MET72       0.0692
     75  N         -8.0290  -16.4210    5.8640 N.3    75  LEU75      -0.1245
     76  CA        -8.5980  -15.5660    4.8410 C.3    75  LEU75       0.1561
     77  C         -7.7840  -15.5010    3.5570 C.2    75  LEU75       0.2260
     78  O         -8.3680  -15.3030    2.4940 O.2    75  LEU75      -0.2867
     79  CB        -8.7550  -14.1580    5.3830 C.3    75  LEU75       0.0270
     80  CG        -9.6430  -14.0690    6.6390 C.3    75  LEU75       0.0019
     81  CD1       -9.5990  -12.6610    7.2140 C.3    75  LEU75       0.0001
     82  CD2      -11.0660  -14.5190    6.3220 C.3    75  LEU75       0.0001
     83  N         -2.8350    0.5940   11.3140 N.3   103  LEU103     -0.1231
     84  CA        -2.6710   -0.8350   11.1280 C.3   103  LEU103      0.1693
     85  C         -3.9260   -1.4240   10.4610 C.2   103  LEU103      0.2591
     86  O         -3.8160   -2.1960    9.5020 O.2   103  LEU103     -0.2718
     87  CB        -2.3640   -1.5230   12.4520 C.3   103  LEU103      0.0284
     88  CG        -2.1440   -3.0180   12.3300 C.3   103  LEU103      0.0019
     89  CD1       -0.9500   -3.3280   11.4150 C.3   103  LEU103      0.0001
     90  CD2       -1.9540   -3.5900   13.7250 C.3   103  LEU103      0.0001
     91  N         -5.1130   -1.0380   10.9090 N.am  104  VAL104     -0.1980
     92  CA        -6.3090   -1.5120   10.2440 C.3   104  VAL104      0.1595
     93  C         -6.3570   -0.9890    8.7930 C.2   104  VAL104      0.2287
     94  O         -6.7570   -1.7080    7.8760 O.2   104  VAL104     -0.2864
     95  CB        -7.5560   -1.0960   11.0040 C.3   104  VAL104      0.0276
     96  CG1       -8.8170   -1.4330   10.2020 C.3   104  VAL104      0.0022
     97  CG2       -7.6080   -1.7810   12.3630 C.3   104  VAL104      0.0022
     98  N         -3.8030   -3.1770    6.6910 N.3   107  VAL107     -0.1231
     99  CA        -4.3020   -4.5250    6.5180 C.3   107  VAL107      0.1692
    100  C         -5.5340   -4.5760    5.6250 C.2   107  VAL107      0.2592
    101  O         -5.7490   -5.5550    4.9040 O.2   107  VAL107     -0.2718
    102  CB        -4.5520   -5.1620    7.8570 C.3   107  VAL107      0.0266
    103  CG1       -5.2580   -6.4800    7.7240 C.3   107  VAL107      0.0020
    104  CG2       -3.2000   -5.3270    8.6060 C.3   107  VAL107      0.0020
    105  N         -6.3240   -3.5120    5.6420 N.am  108  SER108     -0.1952
    106  CA        -7.5280   -3.4770    4.8430 C.3   108  SER108      0.1924
    107  C         -7.2120   -3.5350    3.3670 C.2   108  SER108      0.2314
    108  O         -8.0900   -3.8680    2.5600 O.2   108  SER108     -0.2863
    109  CB        -8.3460   -2.2300    5.1670 C.3   108  SER108      0.2116
    110  OG        -8.9060   -2.3100    6.4800 O.3   108  SER108     -0.2180
    111  N         -7.4050   -7.6030    3.3000 N.3   111  LYS111     -0.1231
    112  CA        -8.7400   -8.0680    3.6010 C.3   111  LYS111      0.1693
    113  C         -9.4230   -7.1020    4.5310 C.2   111  LYS111      0.2593
    114  O         -8.8460   -6.7240    5.5110 O.2   111  LYS111     -0.2718
    115  CB        -8.7050   -9.4350    4.2930 C.3   111  LYS111      0.0285
    116  CG        -8.3180  -10.5970    3.4170 C.3   111  LYS111      0.0035
    117  CD        -9.4380  -10.9450    2.4770 C.3   111  LYS111      0.0206
    118  CE        -9.0020  -12.0240    1.5030 C.3   111  LYS111      0.1093
    119  NZ       -10.0450  -12.4490    0.5560 N.3   111  LYS111     -0.1314
    120  N        -10.6910   -6.8090    4.2920 N.am  112  THR112     -0.1939
    121  CA       -11.4640   -5.9820    5.2020 C.3   112  THR112      0.2028
    122  C        -12.2620   -6.8430    6.1370 C.2   112  THR112      0.2642
    123  O        -12.4860   -8.0230    5.8750 O.2   112  THR112     -0.2714
    124  CB       -12.4090   -5.0460    4.4280 C.3   112  THR112      0.1808
    125  OG1      -13.4130   -5.8410    3.8020 O.3   112  THR112     -0.2208
    126  CG2      -11.6580   -4.2000    3.3850 C.3   112  THR112      0.0379
    127  N        -12.7370   -6.2590    7.2220 N.am  113  MET113     -0.1976
    128  CA       -13.5650   -7.0150    8.1450 C.3   113  MET113      0.1605
    129  C        -14.8550   -7.4300    7.4780 C.2   113  MET113      0.2287
    130  O        -15.4030   -8.4960    7.7770 O.2   113  MET113     -0.2864
    131  CB       -13.8590   -6.2040    9.4070 C.3   113  MET113      0.0413
    132  CG       -12.6580   -6.0920   10.2990 C.3   113  MET113      0.0598
    133  SD       -13.0260   -5.2260   11.8170 S.3   113  MET113     -0.1393
    134  CE       -12.8750   -3.5610   11.3810 C.3   113  MET113      0.0692
    135  N        -15.2090   -8.6280    4.7820 N.3   115  SER115     -0.1202
    136  CA       -14.8950   -9.9330    4.1260 C.3   115  SER115      0.2020
    137  C        -15.6630  -11.0740    4.6980 C.2   115  SER115      0.2618
    138  O        -16.0800  -11.9460    3.9320 O.2   115  SER115     -0.2717
    139  CB       -13.4230  -10.3560    4.3420 C.3   115  SER115      0.2103
    140  OG       -12.5230   -9.4890    3.7280 O.3   115  SER115     -0.2182
    141  N        -15.7680  -11.1560    6.0260 N.am  116  VAL116     -0.1979
    142  CA       -16.4490  -12.2950    6.6810 C.3   116  VAL116      0.1595
    143  C        -17.9320  -12.3940    6.3890 C.2   116  VAL116      0.2287
    144  O        -18.5540  -13.4120    6.7030 O.2   116  VAL116     -0.2864
    145  CB       -16.2920  -12.3320    8.2540 C.3   116  VAL116      0.0276
    146  CG1      -14.8280  -12.4370    8.6450 C.3   116  VAL116      0.0022
    147  CG2      -16.9720  -11.1250    8.9310 C.3   116  VAL116      0.0022
@<TRIPOS>BOND
     1   119   118    1
     2   118   117    1
     3   117   116    1
     4    78    77    2
     5   108   107    2
     6   111   112    1
     7   107   106    1
     8   126   124    1
     9   116   115    1
    10    77    76    1
    11   112   115    1
    12   112   113    1
    13   140   139    1
    14   125   124    1
    15   138   137    2
    16   136   139    1
    17   136   137    1
    18   136   135    1
    19   120   113   am
    20   120   121    1
    21   124   121    1
    22   113   114    2
    23   137   141   am
    24    76    79    1
    25    76    75    1
    26   106   109    1
    27   106   105    1
    28   101   100    2
    29   109   110    1
    30   121   122    1
    31    79    80    1
    32   100   105   am
    33   100    99    1
    34   123   122    2
    35   141   142    1
    36   122   127   am
    37    82    80    1
    38   143   142    1
    39   143   144    2
    40    70    69    2
    41    99    98    1
    42    99   102    1
    43    80    81    1
    44   142   145    1
    45    73    72    1
    46    73    74    1
    47   127   128    1
    48   129   130    2
    49   129   128    1
    50    69    68    1
    51   103   102    1
    52   102   104    1
    53    94    93    2
    54    71    72    1
    55    71    68    1
    56   128   131    1
    57   145   146    1
    58   145   147    1
    59    68    67    1
    60    93    92    1
    61   131   132    1
    62    86    85    2
    63    63    62    2
    64    67    62   am
    65    96    95    1
    66    92    91    1
    67    92    95    1
    68    62    61    1
    69   132   133    1
    70     8     6    1
    71    85    91   am
    72    85    84    1
    73    57    59    1
    74    57    56    1
    75    95    97    1
    76    84    83    1
    77    84    87    1
    78    65    64    1
    79    55    54    2
    80   134   133    1
    81    89    88    1
    82    16    14    1
    83     6     5    1
    84     6     7    1
    85    61    64    1
    86    61    60    1
    87    58    56    1
    88    54    53    1
    89     5     2    1
    90    64    66    1
    91    56    53    1
    92    88    87    1
    93    88    90    1
    94    53    52    1
    95     3     2    1
    96     3     4    2
    97    14    13    1
    98    14    15    1
    99     2     1    1
   100    13    10    1
   101    32    30    1
   102    51    49    1
   103    31    30    1
   104    10    11    1
   105    10     9    1
   106    50    48    1
   107    11    12    2
   108    30    29    1
   109    49    48    1
   110    24    22    1
   111    23    21    1
   112    43    41   ar
   113    43    42   ar
   114    48    45    1
   115    41    39   ar
   116    42    40   ar
   117    39    38   ar
   118    21    22    1
   119    21    18    1
   120    29    26    1
   121    40    38   ar
   122    38    37    1
   123    47    46    2
   124    45    46    1
   125    45    44    1
   126    26    25    1
   127    26    27    1
   128    37    34    1
   129    25    19   am
   130    19    18    1
   131    19    20    2
   132    18    17    1
   133    36    35    2
   134    27    28    2
   135    34    35    1
   136    34    33    1
