@<TRIPOS>MOLECULE
tmp/3s0dA00.pdb
 133 122 0 0 0
SMALL
GASTEIGER

@<TRIPOS>ATOM
      1  N         15.4020    3.1030   29.5090 N.3     6  LEU6       -0.1245
      2  CA        14.7200    4.3560   29.7820 C.3     6  LEU6        0.1561
      3  C         15.7180    5.4130   30.1850 C.2     6  LEU6        0.2260
      4  O         15.6010    6.5440   29.7490 O.2     6  LEU6       -0.2867
      5  CB        13.6490    4.1820   30.8560 C.3     6  LEU6        0.0270
      6  CG        12.9330    5.4710   31.2680 C.3     6  LEU6        0.0019
      7  CD1       12.1410    6.1340   30.1220 C.3     6  LEU6        0.0001
      8  CD2       12.0300    5.1540   32.4550 C.3     6  LEU6        0.0001
      9  N         16.0620    8.7720   28.0110 N.3    10  LEU10      -0.1245
     10  CA        15.9260   10.0880   28.6200 C.3    10  LEU10       0.1561
     11  C         17.1270   10.9530   28.3270 C.2    10  LEU10       0.2260
     12  O         16.9700   12.0980   27.9550 O.2    10  LEU10      -0.2867
     13  CB        15.6990    9.9750   30.1170 C.3    10  LEU10       0.0270
     14  CG        14.3030    9.5510   30.5430 C.3    10  LEU10       0.0019
     15  CD1       14.3150    9.1860   31.9830 C.3    10  LEU10       0.0001
     16  CD2       13.2870   10.6600   30.3070 C.3    10  LEU10       0.0001
     17  N         10.4660   17.2740   25.0580 N.3    50  ILE50      -0.1231
     18  CA        10.6050   15.9570   25.6470 C.3    50  ILE50       0.1692
     19  C          9.2680   15.2240   25.5650 C.2    50  ILE50       0.2591
     20  O          9.2160   14.0660   25.1670 O.2    50  ILE50      -0.2718
     21  CB        11.1480   16.0830   27.0580 C.3    50  ILE50       0.0266
     22  CG1       12.6610   16.3470   26.9870 C.3    50  ILE50       0.0019
     23  CG2       10.8230   14.8560   27.9100 C.3    50  ILE50       0.0020
     24  CD1       13.2160   16.7260   28.3320 C.3    50  ILE50       0.0001
     25  N          8.1750   15.9160   25.8790 N.am   51  LEU51      -0.1980
     26  CA         6.8650   15.2900   25.7940 C.3    51  LEU51       0.1596
     27  C          6.5170   14.8700   24.3800 C.2    51  LEU51       0.2287
     28  O          5.9710   13.7850   24.1710 O.2    51  LEU51      -0.2864
     29  CB         5.7880   16.2250   26.2950 C.3    51  LEU51       0.0297
     30  CG         5.8260   16.4830   27.7940 C.3    51  LEU51       0.0022
     31  CD1        4.9380   17.6760   28.1290 C.3    51  LEU51       0.0001
     32  CD2        5.3740   15.2790   28.5930 C.3    51  LEU51       0.0001
     33  N          8.4750   11.7540   23.2170 N.3    54  PHE54      -0.1241
     34  CA         7.8640   10.5510   23.7870 C.3    54  PHE54       0.1605
     35  C          6.4350   10.3260   23.2730 C.2    54  PHE54       0.2264
     36  O          5.7740    9.3810   23.6980 O.2    54  PHE54      -0.2867
     37  CB         7.8690   10.6400   25.3230 C.3    54  PHE54       0.0534
     38  CG         9.1570   10.1960   25.9620 C.ar   54  PHE54      -0.0203
     39  CD1        9.3530    8.8690   26.2980 C.ar   54  PHE54      -0.0042
     40  CD2       10.1660   11.0970   26.2490 C.ar   54  PHE54      -0.0042
     41  CE1       10.5270    8.4610   26.8840 C.ar   54  PHE54      -0.0003
     42  CE2       11.3440   10.6860   26.8400 C.ar   54  PHE54      -0.0003
     43  CZ        11.5130    9.3600   27.1630 C.ar   54  PHE54      -0.0000
     44  N          3.7880   11.8690   23.8700 N.3    56  ILE56      -0.1245
     45  CA         2.8150   12.1930   24.9030 C.3    56  ILE56       0.1561
     46  C          2.0440   13.4590   24.5520 C.2    56  ILE56       0.2260
     47  O          0.8960   13.6290   24.9350 O.2    56  ILE56      -0.2867
     48  CB         3.5100   12.3310   26.2470 C.3    56  ILE56       0.0252
     49  CG1        4.0360   10.9720   26.7010 C.3    56  ILE56       0.0019
     50  CG2        2.5960   12.9100   27.2930 C.3    56  ILE56       0.0019
     51  CD1        4.9280   11.0430   27.9040 C.3    56  ILE56       0.0001
     52  N          1.9910    8.7730   29.0030 N.3    68  ILE68      -0.1245
     53  CA         2.5190    8.9360   30.3500 C.3    68  ILE68       0.1561
     54  C          2.4460    7.6050   31.0940 C.2    68  ILE68       0.2260
     55  O          3.4020    7.2120   31.7530 O.2    68  ILE68      -0.2867
     56  CB         1.7260    9.9820   31.1780 C.3    68  ILE68       0.0252
     57  CG1        1.9310   11.3830   30.6370 C.3    68  ILE68       0.0019
     58  CG2        2.1460    9.9420   32.6550 C.3    68  ILE68       0.0019
     59  CD1        1.1920   12.4380   31.4450 C.3    68  ILE68       0.0001
     60  N          5.2590    5.0470   30.1940 N.3    71  VAL71      -0.1231
     61  CA         6.5680    5.3200   30.7790 C.3    71  VAL71       0.1692
     62  C          6.5210    5.1440   32.3080 C.2    71  VAL71       0.2591
     63  O          7.4000    4.5240   32.9020 O.2    71  VAL71      -0.2718
     64  CB         7.0760    6.7410   30.4360 C.3    71  VAL71       0.0266
     65  CG1        8.3820    7.0010   31.1450 C.3    71  VAL71       0.0020
     66  CG2        7.2390    6.8990   28.9400 C.3    71  VAL71       0.0020
     67  N          5.5180    5.7160   32.9570 N.am   72  MET72      -0.1979
     68  CA         5.5080    5.7510   34.4130 C.3    72  MET72       0.1605
     69  C          5.2580    4.3850   35.0380 C.2    72  MET72       0.2287
     70  O          5.6950    4.1490   36.1540 O.2    72  MET72      -0.2864
     71  CB         4.5320    6.8050   34.9380 C.3    72  MET72       0.0413
     72  CG         4.8630    8.2410   34.4770 C.3    72  MET72       0.0598
     73  SD         6.5200    8.7880   34.8960 S.3    72  MET72      -0.1393
     74  CE         6.3820    8.7170   36.6500 C.3    72  MET72       0.0692
     75  N          8.2050    2.8370   36.5220 N.3    75  LEU75      -0.1245
     76  CA         8.8350    3.5560   37.6210 C.3    75  LEU75       0.1561
     77  C          8.0730    3.5110   38.9320 C.2    75  LEU75       0.2260
     78  O          8.6880    3.5410   39.9870 O.2    75  LEU75      -0.2867
     79  CB         9.0130    5.0110   37.2160 C.3    75  LEU75       0.0270
     80  CG         9.8690    5.2080   35.9790 C.3    75  LEU75       0.0019
     81  CD1        9.8660    6.6700   35.5540 C.3    75  LEU75       0.0001
     82  CD2       11.2900    4.7210   36.2730 C.3    75  LEU75       0.0001
     83  N          5.1280   18.6300   32.8040 N.3   104  VAL104     -0.1245
     84  CA         6.3730   18.0610   33.3010 C.3   104  VAL104      0.1561
     85  C          6.4960   18.3040   34.7940 C.2   104  VAL104      0.2260
     86  O          6.9410   17.4380   35.5440 O.2   104  VAL104     -0.2867
     87  CB         7.5980   18.5770   32.5190 C.3   104  VAL104      0.0252
     88  CG1        8.8970   18.2040   33.1980 C.3   104  VAL104      0.0019
     89  CG2        7.5710   18.0220   31.1000 C.3   104  VAL104      0.0019
     90  N          4.1680   15.6810   36.5510 N.3   107  VAL107     -0.1231
     91  CA         4.6870   14.3220   36.4740 C.3   107  VAL107      0.1692
     92  C          5.8970   14.1890   37.4020 C.2   107  VAL107      0.2592
     93  O          6.0670   13.1650   38.0550 O.2   107  VAL107     -0.2718
     94  CB         5.0410   13.9420   35.0390 C.3   107  VAL107      0.0266
     95  CG1        5.7520   12.6140   34.9990 C.3   107  VAL107      0.0020
     96  CG2        3.7940   13.9120   34.1840 C.3   107  VAL107      0.0020
     97  N          6.7040   15.2370   37.4800 N.am  108  SER108     -0.1952
     98  CA         7.9290   15.2310   38.2400 C.3   108  SER108      0.1924
     99  C          7.6940   15.1570   39.7330 C.2   108  SER108      0.2314
    100  O          8.6000   14.7730   40.4620 O.2   108  SER108     -0.2863
    101  CB         8.7850   16.4490   37.9080 C.3   108  SER108      0.2116
    102  OG         9.2700   16.3940   36.5860 O.3   108  SER108     -0.2180
    103  N          7.9750   11.1140   39.7850 N.3   111  LYS111     -0.1231
    104  CA         9.3760   10.7620   39.5920 C.3   111  LYS111      0.1693
    105  C          9.9680   11.8750   38.7700 C.2   111  LYS111      0.2593
    106  O          9.3990   12.2580   37.7560 O.2   111  LYS111     -0.2718
    107  CB         9.5470    9.4630   38.7780 C.3   111  LYS111      0.0285
    108  CG         9.1230    8.1510   39.4020 C.3   111  LYS111      0.0035
    109  CD         9.9120    7.7830   40.6270 C.3   111  LYS111      0.0206
    110  CE        11.4030    7.5300   40.3830 C.3   111  LYS111      0.1093
    111  NZ        12.0090    7.0230   41.6640 N.3   111  LYS111     -0.1314
    112  N         11.1400   12.3560   39.1650 N.am  112  THR112     -0.1939
    113  CA        11.8600   13.3040   38.3330 C.3   112  THR112      0.2028
    114  C         12.7020   12.5510   37.3230 C.2   112  THR112      0.2642
    115  O         13.0270   11.3750   37.5210 O.2   112  THR112     -0.2714
    116  CB        12.7710   14.1720   39.1720 C.3   112  THR112      0.1808
    117  OG1       13.8410   13.3740   39.6700 O.3   112  THR112     -0.2208
    118  CG2       12.0340   14.8560   40.3010 C.3   112  THR112      0.0379
    119  N         13.0830   13.2050   36.2330 N.am  113  MET113     -0.1976
    120  CA        13.9600   12.5460   35.2780 C.3   113  MET113      0.1605
    121  C         15.2920   12.1780   35.9220 C.2   113  MET113      0.2287
    122  O         15.8250   11.0940   35.6610 O.2   113  MET113     -0.2864
    123  CB        14.1720   13.3980   34.0400 C.3   113  MET113      0.0413
    124  CG        12.9330   13.4810   33.1770 C.3   113  MET113      0.0598
    125  SD        13.1430   14.3120   31.6200 S.3   113  MET113     -0.1393
    126  CE        13.0760   15.9790   32.1350 C.3   113  MET113      0.0692
    127  N         15.4470    8.8160   37.8430 N.3   116  VAL116     -0.1245
    128  CA        15.5040    7.5850   37.0750 C.3   116  VAL116      0.1561
    129  C         16.9300    7.0810   36.9960 C.2   116  VAL116      0.2260
    130  O         17.1640    5.8830   36.9670 O.2   116  VAL116     -0.2867
    131  CB        14.9460    7.7900   35.6700 C.3   116  VAL116      0.0252
    132  CG1       15.0380    6.5170   34.8480 C.3   116  VAL116      0.0019
    133  CG2       13.5080    8.2340   35.7910 C.3   116  VAL116      0.0019
@<TRIPOS>BOND
     1    33    34    1
     2    35    36    2
     3    35    34    1
     4    34    37    1
     5    44    45    1
     6    28    27    2
     7    27    26    1
     8    46    45    1
     9    46    47    2
    10    45    48    1
    11    17    18    1
    12    20    19    2
    13    37    38    1
    14    19    18    1
    15    19    25   am
    16    18    21    1
    17    26    25    1
    18    26    29    1
    19    38    40   ar
    20    38    39   ar
    21    48    49    1
    22    48    50    1
    23    40    42   ar
    24    29    30    1
    25    39    41   ar
    26    49    51    1
    27    42    43   ar
    28    41    43   ar
    29    22    21    1
    30    22    24    1
    31    21    23    1
    32    30    31    1
    33    30    32    1
    34    12    11    2
    35     9    10    1
    36    11    10    1
    37    10    13    1
    38    66    64    1
    39    52    53    1
    40     1     2    1
    41     4     3    2
    42     2     3    1
    43     2     5    1
    44    13    14    1
    45     7     6    1
    46    60    61    1
    47    16    14    1
    48    53    54    1
    49    53    56    1
    50    64    61    1
    51    64    65    1
    52    14    15    1
    53    57    56    1
    54    57    59    1
    55    61    62    1
    56     5     6    1
    57    54    55    2
    58    89    87    1
    59    56    58    1
    60     6     8    1
    61   125   126    1
    62   125   124    1
    63    62    63    2
    64    62    67   am
    65    87    88    1
    66    87    84    1
    67    83    84    1
    68    67    68    1
    69   124   123    1
    70    84    85    1
    71   123   120    1
    72    96    94    1
    73    68    71    1
    74    68    69    1
    75    72    73    1
    76    72    71    1
    77    85    86    2
    78   132   131    1
    79    73    74    1
    80    95    94    1
    81    69    70    2
    82    94    91    1
    83   120   121    1
    84   120   119    1
    85    81    80    1
    86   122   121    2
    87   131   133    1
    88   131   128    1
    89    80    82    1
    90    80    79    1
    91   119   114   am
    92    91    90    1
    93    91    92    1
    94    75    76    1
    95   102   101    1
    96   130   129    2
    97   129   128    1
    98   128   127    1
    99    79    76    1
   100   114   115    2
   101   114   113    1
   102    92    97   am
   103    92    93    2
   104    97    98    1
   105    76    77    1
   106   106   105    2
   107   101    98    1
   108    98    99    1
   109   113   112    1
   110   113   116    1
   111   105   112   am
   112   105   104    1
   113   107   108    1
   114   107   104    1
   115    77    78    2
   116   116   117    1
   117   116   118    1
   118   108   109    1
   119   104   103    1
   120    99   100    2
   121   110   109    1
   122   110   111    1
