@<TRIPOS>MOLECULE
tmp/3s0eA00.pdb
 125 115 0 0 0
SMALL
GASTEIGER

@<TRIPOS>ATOM
      1  N         -3.5520   -6.0340  -14.4960 N.3    10  LEU10      -0.1245
      2  CA        -3.5770   -7.4390  -14.0590 C.3    10  LEU10       0.1561
      3  C         -4.9340   -8.0620  -14.3540 C.2    10  LEU10       0.2260
      4  O         -4.9740   -9.1610  -14.8870 O.2    10  LEU10      -0.2867
      5  CB        -3.2540   -7.5640  -12.5660 C.3    10  LEU10       0.0270
      6  CG        -1.7800   -7.4380  -12.2000 C.3    10  LEU10       0.0019
      7  CD1       -1.6330   -7.1290  -10.7220 C.3    10  LEU10       0.0001
      8  CD2       -1.0060   -8.7150  -12.5400 C.3    10  LEU10       0.0001
      9  N          0.5760  -14.8100  -19.0460 N.3    50  ILE50      -0.1231
     10  CA         0.6750  -13.6150  -18.1990 C.3    50  ILE50       0.1692
     11  C          2.1050  -13.0640  -18.2310 C.2    50  ILE50       0.2591
     12  O          2.2950  -11.8540  -18.4100 O.2    50  ILE50      -0.2718
     13  CB         0.2070  -13.9320  -16.7570 C.3    50  ILE50       0.0266
     14  CG1       -1.3320  -14.1620  -16.7490 C.3    50  ILE50       0.0019
     15  CG2        0.6050  -12.7990  -15.7750 C.3    50  ILE50       0.0020
     16  CD1       -1.8730  -14.6390  -15.4670 C.3    50  ILE50       0.0001
     17  N          3.1070  -13.9310  -18.0530 N.am   51  LEU51      -0.1980
     18  CA         4.4900  -13.4300  -18.0560 C.3    51  LEU51       0.1596
     19  C          4.9180  -12.8230  -19.3810 C.2    51  LEU51       0.2287
     20  O          5.5760  -11.7800  -19.3920 O.2    51  LEU51      -0.2864
     21  CB         5.4990  -14.4860  -17.5990 C.3    51  LEU51       0.0297
     22  CG         5.3230  -15.0360  -16.1840 C.3    51  LEU51       0.0022
     23  CD1        6.3170  -16.1670  -15.9400 C.3    51  LEU51       0.0001
     24  CD2        5.5040  -13.9430  -15.1250 C.3    51  LEU51       0.0001
     25  N          3.4300   -9.3310  -19.9030 N.3    54  PHE54      -0.1241
     26  CA         4.0810   -8.3250  -19.0620 C.3    54  PHE54       0.1605
     27  C          5.5540   -8.1410  -19.4290 C.2    54  PHE54       0.2264
     28  O          6.2670   -7.4150  -18.7360 O.2    54  PHE54      -0.2867
     29  CB         3.9350   -8.6820  -17.5820 C.3    54  PHE54       0.0534
     30  CG         2.6590   -8.1860  -16.9590 C.ar   54  PHE54      -0.0203
     31  CD1        2.5480   -6.8750  -16.5130 C.ar   54  PHE54      -0.0042
     32  CD2        1.5740   -9.0400  -16.7870 C.ar   54  PHE54      -0.0042
     33  CE1        1.3750   -6.4250  -15.9040 C.ar   54  PHE54      -0.0003
     34  CE2        0.4070   -8.5930  -16.1660 C.ar   54  PHE54      -0.0003
     35  CZ         0.3180   -7.2870  -15.7310 C.ar   54  PHE54      -0.0000
     36  N          7.9930  -10.2840  -19.2350 N.3    56  ILE56      -0.1245
     37  CA         8.8320  -10.9360  -18.2220 C.3    56  ILE56       0.1561
     38  C          9.5190  -12.1530  -18.8190 C.2    56  ILE56       0.2260
     39  O         10.5710  -12.5780  -18.3330 O.2    56  ILE56      -0.2867
     40  CB         8.0270  -11.2120  -16.9310 C.3    56  ILE56       0.0252
     41  CG1        7.6140   -9.8650  -16.3060 C.3    56  ILE56       0.0019
     42  CG2        8.8190  -12.0700  -15.9110 C.3    56  ILE56       0.0019
     43  CD1        6.5170   -9.9420  -15.4430 C.3    56  ILE56       0.0001
     44  N         10.1610   -7.7780  -14.7380 N.3    68  ILE68      -0.1245
     45  CA         9.7150   -8.0600  -13.3690 C.3    68  ILE68       0.1561
     46  C          9.9700   -6.8650  -12.4370 C.2    68  ILE68       0.2260
     47  O          9.1510   -6.5950  -11.5660 O.2    68  ILE68      -0.2867
     48  CB        10.2500   -9.4160  -12.8150 C.3    68  ILE68       0.0252
     49  CG1        9.4520   -9.9020  -11.5880 C.3    68  ILE68       0.0019
     50  CG2       11.7530   -9.3600  -12.5040 C.3    68  ILE68       0.0019
     51  CD1        8.0260  -10.2920  -11.8160 C.3    68  ILE68       0.0001
     52  N          7.1920   -4.1550  -12.6750 N.3    71  VAL71      -0.1231
     53  CA         5.9910   -4.5150  -11.9310 C.3    71  VAL71       0.1692
     54  C          6.2560   -4.4950  -10.4160 C.2    71  VAL71       0.2591
     55  O          5.5390   -3.8160   -9.6800 O.2    71  VAL71      -0.2718
     56  CB         5.4230   -5.8910  -12.3940 C.3    71  VAL71       0.0266
     57  CG1        4.2670   -6.3530  -11.5080 C.3    71  VAL71       0.0020
     58  CG2        4.9890   -5.8450  -13.8570 C.3    71  VAL71       0.0020
     59  N          7.2660   -5.2580   -9.9570 N.am   72  MET72      -0.1979
     60  CA         7.5450   -5.4320   -8.5320 C.3    72  MET72       0.1605
     61  C          7.9950   -4.2110   -7.7620 C.2    72  MET72       0.2287
     62  O          7.7150   -4.1320   -6.5640 O.2    72  MET72      -0.2864
     63  CB         8.4220   -6.6560   -8.2490 C.3    72  MET72       0.0413
     64  CG         7.8770   -7.9500   -8.8280 C.3    72  MET72       0.0598
     65  SD         6.1970   -8.4100   -8.3160 S.3    72  MET72      -0.1393
     66  CE         6.4930   -8.8890   -6.6670 C.3    72  MET72       0.0692
     67  N          5.3090   -2.5810   -5.7740 N.3    75  LEU75      -0.1245
     68  CA         4.7450   -3.4170   -4.7170 C.3    75  LEU75       0.1561
     69  C          5.6210   -3.7460   -3.5210 C.2    75  LEU75       0.2260
     70  O          5.0750   -3.9750   -2.4400 O.2    75  LEU75      -0.2867
     71  CB         4.2600   -4.7360   -5.3430 C.3    75  LEU75       0.0270
     72  CG         3.3970   -4.6330   -6.5980 C.3    75  LEU75       0.0019
     73  CD1        3.1230   -5.9990   -7.1600 C.3    75  LEU75       0.0001
     74  CD2        2.0910   -3.8960   -6.3160 C.3    75  LEU75       0.0001
     75  N          6.2120  -18.0520  -11.9940 N.3   104  VAL104     -0.1245
     76  CA         5.0810  -17.4280  -11.3040 C.3   104  VAL104      0.1561
     77  C          5.0820  -17.8750   -9.8380 C.2   104  VAL104      0.2260
     78  O          4.8540  -17.0550   -8.9580 O.2   104  VAL104     -0.2867
     79  CB         3.7450  -17.7110  -12.0270 C.3   104  VAL104      0.0252
     80  CG1        2.5390  -17.3110  -11.1720 C.3   104  VAL104      0.0019
     81  CG2        3.7000  -16.9840  -13.3720 C.3   104  VAL104      0.0019
     82  N          7.8360  -15.7710   -8.0870 N.3   107  VAL107     -0.1231
     83  CA         7.4130  -14.3790   -7.8670 C.3   107  VAL107      0.1692
     84  C          6.3590  -14.3280   -6.7300 C.2   107  VAL107      0.2592
     85  O          6.3930  -13.4090   -5.9120 O.2   107  VAL107     -0.2718
     86  CB         6.8590  -13.7190   -9.1640 C.3   107  VAL107      0.0266
     87  CG1        6.3710  -12.2920   -8.8940 C.3   107  VAL107      0.0020
     88  CG2        7.9010  -13.7200  -10.2880 C.3   107  VAL107      0.0020
     89  N          5.4360  -15.3100   -6.6980 N.am  108  SER108     -0.1952
     90  CA         4.3300  -15.4050   -5.7380 C.3   108  SER108      0.1924
     91  C          4.7540  -15.4790   -4.2830 C.2   108  SER108      0.2314
     92  O          3.9690  -15.0960   -3.4100 O.2   108  SER108     -0.2863
     93  CB         3.3850  -16.5490   -6.0860 C.3   108  SER108      0.2116
     94  OG         2.7390  -16.2860   -7.3230 O.3   108  SER108     -0.2180
     95  N          5.0950  -11.4390   -3.6430 N.3   111  LYS111     -0.1231
     96  CA         3.7700  -10.8120   -3.7240 C.3   111  LYS111      0.1693
     97  C          2.9500  -11.6210   -4.6990 C.2   111  LYS111      0.2593
     98  O          3.4530  -11.9820   -5.7650 O.2   111  LYS111     -0.2718
     99  CB         3.8070   -9.3590   -4.2490 C.3   111  LYS111      0.0285
    100  CG         4.2100   -8.2760   -3.2610 C.3   111  LYS111      0.0035
    101  CD         3.4090   -8.2850   -1.9610 C.3   111  LYS111      0.0206
    102  CE         2.4320   -7.1570   -1.8870 C.3   111  LYS111      0.1093
    103  NZ         2.7680   -6.1930   -0.8130 N.3   111  LYS111     -0.1314
    104  N          1.6720  -11.8290   -4.3740 N.am  112  THR112     -0.1939
    105  CA         0.7640  -12.5380   -5.2660 C.3   112  THR112      0.2028
    106  C          0.0530  -11.5220   -6.1410 C.2   112  THR112      0.2642
    107  O          0.0070  -10.3370   -5.7980 O.2   112  THR112     -0.2714
    108  CB        -0.2510  -13.3600   -4.4610 C.3   112  THR112      0.1808
    109  OG1       -1.1060  -12.4670   -3.7470 O.3   112  THR112     -0.2208
    110  CG2        0.4120  -14.3600   -3.5000 C.3   112  THR112      0.0379
    111  N         -0.5430  -11.9780   -7.2560 N.am  113  MET113     -0.1976
    112  CA        -1.3350  -11.0700   -8.0960 C.3   113  MET113      0.1605
    113  C         -2.5510  -10.5830   -7.3140 C.2   113  MET113      0.2287
    114  O         -2.9020   -9.4090   -7.4110 O.2   113  MET113     -0.2864
    115  CB        -1.7770  -11.7700   -9.3720 C.3   113  MET113      0.0413
    116  CG        -0.6370  -11.9830  -10.3120 C.3   113  MET113      0.0598
    117  SD        -1.1860  -12.5280  -11.9420 S.3   113  MET113     -0.1393
    118  CE        -1.1950  -14.2900  -11.7030 C.3   113  MET113      0.0692
    119  N         -2.3990   -7.2660   -4.9810 N.3   116  VAL116     -0.1245
    120  CA        -2.5180   -5.9380   -5.5900 C.3   116  VAL116      0.1561
    121  C         -3.9340   -5.3360   -5.4080 C.2   116  VAL116      0.2260
    122  O         -4.0710   -4.1160   -5.2950 O.2   116  VAL116     -0.2867
    123  CB        -2.0350   -5.9640   -7.0680 C.3   116  VAL116      0.0252
    124  CG1       -2.0110   -4.5650   -7.6770 C.3   116  VAL116      0.0019
    125  CG2       -0.6490   -6.6030   -7.1710 C.3   116  VAL116      0.0019
@<TRIPOS>BOND
     1    25    26    1
     2    27    26    1
     3    27    28    2
     4    20    19    2
     5    19    18    1
     6    36    37    1
     7    26    29    1
     8     9    10    1
     9    38    39    2
    10    38    37    1
    11    12    11    2
    12    11    10    1
    13    11    17   am
    14    37    40    1
    15    10    13    1
    16    18    17    1
    17    18    21    1
    18    21    22    1
    19    29    30    1
    20    30    32   ar
    21    30    31   ar
    22    40    41    1
    23    40    42    1
    24    32    34   ar
    25    13    14    1
    26    13    15    1
    27    14    16    1
    28    31    33   ar
    29    41    43    1
    30    22    23    1
    31    22    24    1
    32    34    35   ar
    33    33    35   ar
    34     4     3    2
    35    44    45    1
    36     1     2    1
    37     3     2    1
    38     2     5    1
    39    58    56    1
    40    81    79    1
    41    45    48    1
    42    45    46    1
    43    48    50    1
    44    48    49    1
    45    52    53    1
    46     5     6    1
    47     8     6    1
    48    46    47    2
    49    56    53    1
    50    56    57    1
    51     6     7    1
    52    79    76    1
    53    79    80    1
    54    75    76    1
    55   117   118    1
    56   117   116    1
    57    53    54    1
    58    51    49    1
    59    76    77    1
    60    54    59   am
    61    54    55    2
    62   116   115    1
    63    88    86    1
    64    59    60    1
    65    77    78    2
    66   115   112    1
    67    86    87    1
    68    86    83    1
    69    64    65    1
    70    64    63    1
    71    60    63    1
    72    60    61    1
    73    65    66    1
    74   112   113    1
    75   112   111    1
    76    82    83    1
    77    83    84    1
    78    61    62    2
    79   124   123    1
    80   114   113    2
    81    94    93    1
    82   111   106   am
    83   125   123    1
    84    73    72    1
    85   123   120    1
    86    84    89   am
    87    84    85    2
    88    89    90    1
    89    72    74    1
    90    72    71    1
    91   106   107    2
    92   106   105    1
    93    93    90    1
    94    67    68    1
    95    98    97    2
    96    90    91    1
    97   120   121    1
    98   120   119    1
    99   121   122    2
   100    71    68    1
   101   105   108    1
   102   105   104    1
   103    68    69    1
   104    97   104   am
   105    97    96    1
   106   108   109    1
   107   108   110    1
   108    91    92    2
   109    99    96    1
   110    99   100    1
   111    96    95    1
   112    69    70    2
   113   100   101    1
   114   101   102    1
   115   102   103    1
