@<TRIPOS>MOLECULE
tmp/3s0nA02.pdb
 144 138 0 0 0
SMALL
GASTEIGER

@<TRIPOS>ATOM
      1  N         14.4120   36.0870    7.9730 N.3    28  LYS28      -0.1245
      2  CA        15.2230   35.1900    7.1570 C.3    28  LYS28       0.1561
      3  C         14.3790   34.8140    5.9490 C.2    28  LYS28       0.2260
      4  O         13.1820   35.0950    5.9160 O.2    28  LYS28      -0.2867
      5  CB        15.5970   33.9250    7.9280 C.3    28  LYS28       0.0271
      6  CG        16.6590   34.1280    8.9930 C.3    28  LYS28       0.0035
      7  CD        17.2490   32.7870    9.4280 C.3    28  LYS28       0.0206
      8  CE        18.4870   32.9830   10.2940 C.3    28  LYS28       0.1093
      9  NZ        19.1940   31.6970   10.5610 N.3    28  LYS28      -0.1314
     10  N         13.9010   23.4670    9.1950 N.3    45  HIS45      -0.1241
     11  CA        14.7910   24.4530    9.7860 C.3    45  HIS45       0.1621
     12  C         14.4000   25.8780    9.4150 C.2    45  HIS45       0.2264
     13  O         14.9840   26.8410    9.9190 O.2    45  HIS45      -0.2867
     14  CB        16.2670   24.1830    9.4300 C.3    45  HIS45       0.0745
     15  CG        16.6610   24.5840    8.0400 C.ar   45  HIS45       0.0817
     16  ND1       16.8100   23.6720    7.0160 N.ar   45  HIS45      -0.2268
     17  CD2       16.9980   25.7890    7.5220 C.ar   45  HIS45       0.1154
     18  CE1       17.2260   24.2980    5.9290 C.ar   45  HIS45       0.1986
     19  NE2       17.3490   25.5840    6.2090 N.ar   45  HIS45      -0.2212
     20  N         12.0220   16.0610   13.6140 N.3    81  TYR81      -0.1241
     21  CA        13.0620   16.9620   13.1370 C.3    81  TYR81       0.1605
     22  C         14.0880   17.1320   14.2520 C.2    81  TYR81       0.2264
     23  O         13.7290   17.3410   15.4100 O.2    81  TYR81      -0.2867
     24  CB        12.4760   18.3210   12.7590 C.3    81  TYR81       0.0534
     25  CG        13.5300   19.3720   12.5130 C.ar   81  TYR81      -0.0201
     26  CD1       14.5220   19.1810   11.5570 C.ar   81  TYR81      -0.0009
     27  CD2       13.5490   20.5460   13.2520 C.ar   81  TYR81      -0.0009
     28  CE1       15.5050   20.1320   11.3490 C.ar   81  TYR81       0.0417
     29  CE2       14.5270   21.5010   13.0500 C.ar   81  TYR81       0.0417
     30  CZ        15.5010   21.2900   12.1020 C.ar   81  TYR81       0.1957
     31  OH        16.4850   22.2340   11.9170 O.3    81  TYR81      -0.2866
     32  N         19.8620   17.0790   11.6760 N.3    86  LEU86      -0.1245
     33  CA        19.1330   17.6710   10.5610 C.3    86  LEU86       0.1561
     34  C         18.2720   16.6440    9.8290 C.2    86  LEU86       0.2260
     35  O         17.8140   16.8810    8.7140 O.2    86  LEU86      -0.2867
     36  CB        20.0890   18.3560    9.5820 C.3    86  LEU86       0.0270
     37  CG        20.6790   19.6670   10.1080 C.3    86  LEU86       0.0019
     38  CD1       21.6100   20.2710    9.0710 C.3    86  LEU86       0.0001
     39  CD2       19.5500   20.6340   10.4390 C.3    86  LEU86       0.0001
     40  N         14.1620   17.0360    8.0290 N.3    89  ASP89      -0.1239
     41  CA        14.1190   18.4780    7.8410 C.3    89  ASP89       0.1674
     42  C         12.9730   18.8010    6.8900 C.2    89  ASP89       0.2266
     43  O         13.1830   19.2220    5.7590 O.2    89  ASP89      -0.2867
     44  CB        15.4520   18.9620    7.2620 C.3    89  ASP89       0.1410
     45  CG        15.5530   20.4720    7.2040 C.2    89  ASP89       0.3668
     46  OD1       14.7120   21.1570    7.8270 O.co2  89  ASP89      -0.2456
     47  OD2       16.4810   20.9760    6.5370 O.co2  89  ASP89      -0.2456
     48  N         24.9370   24.1620   -7.7910 N.3   176  SER176     -0.1202
     49  CA        24.3820   23.6340   -6.5530 C.3   176  SER176      0.2020
     50  C         23.3290   24.5280   -5.9270 C.2   176  SER176      0.2619
     51  O         23.2370   25.7170   -6.2270 O.2   176  SER176     -0.2717
     52  CB        25.5000   23.4190   -5.5320 C.3   176  SER176      0.2103
     53  OG        24.9660   23.1100   -4.2540 O.3   176  SER176     -0.2182
     54  N         22.5180   23.9350   -5.0630 N.am  177  ALA177     -0.1965
     55  CA        21.5200   24.6990   -4.3400 C.3   177  ALA177      0.1728
     56  C         22.3850   25.2870   -3.2350 C.2   177  ALA177      0.2616
     57  O         23.4120   24.7010   -2.8850 O.2   177  ALA177     -0.2715
     58  CB        20.4560   23.7690   -3.7500 C.3   177  ALA177      0.0334
     59  N         22.0020   26.4330   -2.6920 N.am  178  PHE178     -0.1960
     60  CA        22.8050   27.0310   -1.6350 C.3   178  PHE178      0.1771
     61  C         21.9280   27.7250   -0.5990 C.2   178  PHE178      0.2619
     62  O         20.7040   27.5800   -0.6090 O.2   178  PHE178     -0.2715
     63  CB        23.8070   28.0190   -2.2460 C.3   178  PHE178      0.0574
     64  CG        24.9540   28.3650   -1.3380 C.ar  178  PHE178     -0.0200
     65  CD1       25.6180   27.3730   -0.6270 C.ar  178  PHE178     -0.0042
     66  CD2       25.3780   29.6760   -1.2050 C.ar  178  PHE178     -0.0042
     67  CE1       26.6820   27.6840    0.2000 C.ar  178  PHE178     -0.0003
     68  CE2       26.4420   29.9960   -0.3800 C.ar  178  PHE178     -0.0003
     69  CZ        27.0950   28.9980    0.3240 C.ar  178  PHE178     -0.0000
     70  N         22.5620   28.4610    0.3050 N.am  179  LYS179     -0.1963
     71  CA        21.8410   29.1820    1.3450 C.3   179  LYS179      0.1728
     72  C         20.7320   30.0140    0.7240 C.2   179  LYS179      0.2616
     73  O         20.9570   30.7340   -0.2490 O.2   179  LYS179     -0.2715
     74  CB        22.7960   30.1010    2.1140 C.3   179  LYS179      0.0311
     75  CG        23.8220   29.3590    2.9590 C.3   179  LYS179      0.0038
     76  CD        24.6890   30.3270    3.7510 C.3   179  LYS179      0.0206
     77  CE        25.6780   29.5760    4.6300 C.3   179  LYS179      0.1093
     78  NZ        26.5180   30.5050    5.4430 N.3   179  LYS179     -0.1314
     79  N         19.5380   29.9110    1.2940 N.am  180  GLY180     -0.1955
     80  CA        18.4070   30.6560    0.7780 C.3   180  GLY180      0.1869
     81  C         17.5120   29.7960   -0.0980 C.2   180  GLY180      0.2309
     82  O         16.3570   30.1470   -0.3480 O.2   180  GLY180     -0.2863
     83  N         16.8180   26.6000    0.6790 N.3   182  SER182     -0.1217
     84  CA        16.1690   25.6210    1.5440 C.3   182  SER182      0.1889
     85  C         14.6460   25.5920    1.3590 C.2   182  SER182      0.2288
     86  O         14.0020   26.6370    1.2240 O.2   182  SER182     -0.2866
     87  CB        16.4910   25.9300    3.0110 C.3   182  SER182      0.2089
     88  OG        17.8640   25.7060    3.2890 O.3   182  SER182     -0.2183
     89  N         15.3280   20.8870   -0.7180 N.3   196  VAL196     -0.1231
     90  CA        16.6300   21.4430   -0.3560 C.3   196  VAL196      0.1692
     91  C         16.7720   21.4830    1.1650 C.2   196  VAL196      0.2593
     92  O         15.9260   22.0520    1.8490 O.2   196  VAL196     -0.2718
     93  CB        16.7830   22.8810   -0.8850 C.3   196  VAL196      0.0266
     94  CG1       18.1470   23.4340   -0.4860 C.3   196  VAL196      0.0020
     95  CG2       16.6120   22.9010   -2.4060 C.3   196  VAL196      0.0020
     96  N         17.8370   20.8890    1.6950 N.am  197  SER197     -0.1938
     97  CA        18.0310   20.8880    3.1480 C.3   197  SER197      0.2055
     98  C         19.3020   21.5990    3.6040 C.2   197  SER197      0.2643
     99  O         19.2310   22.6570    4.2300 O.2   197  SER197     -0.2714
    100  CB        18.0260   19.4530    3.6840 C.3   197  SER197      0.2130
    101  OG        18.1690   19.4500    5.0980 O.3   197  SER197     -0.2179
    102  N         20.4660   21.0260    3.3090 N.am  198  TYR198     -0.1959
    103  CA        21.7230   21.6570    3.7170 C.3   198  TYR198      0.1771
    104  C         22.9340   21.2020    2.9000 C.2   198  TYR198      0.2620
    105  O         22.8150   20.3990    1.9730 O.2   198  TYR198     -0.2715
    106  CB        21.9810   21.4020    5.2140 C.3   198  TYR198      0.0574
    107  CG        22.3820   19.9790    5.5650 C.ar  198  TYR198     -0.0198
    108  CD1       23.7190   19.5990    5.5930 C.ar  198  TYR198     -0.0009
    109  CD2       21.4260   19.0190    5.8710 C.ar  198  TYR198     -0.0009
    110  CE1       24.0930   18.3010    5.9170 C.ar  198  TYR198      0.0417
    111  CE2       21.7890   17.7190    6.1950 C.ar  198  TYR198      0.0417
    112  CZ        23.1240   17.3670    6.2180 C.ar  198  TYR198      0.1957
    113  OH        23.4940   16.0800    6.5540 O.3   198  TYR198     -0.2866
    114  N         24.0970   21.7350    3.2570 N.am  199  GLY199     -0.1940
    115  CA        25.3320   21.3870    2.5810 C.3   199  GLY199      0.2014
    116  C         26.4950   22.0640    3.2810 C.2   199  GLY199      0.2639
    117  O         26.3930   22.4030    4.4620 O.2   199  GLY199     -0.2714
    118  N         27.5910   22.2700    2.5560 N.am  200  ARG200     -0.1963
    119  CA        28.7840   22.9140    3.1020 C.3   200  ARG200      0.1729
    120  C         28.6900   24.4320    3.0060 C.2   200  ARG200      0.2616
    121  O         28.1960   24.9750    2.0180 O.2   200  ARG200     -0.2715
    122  CB        30.0360   22.4460    2.3500 C.3   200  ARG200      0.0348
    123  CG        30.4740   21.0180    2.6670 C.3   200  ARG200      0.0492
    124  CD        31.6100   20.5760    1.7520 C.3   200  ARG200      0.2205
    125  NE        32.8190   21.3790    1.9330 N.pl3 200  ARG200     -0.0865
    126  CZ        33.7760   21.1130    2.8180 C.cat 200  ARG200      0.5346
    127  NH1       33.6770   20.0550    3.6140 N.pl3 200  ARG200      0.1354
    128  NH2       34.8330   21.9080    2.9100 N.pl3 200  ARG200      0.1354
    129  N         29.1780   25.1210    4.0290 N.am  201  SER201     -0.1950
    130  CA        29.1420   26.5760    4.0230 C.3   201  SER201      0.1924
    131  C         30.0230   27.1390    2.9100 C.2   201  SER201      0.2314
    132  O         29.8190   28.2700    2.4720 O.2   201  SER201     -0.2863
    133  CB        29.5840   27.1280    5.3850 C.3   201  SER201      0.2116
    134  OG        30.8220   26.5740    5.7830 O.3   201  SER201     -0.2180
    135  N         30.0600   26.0410   -0.0390 N.3   203  ALA203     -0.1245
    136  CA        29.3300   25.7530   -1.2740 C.3   203  ALA203      0.1562
    137  C         29.8090   24.5950   -2.1420 C.2   203  ALA203      0.2260
    138  O         29.2770   24.3880   -3.2300 O.2   203  ALA203     -0.2867
    139  CB        29.2430   27.0170   -2.1220 C.3   203  ALA203      0.0290
    140  N         25.0200   18.6050   -2.2060 N.3   207  ALA207     -0.1245
    141  CA        24.2350   19.0980   -1.0850 C.3   207  ALA207      0.1562
    142  C         23.2580   17.9970   -0.6840 C.2   207  ALA207      0.2260
    143  O         23.0210   17.0520   -1.4460 O.2   207  ALA207     -0.2867
    144  CB        23.4800   20.3710   -1.4750 C.3   207  ALA207      0.0290
@<TRIPOS>BOND
     1    48    49    1
     2    49    50    1
     3    49    52    1
     4    51    50    2
     5    50    54   am
     6    52    53    1
     7    54    55    1
     8    55    58    1
     9    55    56    1
    10    56    57    2
    11    56    59   am
    12   138   137    2
    13    59    60    1
    14    95    93    1
    15    63    60    1
    16    63    64    1
    17   140   141    1
    18   137   136    1
    19   139   136    1
    20    60    61    1
    21   144   141    1
    22   143   142    2
    23    64    66   ar
    24    64    65   ar
    25   136   135    1
    26    66    68   ar
    27   141   142    1
    28    93    94    1
    29    93    90    1
    30    89    90    1
    31    65    67   ar
    32    62    61    2
    33    61    70   am
    34    68    69   ar
    35    90    91    1
    36    82    81    2
    37    73    72    2
    38    81    80    1
    39    67    69   ar
    40    70    71    1
    41    83    84    1
    42    72    79   am
    43    72    71    1
    44    80    79    1
    45    91    96   am
    46    91    92    2
    47    86    85    2
    48    71    74    1
    49    85    84    1
    50    84    87    1
    51    96    97    1
    52   124   125    1
    53   124   123    1
    54   125   126    2
    55   105   104    2
    56   121   120    2
    57    74    75    1
    58   122   123    1
    59   122   119    1
    60   132   131    2
    61   118   119    1
    62   118   116   am
    63   115   114    1
    64   115   116    1
    65   126   128    1
    66   126   127    1
    67   104   114   am
    68   104   103    1
    69   131   130    1
    70    75    76    1
    71   120   119    1
    72   120   129   am
    73    87    88    1
    74    97    98    1
    75    97   100    1
    76   116   117    2
    77   102    98   am
    78   102   103    1
    79    98    99    2
    80   100   101    1
    81   103   106    1
    82    76    77    1
    83   130   129    1
    84   130   133    1
    85    77    78    1
    86   106   107    1
    87   133   134    1
    88   107   108   ar
    89   107   109   ar
    90   108   110   ar
    91    43    42    2
    92   109   111   ar
    93     4     3    2
    94   110   112   ar
    95    18    19   ar
    96    18    16   ar
    97     3     2    1
    98   111   112   ar
    99    19    17   ar
   100   112   113    1
   101    47    45   ar
   102    42    41    1
   103    16    15   ar
   104     2     5    1
   105     2     1    1
   106    45    44    1
   107    45    46   ar
   108    44    41    1
   109    17    15   ar
   110    41    40    1
   111     5     6    1
   112    15    14    1
   113    35    34    2
   114     6     7    1
   115    38    37    1
   116    10    11    1
   117    12    11    1
   118    12    13    2
   119     7     8    1
   120    14    11    1
   121    36    37    1
   122    36    33    1
   123    34    33    1
   124    37    39    1
   125     8     9    1
   126    33    32    1
   127    28    26   ar
   128    28    30   ar
   129    26    25   ar
   130    31    30    1
   131    30    29   ar
   132    25    24    1
   133    25    27   ar
   134    24    21    1
   135    29    27   ar
   136    21    20    1
   137    21    22    1
   138    22    23    2
