@<TRIPOS>MOLECULE
tmp/3s0oA00.pdb
 157 151 0 0 0
SMALL
GASTEIGER

@<TRIPOS>ATOM
      1  N         67.2470   85.4450  -78.8230 N.3    10  ILE10      -0.1231
      2  CA        66.3250   84.3730  -79.1540 C.3    10  ILE10       0.1692
      3  C         66.4400   83.1810  -78.2060 C.2    10  ILE10       0.2593
      4  O         65.4540   82.4940  -77.9500 O.2    10  ILE10      -0.2718
      5  CB        66.5450   83.9030  -80.6040 C.3    10  ILE10       0.0266
      6  CG1       66.2280   85.0500  -81.5650 C.3    10  ILE10       0.0019
      7  CG2       65.6730   82.6900  -80.9030 C.3    10  ILE10       0.0020
      8  CD1       66.4480   84.7090  -83.0200 C.3    10  ILE10       0.0001
      9  N         67.6390   82.9340  -77.6870 N.am   11  GLY11      -0.1942
     10  CA        67.8200   81.8160  -76.7770 C.3    11  GLY11       0.2014
     11  C         69.2100   81.2070  -76.7940 C.2    11  GLY11       0.2639
     12  O         70.2080   81.9230  -76.7160 O.2    11  GLY11      -0.2714
     13  N         69.2780   79.8810  -76.8990 N.am   12  GLU12      -0.1963
     14  CA        70.5590   79.1790  -76.9170 C.3    12  GLU12       0.1733
     15  C         70.5190   77.8060  -77.5630 C.2    12  GLU12       0.2616
     16  O         69.8120   76.9100  -77.1020 O.2    12  GLU12      -0.2715
     17  CB        71.1000   79.0360  -75.4980 C.3    12  GLU12       0.0429
     18  CG        72.0810   80.1190  -75.0990 C.3    12  GLU12       0.1163
     19  CD        72.4990   79.9920  -73.6560 C.2    12  GLU12       0.3649
     20  OE1       71.6360   80.1940  -72.7730 O.co2  12  GLU12      -0.2457
     21  OE2       73.6840   79.6830  -73.4070 O.co2  12  GLU12      -0.2457
     22  N         71.2970   77.6460  -78.6280 N.am   13  GLY13      -0.1955
     23  CA        71.3530   76.3720  -79.3160 C.3    13  GLY13       0.1869
     24  C         72.3360   75.4440  -78.6280 C.2    13  GLY13       0.2309
     25  O         72.6810   75.6440  -77.4600 O.2    13  GLY13      -0.2863
     26  N         71.8330   82.3740  -79.5610 N.3    18  VAL18      -0.1245
     27  CA        71.1860   82.7790  -80.8030 C.3    18  VAL18       0.1561
     28  C         70.5240   84.1280  -80.5610 C.2    18  VAL18       0.2260
     29  O         69.7500   84.2800  -79.6230 O.2    18  VAL18      -0.2867
     30  CB        70.1120   81.7570  -81.2330 C.3    18  VAL18       0.0252
     31  CG1       69.4710   82.1900  -82.5540 C.3    18  VAL18       0.0019
     32  CG2       70.7450   80.3740  -81.3750 C.3    18  VAL18       0.0019
     33  N         68.7340   85.7660  -87.8080 N.3    31  ALA31      -0.1245
     34  CA        68.9530   85.0490  -86.5600 C.3    31  ALA31       0.1562
     35  C         70.4660   84.8440  -86.5840 C.2    31  ALA31       0.2260
     36  O         70.9910   84.2020  -87.4830 O.2    31  ALA31      -0.2867
     37  CB        68.2440   83.7170  -86.5750 C.3    31  ALA31       0.0290
     38  N         73.8450   83.3380  -84.8400 N.3    33  LYS33      -0.1245
     39  CA        74.3060   82.3600  -83.8620 C.3    33  LYS33       0.1561
     40  C         75.8130   82.4650  -83.6150 C.2    33  LYS33       0.2260
     41  O         76.6100   82.3640  -84.5470 O.2    33  LYS33      -0.2867
     42  CB        73.9580   80.9420  -84.3360 C.3    33  LYS33       0.0271
     43  CG        74.4510   79.8500  -83.3900 C.3    33  LYS33       0.0035
     44  CD        74.0610   78.4570  -83.8640 C.3    33  LYS33       0.0206
     45  CE        74.4350   77.4060  -82.8100 C.3    33  LYS33       0.1093
     46  NZ        74.0340   76.0270  -83.2060 N.3    33  LYS33      -0.1314
     47  N         65.8990   76.1160  -93.1440 N.3    61  VAL61      -0.1245
     48  CA        66.1900   77.5190  -92.8400 C.3    61  VAL61       0.1561
     49  C         67.4860   77.8490  -93.5890 C.2    61  VAL61       0.2260
     50  O         68.4970   77.1750  -93.4200 O.2    61  VAL61      -0.2867
     51  CB        66.3820   77.7400  -91.3190 C.3    61  VAL61       0.0252
     52  CG1       66.7640   79.1910  -91.0280 C.3    61  VAL61       0.0019
     53  CG2       65.1040   77.3710  -90.5920 C.3    61  VAL61       0.0019
     54  N         71.4970   83.2150  -90.1480 N.3    77  PHE77      -0.1227
     55  CA        70.3750   82.4710  -90.7240 C.3    77  PHE77       0.1736
     56  C         69.1880   83.3910  -91.0190 C.2    77  PHE77       0.2595
     57  O         69.0340   84.4260  -90.3890 O.2    77  PHE77      -0.2718
     58  CB        69.8790   81.4060  -89.7400 C.3    77  PHE77       0.0547
     59  CG        70.8730   80.3150  -89.4400 C.ar   77  PHE77      -0.0202
     60  CD1       71.0410   79.2470  -90.3150 C.ar   77  PHE77      -0.0042
     61  CD2       71.6090   80.3350  -88.2550 C.ar   77  PHE77      -0.0042
     62  CE1       71.9310   78.2030  -90.0100 C.ar   77  PHE77      -0.0003
     63  CE2       72.4960   79.2990  -87.9440 C.ar   77  PHE77      -0.0003
     64  CZ        72.6540   78.2340  -88.8230 C.ar   77  PHE77      -0.0000
     65  N         68.3470   82.9950  -91.9620 N.am   78  GLU78      -0.1965
     66  CA        67.1540   83.7690  -92.2640 C.3    78  GLU78       0.1733
     67  C         66.3330   83.6300  -90.9830 C.2    78  GLU78       0.2616
     68  O         66.3370   82.5750  -90.3330 O.2    78  GLU78      -0.2715
     69  CB        66.3950   83.1720  -93.4520 C.3    78  GLU78       0.0429
     70  CG        65.7450   81.8280  -93.1890 C.3    78  GLU78       0.1163
     71  CD        64.9120   81.3430  -94.3690 C.2    78  GLU78       0.3649
     72  OE1       64.1510   82.1540  -94.9390 O.co2  78  GLU78      -0.2457
     73  OE2       65.0100   80.1550  -94.7320 O.co2  78  GLU78      -0.2457
     74  N         65.6550   84.6970  -90.6090 N.am   79  PHE79      -0.1960
     75  CA        64.8740   84.7060  -89.3870 C.3    79  PHE79       0.1771
     76  C         63.4280   84.2810  -89.5840 C.2    79  PHE79       0.2619
     77  O         62.7140   84.8090  -90.4490 O.2    79  PHE79      -0.2715
     78  CB        64.9630   86.1080  -88.7730 C.3    79  PHE79       0.0574
     79  CG        64.0150   86.3570  -87.6350 C.ar   79  PHE79      -0.0200
     80  CD1       62.6930   86.7160  -87.8770 C.ar   79  PHE79      -0.0042
     81  CD2       64.4570   86.2630  -86.3150 C.ar   79  PHE79      -0.0042
     82  CE1       61.8180   86.9810  -86.8210 C.ar   79  PHE79      -0.0003
     83  CE2       63.6010   86.5230  -85.2630 C.ar   79  PHE79      -0.0003
     84  CZ        62.2720   86.8850  -85.5130 C.ar   79  PHE79      -0.0000
     85  N         62.9980   83.3040  -88.7930 N.am   80  LEU80      -0.1963
     86  CA        61.6160   82.8680  -88.8660 C.3    80  LEU80       0.1728
     87  C         60.8940   83.3770  -87.6350 C.2    80  LEU80       0.2616
     88  O         61.5190   83.7200  -86.6450 O.2    80  LEU80      -0.2715
     89  CB        61.5050   81.3470  -89.0290 C.3    80  LEU80       0.0311
     90  CG        61.4950   81.0500  -90.5440 C.3    80  LEU80       0.0022
     91  CD1       62.9260   80.8670  -91.0390 C.3    80  LEU80       0.0001
     92  CD2       60.6520   79.8260  -90.8450 C.3    80  LEU80       0.0001
     93  N         59.5680   83.4140  -87.7290 N.am   81  HIS81      -0.1959
     94  CA        58.6580   83.9570  -86.7170 C.3    81  HIS81       0.1787
     95  C         58.5050   83.2890  -85.3560 C.2    81  HIS81       0.2620
     96  O         58.3840   83.9650  -84.3200 O.2    81  HIS81      -0.2715
     97  CB        57.2560   84.0740  -87.3350 C.3    81  HIS81       0.0785
     98  CG        57.2490   84.5480  -88.7590 C.ar   81  HIS81       0.0821
     99  ND1       56.0980   84.5800  -89.5240 N.ar   81  HIS81      -0.2267
    100  CD2       58.2450   84.9980  -89.5610 C.ar   81  HIS81       0.1154
    101  CE1       56.3880   85.0240  -90.7340 C.ar   81  HIS81       0.1986
    102  NE2       57.6840   85.2860  -90.7830 N.ar   81  HIS81      -0.2212
    103  N         58.4790   81.9680  -85.3370 N.am   82  GLN82      -0.1963
    104  CA        58.2790   81.2660  -84.0720 C.3    82  GLN82       0.1733
    105  C         58.7570   79.8320  -84.2340 C.2    82  GLN82       0.2616
    106  O         58.9080   79.3580  -85.3620 O.2    82  GLN82      -0.2715
    107  CB        56.7870   81.3040  -83.7400 C.3    82  GLN82       0.0408
    108  CG        56.3620   80.6140  -82.4590 C.3    82  GLN82       0.0908
    109  CD        54.9560   81.0240  -82.0570 C.2    82  GLN82       0.2608
    110  OE1       54.7090   82.1920  -81.7590 O.2    82  GLN82      -0.2717
    111  NE2       54.0280   80.0770  -82.0630 N.am   82  GLN82      -0.0878
    112  N         59.0350   79.1550  -83.1220 N.am   83  ASP83      -0.1971
    113  CA        59.4860   77.7750  -83.1950 C.3    83  ASP83       0.1709
    114  C         58.3210   76.8500  -82.8290 C.2    83  ASP83       0.2293
    115  O         57.3500   77.2900  -82.1950 O.2    83  ASP83      -0.2864
    116  CB        60.7010   77.5530  -82.2850 C.3    83  ASP83       0.1436
    117  CG        60.3510   77.5760  -80.8110 C.2    83  ASP83       0.3671
    118  OD1       59.3100   77.0090  -80.4190 O.co2  83  ASP83      -0.2456
    119  OD2       61.1330   78.1420  -80.0370 O.co2  83  ASP83      -0.2456
    120  N         62.3730   72.9610  -80.8380 N.3   128  GLN128     -0.1231
    121  CA        63.0740   74.2420  -80.7710 C.3   128  GLN128      0.1698
    122  C         63.7170   74.6140  -82.0910 C.2   128  GLN128      0.2592
    123  O         63.8090   75.7980  -82.4080 O.2   128  GLN128     -0.2718
    124  CB        64.1680   74.2220  -79.6900 C.3   128  GLN128      0.0381
    125  CG        63.6510   74.1320  -78.2650 C.3   128  GLN128      0.0905
    126  CD        64.7700   74.2080  -77.2470 C.2   128  GLN128      0.2608
    127  OE1       65.7170   73.4230  -77.2910 O.2   128  GLN128     -0.2717
    128  NE2       64.6680   75.1570  -76.3250 N.am  128  GLN128     -0.0878
    129  N         64.2000   73.6380  -82.8590 N.am  129  ASN129     -0.1974
    130  CA        64.8210   74.0100  -84.1330 C.3   129  ASN129      0.1688
    131  C         63.9530   73.7750  -85.3650 C.2   129  ASN129      0.2292
    132  O         64.4470   73.7370  -86.4800 O.2   129  ASN129     -0.2864
    133  CB        66.2280   73.3990  -84.3100 C.3   129  ASN129      0.1181
    134  CG        66.2570   71.8890  -84.1770 C.2   129  ASN129      0.2629
    135  OD1       65.5120   71.1790  -84.8500 O.2   129  ASN129     -0.2716
    136  ND2       67.1400   71.3860  -83.3120 N.am  129  ASN129     -0.0877
    137  N         61.1350   75.6200  -87.3030 N.3   131  LEU131     -0.1245
    138  CA        60.5920   76.9750  -87.3310 C.3   131  LEU131      0.1561
    139  C         59.4610   77.1780  -88.3210 C.2   131  LEU131      0.2260
    140  O         59.5010   76.6680  -89.4350 O.2   131  LEU131     -0.2867
    141  CB        61.7190   77.9580  -87.6170 C.3   131  LEU131      0.0270
    142  CG        62.9220   77.6280  -86.7380 C.3   131  LEU131      0.0019
    143  CD1       64.1200   78.3830  -87.2480 C.3   131  LEU131      0.0001
    144  CD2       62.6210   77.9740  -85.2670 C.3   131  LEU131      0.0001
    145  N         66.0720   73.9090  -88.8590 N.3   141  ALA141     -0.1231
    146  CA        67.2160   74.7790  -88.5970 C.3   141  ALA141      0.1694
    147  C         68.1390   74.2220  -87.5170 C.2   141  ALA141      0.2592
    148  O         67.8350   73.2170  -86.8710 O.2   141  ALA141     -0.2718
    149  CB        66.7380   76.1290  -88.1520 C.3   141  ALA141      0.0304
    150  N         69.2570   74.9170  -87.3200 N.am  142  ASP142     -0.1974
    151  CA        70.2270   74.5700  -86.2890 C.3   142  ASP142      0.1709
    152  C         70.7150   73.1370  -86.4600 C.2   142  ASP142      0.2293
    153  O         70.7070   72.3630  -85.5080 O.2   142  ASP142     -0.2864
    154  CB        69.5500   74.7600  -84.9280 C.3   142  ASP142      0.1436
    155  CG        70.4500   74.4350  -83.7600 C.2   142  ASP142      0.3671
    156  OD1       71.4900   75.1180  -83.5900 O.co2 142  ASP142     -0.2456
    157  OD2       70.0980   73.4920  -83.0070 O.co2 142  ASP142     -0.2456
@<TRIPOS>BOND
     1    72    71   ar
     2    73    71   ar
     3    71    70    1
     4    49    50    2
     5    49    48    1
     6    69    70    1
     7    69    66    1
     8    47    48    1
     9    48    51    1
    10    66    65    1
    11    66    67    1
    12    65    56   am
    13    51    52    1
    14    51    53    1
    15    91    90    1
    16    56    55    1
    17    56    57    2
    18    67    74   am
    19    67    68    2
    20    92    90    1
    21   102   101   ar
    22   102   100   ar
    23   101    99   ar
    24    55    54    1
    25    55    58    1
    26    74    75    1
    27    90    89    1
    28    77    76    2
    29    60    62   ar
    30    60    59   ar
    31    62    64   ar
    32    58    59    1
    33    76    75    1
    34    76    85   am
    35   100    98   ar
    36    99    98   ar
    37    59    61   ar
    38   140   139    2
    39    75    78    1
    40    89    86    1
    41    86    85    1
    42    86    87    1
    43   145   146    1
    44    64    63   ar
    45    78    79    1
    46    98    97    1
    47   146   149    1
    48   146   147    1
    49   139   138    1
    50    61    63   ar
    51    80    79   ar
    52    80    82   ar
    53    33    34    1
    54    93    87   am
    55    93    94    1
    56    87    88    2
    57    79    81   ar
    58   141   138    1
    59   141   142    1
    60   147   150   am
    61   147   148    2
    62    36    35    2
    63    97    94    1
    64   138   137    1
    65   150   151    1
    66   143   142    1
    67    82    84   ar
    68   142   144    1
    69    94    95    1
    70    35    34    1
    71    37    34    1
    72   132   131    2
    73   152   151    1
    74   152   153    2
    75    81    83   ar
    76   151   154    1
    77    84    83   ar
    78   131   130    1
    79   106   105    2
    80    95   103   am
    81    95    96    2
    82   103   104    1
    83   154   155    1
    84   135   134    2
    85    38    39    1
    86    41    40    2
    87    42    39    1
    88    42    43    1
    89   133   134    1
    90   133   130    1
    91   105   104    1
    92   105   112   am
    93   134   136   am
    94   130   129    1
    95   104   107    1
    96    44    43    1
    97    44    45    1
    98    39    40    1
    99   155   156   ar
   100   155   157   ar
   101   107   108    1
   102    46    45    1
   103   113   112    1
   104   113   114    1
   105   113   116    1
   106     8     6    1
   107   129   122   am
   108   114   115    2
   109    31    30    1
   110   108   109    1
   111   123   122    2
   112   116   117    1
   113   122   121    1
   114   111   109   am
   115   109   110    2
   116     6     5    1
   117    32    30    1
   118    30    27    1
   119     7     5    1
   120   120   121    1
   121   117   118   ar
   122   117   119   ar
   123    27    28    1
   124    27    26    1
   125   121   124    1
   126     5     2    1
   127    28    29    2
   128   124   125    1
   129    23    24    1
   130    23    22    1
   131     2     1    1
   132     2     3    1
   133    24    25    2
   134    22    15   am
   135   125   126    1
   136     3     4    2
   137     3     9   am
   138     9    10    1
   139    15    16    2
   140    15    14    1
   141   127   126    2
   142   126   128   am
   143    14    13    1
   144    14    17    1
   145    13    11   am
   146    11    10    1
   147    11    12    2
   148    17    18    1
   149    18    19    1
   150    19    21   ar
   151    19    20   ar
