@<TRIPOS>MOLECULE
tmp/3s19D00.pdb
 137 134 0 0 0
SMALL
GASTEIGER

@<TRIPOS>ATOM
      1  N         19.7790   18.7150   10.8630 N.3    36  TRP36      -0.1241
      2  CA        19.8970   18.2370    9.4870 C.3    36  TRP36       0.1605
      3  C         19.4190   16.7990    9.3970 C.2    36  TRP36       0.2264
      4  O         19.6690   16.0060   10.3020 O.2    36  TRP36      -0.2867
      5  CB        21.3550   18.2500    9.0390 C.3    36  TRP36       0.0550
      6  CG        22.0220   19.5980    8.8950 C.ar   36  TRP36       0.0003
      7  CD1       22.2580   20.5290    9.8750 C.ar   36  TRP36       0.0946
      8  CD2       22.5800   20.1300    7.6900 C.ar   36  TRP36       0.0152
      9  NE1       22.9400   21.6120    9.3400 N.ar   36  TRP36      -0.2442
     10  CE2       23.1320   21.3890    8.0010 C.ar   36  TRP36       0.0810
     11  CE3       22.6560   19.6560    6.3700 C.ar   36  TRP36       0.0012
     12  CZ2       23.7590   22.1810    7.0460 C.ar   36  TRP36       0.0191
     13  CZ3       23.2760   20.4490    5.4170 C.ar   36  TRP36       0.0001
     14  CH2       23.8240   21.6970    5.7660 C.ar   36  TRP36       0.0015
     15  N         28.5840   27.3200   10.3420 N.3    66  LEU66      -0.1231
     16  CA        27.6540   26.3360    9.8200 C.3    66  LEU66       0.1693
     17  C         28.4090   25.5500    8.7480 C.2    66  LEU66       0.2592
     18  O         29.5570   25.8690    8.4230 O.2    66  LEU66      -0.2718
     19  CB        26.3860   27.0150    9.2810 C.3    66  LEU66       0.0284
     20  CG        26.4690   28.1410    8.2510 C.3    66  LEU66       0.0019
     21  CD1       26.6910   27.5600    6.8720 C.3    66  LEU66       0.0001
     22  CD2       25.1860   28.9580    8.2680 C.3    66  LEU66       0.0001
     23  N         27.7640   24.5270    8.1960 N.am   67  ILE67      -0.1966
     24  CA        28.3980   23.6820    7.1980 C.3    67  ILE67       0.1727
     25  C         27.6900   23.8850    5.8810 C.2    67  ILE67       0.2616
     26  O         26.4620   23.8130    5.8090 O.2    67  ILE67      -0.2715
     27  CB        28.3330   22.2060    7.6020 C.3    67  ILE67       0.0290
     28  CG1       28.9760   22.0370    8.9860 C.3    67  ILE67       0.0022
     29  CG2       29.0190   21.3240    6.5400 C.3    67  ILE67       0.0023
     30  CD1       29.0340   20.6020    9.4640 C.3    67  ILE67       0.0001
     31  N         28.4560   24.1800    4.8420 N.am   68  GLU68      -0.1963
     32  CA        27.8520   24.4150    3.5320 C.3    68  GLU68       0.1733
     33  C         27.2750   23.1050    2.9780 C.2    68  GLU68       0.2617
     34  O         27.9350   22.0620    2.9650 O.2    68  GLU68      -0.2715
     35  CB        28.8660   25.0790    2.5850 C.3    68  GLU68       0.0429
     36  CG        28.2440   25.6490    1.3240 C.3    68  GLU68       0.1163
     37  CD        27.9310   24.5730    0.3160 C.2    68  GLU68       0.3649
     38  OE1       28.8240   23.7110    0.0950 O.co2  68  GLU68      -0.2457
     39  OE2       26.8090   24.5650   -0.2450 O.co2  68  GLU68      -0.2457
     40  N         26.0190   23.1570    2.5500 N.am   69  SER69      -0.1936
     41  CA        25.2800   21.9420    2.2070 C.3    69  SER69       0.2055
     42  C         25.8760   21.0880    1.0770 C.2    69  SER69       0.2642
     43  O         25.9400   19.8580    1.1880 O.2    69  SER69      -0.2714
     44  CB        23.8220   22.3100    1.9000 C.3    69  SER69       0.2130
     45  OG        23.0780   21.1520    1.6100 O.3    69  SER69      -0.2179
     46  N         26.3200   21.7230   -0.0030 N.am   70  LYS70      -0.1977
     47  CA        26.8650   20.9540   -1.1140 C.3    70  LYS70       0.1596
     48  C         28.1170   20.2180   -0.6490 C.2    70  LYS70       0.2287
     49  O         28.3350   19.0480   -1.0000 O.2    70  LYS70      -0.2864
     50  CB        27.1950   21.8490   -2.3040 C.3    70  LYS70       0.0298
     51  CG        27.7570   21.0650   -3.4830 C.3    70  LYS70       0.0038
     52  CD        28.1090   21.9890   -4.6420 C.3    70  LYS70       0.0206
     53  CE        28.7210   21.2060   -5.8000 C.3    70  LYS70       0.1093
     54  NZ        27.8770   20.0430   -6.1990 N.3    70  LYS70      -0.1314
     55  N         18.6270   29.7550   -3.1670 N.3   167  CYS167     -0.1221
     56  CA        19.8620   29.2530   -2.5890 C.3   167  CYS167      0.1808
     57  C         20.9340   30.3170   -2.7990 C.2   167  CYS167      0.2601
     58  O         21.2740   30.6360   -3.9370 O.2   167  CYS167     -0.2717
     59  CB        20.1870   27.9070   -3.2360 C.3   167  CYS167      0.0970
     60  SG        21.2990   26.7980   -2.3330 S.3   167  CYS167     -0.0800
     61  N         21.4520   30.8640   -1.7030 N.am  168  LEU168     -0.1965
     62  CA        22.4130   31.9550   -1.7690 C.3   168  LEU168      0.1728
     63  C         23.4960   31.6530   -2.8020 C.2   168  LEU168      0.2616
     64  O         23.9030   32.5310   -3.5650 O.2   168  LEU168     -0.2715
     65  CB        23.0360   32.1740   -0.3890 C.3   168  LEU168      0.0311
     66  CG        23.8350   33.4460   -0.1150 C.3   168  LEU168      0.0022
     67  CD1       22.9940   34.6770   -0.3900 C.3   168  LEU168      0.0001
     68  CD2       24.3330   33.4470    1.3240 C.3   168  LEU168      0.0001
     69  N         23.9630   30.4090   -2.8150 N.am  169  ILE169     -0.1963
     70  CA        24.9750   29.9780   -3.7720 C.3   169  ILE169      0.1727
     71  C         24.4520   29.6940   -5.1860 C.2   169  ILE169      0.2616
     72  O         24.9850   30.2150   -6.1670 O.2   169  ILE169     -0.2715
     73  CB        25.7190   28.7260   -3.2570 C.3   169  ILE169      0.0290
     74  CG1       26.7500   29.1200   -2.1980 C.3   169  ILE169      0.0022
     75  CG2       26.3940   27.9900   -4.4060 C.3   169  ILE169      0.0023
     76  CD1       27.4210   27.9430   -1.5280 C.3   169  ILE169      0.0001
     77  N         23.4130   28.8700   -5.2840 N.am  170  THR170     -0.1951
     78  CA        23.0060   28.3000   -6.5710 C.3   170  THR170      0.1897
     79  C         21.8410   28.9900   -7.2880 C.2   170  THR170      0.2313
     80  O         21.4910   28.6050   -8.4030 O.2   170  THR170     -0.2863
     81  CB        22.6620   26.8020   -6.4130 C.3   170  THR170      0.1794
     82  OG1       23.5960   26.1880   -5.5170 O.3   170  THR170     -0.2208
     83  CG2       22.7060   26.0910   -7.7610 C.3   170  THR170      0.0378
     84  N         14.5340   27.3530   -2.9280 N.3   174  ASP174     -0.1239
     85  CA        14.4590   26.6260   -1.6650 C.3   174  ASP174      0.1674
     86  C         13.0310   26.6920   -1.1430 C.2   174  ASP174      0.2266
     87  O         12.3960   27.7330   -1.2170 O.2   174  ASP174     -0.2867
     88  CB        15.4060   27.2390   -0.6290 C.3   174  ASP174      0.1410
     89  CG        16.8800   27.1160   -1.0250 C.2   174  ASP174      0.3668
     90  OD1       17.2560   26.0950   -1.6390 O.co2 174  ASP174     -0.2456
     91  OD2       17.6390   28.0410   -0.7050 O.co2 174  ASP174     -0.2456
     92  N         20.9470   31.6650    2.9530 N.3   204  PHE204     -0.1227
     93  CA        20.9190   30.2800    3.4400 C.3   204  PHE204      0.1736
     94  C         19.7190   30.0900    4.3620 C.2   204  PHE204      0.2595
     95  O         19.2010   31.0580    4.9310 O.2   204  PHE204     -0.2718
     96  CB        22.1910   29.9450    4.2270 C.3   204  PHE204      0.0547
     97  CG        23.3960   29.6360    3.3780 C.ar  204  PHE204     -0.0202
     98  CD1       23.3510   29.7210    1.9960 C.ar  204  PHE204     -0.0042
     99  CD2       24.5780   29.2320    3.9800 C.ar  204  PHE204     -0.0042
    100  CE1       24.4760   29.4230    1.2330 C.ar  204  PHE204     -0.0003
    101  CE2       25.7040   28.9290    3.2210 C.ar  204  PHE204     -0.0003
    102  CZ        25.6480   29.0280    1.8480 C.ar  204  PHE204     -0.0000
    103  N         19.2660   28.8480    4.5010 N.am  205  HIS205     -0.1961
    104  CA        18.1380   28.5440    5.3810 C.3   205  HIS205      0.1787
    105  C         18.3600   29.0950    6.7900 C.2   205  HIS205      0.2620
    106  O         17.4670   29.7040    7.3820 O.2   205  HIS205     -0.2715
    107  CB        17.9400   27.0340    5.4570 C.3   205  HIS205      0.0785
    108  CG        17.7320   26.3960    4.1260 C.ar  205  HIS205      0.0821
    109  ND1       17.7750   25.0300    3.9320 N.ar  205  HIS205     -0.2267
    110  CD2       17.4940   26.9420    2.9100 C.ar  205  HIS205      0.1154
    111  CE1       17.5630   24.7640    2.6580 C.ar  205  HIS205      0.1986
    112  NE2       17.3950   25.9050    2.0140 N.ar  205  HIS205     -0.2212
    113  N         19.5570   28.8600    7.3230 N.am  206  GLU206     -0.1977
    114  CA        19.8860   29.2710    8.6820 C.3   206  GLU206      0.1602
    115  C         19.7730   30.7880    8.8150 C.2   206  GLU206      0.2287
    116  O         19.2890   31.3240    9.8240 O.2   206  GLU206     -0.2864
    117  CB        21.3180   28.8390    9.0140 C.3   206  GLU206      0.0415
    118  CG        21.5520   27.3130    8.9930 C.3   206  GLU206      0.1163
    119  CD        21.9920   26.7620    7.6290 C.2   206  GLU206      0.3649
    120  OE1       21.5560   27.2750    6.5770 O.co2 206  GLU206     -0.2457
    121  OE2       22.7810   25.8010    7.6280 O.co2 206  GLU206     -0.2457
    122  N         18.1460   19.4080   -0.2490 N.3   233  LEU233     -0.1245
    123  CA        18.9400   19.7110   -1.4220 C.3   233  LEU233      0.1561
    124  C         20.0180   18.6460   -1.4920 C.2   233  LEU233      0.2260
    125  O         20.8160   18.5070   -0.5640 O.2   233  LEU233     -0.2867
    126  CB        19.5940   21.0820   -1.2750 C.3   233  LEU233      0.0270
    127  CG        20.6720   21.4230   -2.3010 C.3   233  LEU233      0.0019
    128  CD1       20.0490   21.6000   -3.6760 C.3   233  LEU233      0.0001
    129  CD2       21.4290   22.6750   -1.8800 C.3   233  LEU233      0.0001
    130  N         17.8290   20.9020    6.0030 N.3   238  ILE238     -0.1245
    131  CA        18.2140   21.7300    7.1430 C.3   238  ILE238      0.1561
    132  C         16.9680   22.3260    7.7710 C.2   238  ILE238      0.2260
    133  O         16.0620   22.8020    7.0680 O.2   238  ILE238     -0.2867
    134  CB        19.1430   22.8970    6.7470 C.3   238  ILE238      0.0252
    135  CG1       20.1960   22.4590    5.7360 C.3   238  ILE238      0.0019
    136  CG2       19.8740   23.4150    7.9800 C.3   238  ILE238      0.0019
    137  CD1       20.9810   23.6320    5.1460 C.3   238  ILE238      0.0001
@<TRIPOS>BOND
     1    80    79    2
     2    83    81    1
     3    79    78    1
     4    78    81    1
     5    78    77    1
     6    81    82    1
     7    54    53    1
     8    72    71    2
     9    53    52    1
    10    77    71   am
    11    71    70    1
    12    52    51    1
    13    75    73    1
    14    58    57    2
    15    70    73    1
    16    70    69    1
    17   128   127    1
    18    64    63    2
    19    51    50    1
    20    73    74    1
    21    59    56    1
    22    59    60    1
    23    55    56    1
    24    84    85    1
    25    69    63   am
    26    63    62    1
    27    57    56    1
    28    57    61   am
    29    50    47    1
    30   127   129    1
    31   127   126    1
    32    74    76    1
    33    62    61    1
    34    62    65    1
    35    85    86    1
    36    85    88    1
    37    90    89   ar
    38   124   123    1
    39   124   125    2
    40   123   126    1
    41   123   122    1
    42    87    86    2
    43    47    48    1
    44    47    46    1
    45    89    91   ar
    46    89    88    1
    47    49    48    2
    48    67    66    1
    49    65    66    1
    50    39    37   ar
    51    66    68    1
    52    46    42   am
    53    38    37   ar
    54    37    36    1
    55    42    43    2
    56    42    41    1
    57   100   102   ar
    58   100    98   ar
    59    36    35    1
    60    45    44    1
    61   102   101   ar
    62    44    41    1
    63    98    97   ar
    64   112   111   ar
    65   112   110   ar
    66    41    40    1
    67    40    33   am
    68    35    32    1
    69   111   109   ar
    70   110   108   ar
    71    92    93    1
    72    34    33    2
    73    33    32    1
    74   101    99   ar
    75    97    99   ar
    76    97    96    1
    77    93    96    1
    78    93    94    1
    79    32    31    1
    80   109   108   ar
    81   108   107    1
    82    94   103   am
    83    94    95    2
    84   103   104    1
    85    31    25   am
    86   137   135    1
    87   104   107    1
    88   104   105    1
    89    13    14   ar
    90    13    11   ar
    91   135   134    1
    92    14    12   ar
    93    26    25    2
    94    25    24    1
    95   130   131    1
    96    11     8   ar
    97    29    27    1
    98   120   119   ar
    99   134   131    1
   100   134   136    1
   101   105   113   am
   102   105   106    2
   103    21    20    1
   104    12    10   ar
   105   133   132    2
   106   131   132    1
   107    24    27    1
   108    24    23    1
   109   113   114    1
   110    27    28    1
   111   121   119   ar
   112   119   118    1
   113     8    10   ar
   114     8     6   ar
   115    10     9   ar
   116    23    17   am
   117    20    22    1
   118    20    19    1
   119    18    17    2
   120   114   115    1
   121   114   117    1
   122    17    16    1
   123   115   116    2
   124     6     5    1
   125     6     7   ar
   126    28    30    1
   127   118   117    1
   128     5     2    1
   129    19    16    1
   130     9     7   ar
   131     3     2    1
   132     3     4    2
   133     2     1    1
   134    16    15    1
