@<TRIPOS>MOLECULE
tmp/3s1cA01.pdb
 122 116 0 0 0
SMALL
GASTEIGER

@<TRIPOS>ATOM
      1  N        -36.2950    5.6710   -8.9390 N.3   137  ASP137     -0.1239
      2  CA       -36.5230    7.1040   -8.6990 C.3   137  ASP137      0.1674
      3  C        -35.2310    7.9110   -8.6080 C.2   137  ASP137      0.2266
      4  O        -35.1980    9.0570   -9.0480 O.2   137  ASP137     -0.2867
      5  CB       -37.3680    7.3080   -7.4160 C.3   137  ASP137      0.1410
      6  CG       -38.7370    6.6510   -7.4890 C.2   137  ASP137      0.3668
      7  OD1      -39.2780    6.5370   -8.6110 O.co2 137  ASP137     -0.2456
      8  OD2      -39.2830    6.2940   -6.4200 O.co2 137  ASP137     -0.2456
      9  N        -45.0870   16.3320  -17.5900 N.3   219  TRP219     -0.1241
     10  CA       -45.1480   15.9150  -16.1980 C.3   219  TRP219      0.1605
     11  C        -46.3340   16.5500  -15.4660 C.2   219  TRP219      0.2264
     12  O        -46.4300   17.7760  -15.3730 O.2   219  TRP219     -0.2867
     13  CB       -43.8140   16.3630  -15.6250 C.3   219  TRP219      0.0550
     14  CG       -43.4100   15.9150  -14.2640 C.ar  219  TRP219      0.0003
     15  CD1      -44.0610   15.0590  -13.4260 C.ar  219  TRP219      0.0946
     16  CD2      -42.2150   16.3160  -13.5890 C.ar  219  TRP219      0.0152
     17  NE1      -43.3470   14.9140  -12.2590 N.ar  219  TRP219     -0.2442
     18  CE2      -42.2090   15.6800  -12.3330 C.ar  219  TRP219      0.0810
     19  CE3      -41.1270   17.1420  -13.9420 C.ar  219  TRP219      0.0012
     20  CZ2      -41.1480   15.8210  -11.4310 C.ar  219  TRP219      0.0191
     21  CZ3      -40.0690   17.2680  -13.0530 C.ar  219  TRP219      0.0001
     22  CH2      -40.0930   16.6260  -11.8080 C.ar  219  TRP219      0.0015
     23  N        -49.3570   16.5050  -12.1290 N.3   221  ARG221     -0.1245
     24  CA       -49.7940   16.1780  -10.7850 C.3   221  ARG221      0.1563
     25  C        -51.2910   16.4340  -10.6890 C.2   221  ARG221      0.2260
     26  O        -51.7460   17.5050  -11.0670 O.2   221  ARG221     -0.2867
     27  CB       -49.0280   16.9260   -9.7050 C.3   221  ARG221      0.0307
     28  CG       -47.7230   16.2380   -9.3630 C.3   221  ARG221      0.0489
     29  CD       -47.2500   16.6680   -7.9970 C.3   221  ARG221      0.2205
     30  NE       -46.0770   15.9140   -7.5650 N.pl3 221  ARG221     -0.0865
     31  CZ       -46.1190   14.7670   -6.8950 C.cat 221  ARG221      0.5346
     32  NH1      -44.9950   14.1600   -6.5380 N.pl3 221  ARG221      0.1354
     33  NH2      -47.2880   14.2170   -6.5750 N.pl3 221  ARG221      0.1354
     34  N        -45.1780    6.9650  -17.2440 N.3   250  TYR250     -0.1241
     35  CA       -44.8590    6.8930  -15.8180 C.3   250  TYR250      0.1605
     36  C        -46.0910    7.2200  -15.0130 C.2   250  TYR250      0.2264
     37  O        -46.7830    8.1880  -15.3250 O.2   250  TYR250     -0.2867
     38  CB       -43.7560    7.9280  -15.5260 C.3   250  TYR250      0.0534
     39  CG       -43.3950    8.2060  -14.0860 C.ar  250  TYR250     -0.0201
     40  CD1      -42.1710    7.7890  -13.5660 C.ar  250  TYR250     -0.0009
     41  CD2      -44.1760    9.0610  -13.3030 C.ar  250  TYR250     -0.0009
     42  CE1      -41.7780    8.1310  -12.2750 C.ar  250  TYR250      0.0417
     43  CE2      -43.7840    9.4270  -12.0170 C.ar  250  TYR250      0.0417
     44  CZ       -42.5840    8.9540  -11.5050 C.ar  250  TYR250      0.1957
     45  OH       -42.1750    9.3090  -10.2480 O.3   250  TYR250     -0.2866
     46  N        -46.8930    7.3550  -10.6950 N.3   252  GLU252     -0.1245
     47  CA       -46.5710    7.2370   -9.2830 C.3   252  GLU252      0.1567
     48  C        -47.6540    7.9900   -8.5090 C.2   252  GLU252      0.2260
     49  O        -48.6450    8.4510   -9.0900 O.2   252  GLU252     -0.2867
     50  CB       -45.1480    7.7490   -8.9610 C.3   252  GLU252      0.0388
     51  CG       -44.1010    6.7030   -9.2980 C.3   252  GLU252      0.1160
     52  CD       -42.7640    6.8250   -8.6030 C.2   252  GLU252      0.3649
     53  OE1      -41.8440    6.0710   -8.9890 O.co2 252  GLU252     -0.2457
     54  OE2      -42.6450    7.6190   -7.6420 O.co2 252  GLU252     -0.2457
     55  N        -42.2120   19.3830   -2.4700 N.3   268  THR268     -0.1203
     56  CA       -42.2140   18.5080   -3.6520 C.3   268  THR268      0.1994
     57  C        -41.2720   19.0430   -4.7320 C.2   268  THR268      0.2618
     58  O        -40.6350   18.2650   -5.4160 O.2   268  THR268     -0.2717
     59  CB       -43.6260   18.3260   -4.2490 C.3   268  THR268      0.1784
     60  OG1      -44.1850   19.6000   -4.5780 O.3   268  THR268     -0.2211
     61  CG2      -44.5610   17.5170   -3.3430 C.3   268  THR268      0.0376
     62  N        -41.1890   20.3630   -4.8570 N.am  269  GLY269     -0.1942
     63  CA       -40.4060   21.0270   -5.8920 C.3   269  GLY269      0.2014
     64  C        -41.2380   21.2360   -7.1480 C.2   269  GLY269      0.2638
     65  O        -40.7880   21.8980   -8.0790 O.2   269  GLY269     -0.2714
     66  N        -42.4770   20.6800   -7.1630 N.am  270  PHE270     -0.1973
     67  CA       -43.4370   20.6980   -8.2670 C.3   270  PHE270      0.1639
     68  C        -44.4120   21.8790   -8.1840 C.2   270  PHE270      0.2290
     69  O        -44.6100   22.5760   -9.1810 O.2   270  PHE270     -0.2864
     70  CB       -44.2230   19.3700   -8.3010 C.3   270  PHE270      0.0560
     71  CG       -44.9200   19.0970   -9.6180 C.ar  270  PHE270     -0.0200
     72  CD1      -44.2830   18.3800  -10.6270 C.ar  270  PHE270     -0.0042
     73  CD2      -46.2010   19.5860   -9.8640 C.ar  270  PHE270     -0.0042
     74  CE1      -44.9180   18.1540  -11.8510 C.ar  270  PHE270     -0.0003
     75  CE2      -46.8170   19.3900  -11.1030 C.ar  270  PHE270     -0.0003
     76  CZ       -46.1790   18.6590  -12.0800 C.ar  270  PHE270     -0.0000
     77  N        -48.9110   11.3490   -9.7880 N.3   295  GLU295     -0.1245
     78  CA       -47.7920   11.9510  -10.5040 C.3   295  GLU295      0.1567
     79  C        -47.6240   11.1210  -11.7600 C.2   295  GLU295      0.2260
     80  O        -47.3870    9.9240  -11.6620 O.2   295  GLU295     -0.2867
     81  CB       -46.5020   11.9690   -9.6560 C.3   295  GLU295      0.0388
     82  CG       -45.3480   12.6650  -10.3630 C.3   295  GLU295      0.1160
     83  CD       -43.9610   12.4620   -9.7850 C.2   295  GLU295      0.3649
     84  OE1      -43.6870   11.3890   -9.2060 O.co2 295  GLU295     -0.2457
     85  OE2      -43.1190   13.3580   -9.9850 O.co2 295  GLU295     -0.2457
     86  N        -46.0270   20.5420  -15.8180 N.3   331  ARG331     -0.1245
     87  CA       -44.6440   20.9680  -16.0080 C.3   331  ARG331      0.1563
     88  C        -44.1740   20.2720  -17.2920 C.2   331  ARG331      0.2260
     89  O        -44.7310   19.2410  -17.6800 O.2   331  ARG331     -0.2867
     90  CB       -43.7440   20.6000  -14.8070 C.3   331  ARG331      0.0307
     91  CG       -43.9960   21.4770  -13.5790 C.3   331  ARG331      0.0489
     92  CD       -42.7180   21.8450  -12.8530 C.3   331  ARG331      0.2205
     93  NE       -42.2260   20.7790  -11.9750 N.pl3 331  ARG331     -0.0865
     94  CZ       -40.9780   20.6970  -11.5170 C.cat 331  ARG331      0.5346
     95  NH1      -40.0700   21.5960  -11.8770 N.pl3 331  ARG331      0.1354
     96  NH2      -40.6250   19.7070  -10.7080 N.pl3 331  ARG331      0.1354
     97  N        -34.3990   13.9360  -11.3710 N.3   341  ARG341     -0.1231
     98  CA       -35.1150   14.8760  -10.4890 C.3   341  ARG341      0.1694
     99  C        -34.7410   14.7150   -8.9860 C.2   341  ARG341      0.2591
    100  O        -34.6440   15.7140   -8.2700 O.2   341  ARG341     -0.2718
    101  CB       -36.6550   14.7790  -10.7000 C.3   341  ARG341      0.0321
    102  CG       -37.2890   13.4790  -10.1390 C.3   341  ARG341      0.0489
    103  CD       -38.6080   13.0980  -10.7850 C.3   341  ARG341      0.2205
    104  NE       -39.0640   11.7860  -10.3050 N.pl3 341  ARG341     -0.0865
    105  CZ       -38.6960   10.6090  -10.8080 C.cat 341  ARG341      0.5346
    106  NH1      -37.8740   10.5470  -11.8490 N.pl3 341  ARG341      0.1354
    107  NH2      -39.1590    9.4870  -10.2840 N.pl3 341  ARG341      0.1354
    108  N        -34.5230   13.4740   -8.5260 N.am  342  VAL342     -0.1980
    109  CA       -34.2130   13.1840   -7.1250 C.3   342  VAL342      0.1595
    110  C        -32.8040   13.6820   -6.7220 C.2   342  VAL342      0.2287
    111  O        -32.6150   14.0600   -5.5610 O.2   342  VAL342     -0.2864
    112  CB       -34.5660   11.7190   -6.6970 C.3   342  VAL342      0.0276
    113  CG1      -34.1940   11.4280   -5.2370 C.3   342  VAL342      0.0022
    114  CG2      -36.0530   11.4350   -6.9180 C.3   342  VAL342      0.0022
    115  N        -44.8290    7.3750   -0.7260 N.3   393  ILE393     -0.1245
    116  CA       -45.0950    7.0050   -2.1230 C.3   393  ILE393      0.1561
    117  C        -45.9770    5.7380   -2.2370 C.2   393  ILE393      0.2260
    118  O        -45.6920    4.7090   -1.6100 O.2   393  ILE393     -0.2867
    119  CB       -43.7580    6.8720   -2.9120 C.3   393  ILE393      0.0252
    120  CG1      -42.8740    8.1390   -2.7620 C.3   393  ILE393      0.0019
    121  CG2      -44.0020    6.5420   -4.3800 C.3   393  ILE393      0.0019
    122  CD1      -41.3590    7.9750   -3.0810 C.3   393  ILE393      0.0001
@<TRIPOS>BOND
     1    89    88    2
     2     9    10    1
     3    88    87    1
     4    34    35    1
     5    10    13    1
     6    10    11    1
     7    87    86    1
     8    87    90    1
     9    35    38    1
    10    35    36    1
    11    13    14    1
    12    38    39    1
    13    11    12    2
    14    37    36    2
    15    90    91    1
    16    14    16   ar
    17    14    15   ar
    18    39    40   ar
    19    39    41   ar
    20    19    16   ar
    21    19    21   ar
    22    16    18   ar
    23    91    92    1
    24    40    42   ar
    25    15    17   ar
    26    41    43   ar
    27    21    22   ar
    28    92    93    1
    29    18    17   ar
    30    18    20   ar
    31    42    44   ar
    32    23    24    1
    33    76    74   ar
    34    76    75   ar
    35    43    44   ar
    36    93    94    2
    37    95    94    1
    38    74    72   ar
    39   106   105    1
    40    22    20   ar
    41    79    80    2
    42    79    78    1
    43    94    96    1
    44    44    45    1
    45    97    98    1
    46    75    73   ar
    47    26    25    2
    48   105   104    2
    49   105   107    1
    50    24    25    1
    51    24    27    1
    52   103   104    1
    53   103   102    1
    54   101    98    1
    55   101   102    1
    56    46    47    1
    57    72    71   ar
    58    78    77    1
    59    78    81    1
    60    98    99    1
    61    82    83    1
    62    82    81    1
    63    85    83   ar
    64    73    71   ar
    65    83    84   ar
    66    27    28    1
    67    71    70    1
    68    28    29    1
    69    51    50    1
    70    51    52    1
    71    47    50    1
    72    47    48    1
    73    69    68    2
    74    49    48    2
    75     4     3    2
    76    53    52   ar
    77    99   108   am
    78    99   100    2
    79     1     2    1
    80     2     3    1
    81     2     5    1
    82     7     6   ar
    83    52    54   ar
    84   108   109    1
    85    70    67    1
    86    67    68    1
    87    67    66    1
    88    65    64    2
    89    29    30    1
    90    30    31    2
    91     6     5    1
    92     6     8   ar
    93    66    64   am
    94    64    63    1
    95   109   110    1
    96   109   112    1
    97   114   112    1
    98    31    33    1
    99    31    32    1
   100   110   111    2
   101   112   113    1
   102    63    62    1
   103    58    57    2
   104    62    57   am
   105    57    56    1
   106    60    59    1
   107   121   119    1
   108    59    56    1
   109    59    61    1
   110    56    55    1
   111   122   120    1
   112   119   120    1
   113   119   116    1
   114   117   116    1
   115   117   118    2
   116   116   115    1
