@<TRIPOS>MOLECULE
tmp/3s1cA06.pdb
 88 84 0 0 0
SMALL
GASTEIGER

@<TRIPOS>ATOM
      1  N         -1.8300  -18.5970    1.3840 N.3     2  TRP2       -0.1241
      2  CA        -2.5270  -17.7950    0.3760 C.3     2  TRP2        0.1605
      3  C         -2.1850  -18.2350   -1.0470 C.2     2  TRP2        0.2264
      4  O         -1.0000  -18.3760   -1.3550 O.2     2  TRP2       -0.2867
      5  CB        -2.1440  -16.3090    0.5040 C.3     2  TRP2        0.0550
      6  CG        -2.7470  -15.5510    1.6500 C.ar    2  TRP2        0.0003
      7  CD1       -2.8230  -15.9500    2.9520 C.ar    2  TRP2        0.0946
      8  CD2       -3.1900  -14.1870    1.6210 C.ar    2  TRP2        0.0152
      9  NE1       -3.3570  -14.9440    3.7230 N.ar    2  TRP2       -0.2442
     10  CE2       -3.5810  -13.8450    2.9330 C.ar    2  TRP2        0.0810
     11  CE3       -3.2950  -13.2160    0.6090 C.ar    2  TRP2        0.0012
     12  CZ2       -4.1010  -12.5860    3.2550 C.ar    2  TRP2        0.0191
     13  CZ3       -3.8140  -11.9700    0.9270 C.ar    2  TRP2        0.0001
     14  CH2       -4.1990  -11.6600    2.2360 C.ar    2  TRP2        0.0015
     15  N         -4.2220  -14.4420   -4.9970 N.3     6  LEU6       -0.1245
     16  CA        -4.7840  -13.7130   -3.8560 C.3     6  LEU6        0.1561
     17  C         -3.7180  -12.8370   -3.1930 C.2     6  LEU6        0.2260
     18  O         -4.0300  -11.7330   -2.7580 O.2     6  LEU6       -0.2867
     19  CB        -5.4140  -14.6860   -2.8340 C.3     6  LEU6        0.0270
     20  CG        -6.1550  -14.0730   -1.6400 C.3     6  LEU6        0.0019
     21  CD1       -7.5220  -13.5530   -2.0470 C.3     6  LEU6        0.0001
     22  CD2       -6.3120  -15.0830   -0.5300 C.3     6  LEU6        0.0001
     23  N         -5.8720   -5.1860   -1.9600 N.3    15  LEU15      -0.1245
     24  CA        -6.4590   -5.7030   -0.7310 C.3    15  LEU15       0.1561
     25  C         -5.9360   -4.8640    0.4310 C.2    15  LEU15       0.2260
     26  O         -4.7510   -4.9220    0.7630 O.2    15  LEU15      -0.2867
     27  CB        -6.1470   -7.2080   -0.5830 C.3    15  LEU15       0.0270
     28  CG        -7.0930   -8.0510    0.2770 C.3    15  LEU15       0.0019
     29  CD1       -8.5330   -8.0520   -0.2710 C.3    15  LEU15       0.0001
     30  CD2       -6.5900   -9.4840    0.3740 C.3    15  LEU15       0.0001
     31  N         -6.3450   -3.2530    4.4400 N.3    17  THR17      -0.1218
     32  CA        -6.7280   -3.5670    5.8180 C.3    17  THR17       0.1862
     33  C         -6.6930   -2.3360    6.7180 C.2    17  THR17       0.2287
     34  O         -7.0420   -2.4280    7.9000 O.2    17  THR17      -0.2866
     35  CB        -5.8700   -4.7220    6.3530 C.3    17  THR17       0.1770
     36  OG1       -4.4860   -4.4130    6.1550 O.3    17  THR17      -0.2211
     37  CG2       -6.2200   -6.0570    5.7050 C.3    17  THR17       0.0375
     38  N        -12.8660   -7.0530    7.6450 N.3    38  ALA38      -0.1231
     39  CA       -11.4560   -7.3440    7.9310 C.3    38  ALA38       0.1694
     40  C        -10.5830   -6.6630    6.8680 C.2    38  ALA38       0.2591
     41  O         -9.5100   -6.1340    7.1830 O.2    38  ALA38      -0.2718
     42  CB       -11.2140   -8.8470    7.9060 C.3    38  ALA38       0.0304
     43  N        -11.0590   -6.6850    5.6010 N.am   39  ALA39      -0.1980
     44  CA       -10.3800   -6.0930    4.4500 C.3    39  ALA39       0.1597
     45  C        -11.3640   -5.5820    3.3900 C.2    39  ALA39       0.2287
     46  O        -12.5530   -5.9310    3.4180 O.2    39  ALA39      -0.2864
     47  CB        -9.4250   -7.1060    3.8300 C.3    39  ALA39       0.0319
     48  N        -10.2020  -13.7310   -5.9000 N.3    52  LEU52      -0.1245
     49  CA       -10.7100  -13.7240   -4.5240 C.3    52  LEU52       0.1561
     50  C        -11.7210  -14.8450   -4.2950 C.2    52  LEU52       0.2260
     51  O        -11.6460  -15.5420   -3.2780 O.2    52  LEU52      -0.2867
     52  CB       -11.3160  -12.3370   -4.1670 C.3    52  LEU52       0.0270
     53  CG       -12.1790  -12.2300   -2.8840 C.3    52  LEU52       0.0019
     54  CD1      -11.3320  -12.3810   -1.6100 C.3    52  LEU52       0.0001
     55  CD2      -12.9560  -10.9210   -2.8500 C.3    52  LEU52       0.0001
     56  N        -12.0220  -21.4380    4.7960 N.3    62  TRP62      -0.1241
     57  CA       -11.9760  -20.0030    4.4450 C.3    62  TRP62       0.1605
     58  C        -13.0310  -19.3050    5.3340 C.2    62  TRP62       0.2264
     59  O        -14.2190  -19.6360    5.2440 O.2    62  TRP62      -0.2867
     60  CB       -12.2670  -19.7770    2.9350 C.3    62  TRP62       0.0550
     61  CG       -12.4160  -18.3330    2.5350 C.ar   62  TRP62       0.0003
     62  CD1      -13.5520  -17.5790    2.6030 C.ar   62  TRP62       0.0946
     63  CD2      -11.3900  -17.4650    2.0280 C.ar   62  TRP62       0.0152
     64  NE1      -13.3030  -16.3040    2.1560 N.ar   62  TRP62      -0.2442
     65  CE2      -11.9860  -16.2050    1.7930 C.ar   62  TRP62       0.0810
     66  CE3      -10.0340  -17.6430    1.6980 C.ar   62  TRP62       0.0012
     67  CZ2      -11.2640  -15.1160    1.2860 C.ar   62  TRP62       0.0191
     68  CZ3       -9.3240  -16.5660    1.1870 C.ar   62  TRP62       0.0001
     69  CH2       -9.9360  -15.3190    0.9880 C.ar   62  TRP62       0.0015
     70  N        -13.7680  -15.9500    5.6750 N.3    64  TYR64      -0.1241
     71  CA       -14.1380  -14.6010    5.2520 C.3    64  TYR64       0.1605
     72  C        -15.3640  -14.5370    4.3450 C.2    64  TYR64       0.2264
     73  O        -15.3170  -14.9790    3.1970 O.2    64  TYR64      -0.2867
     74  CB       -12.9330  -13.8840    4.6000 C.3    64  TYR64       0.0534
     75  CG       -11.6830  -13.8790    5.4560 C.ar   64  TYR64      -0.0201
     76  CD1      -11.5880  -13.0630    6.5800 C.ar   64  TYR64      -0.0009
     77  CD2      -10.5900  -14.6770    5.1330 C.ar   64  TYR64      -0.0009
     78  CE1      -10.4460  -13.0620    7.3790 C.ar   64  TYR64       0.0417
     79  CE2       -9.4380  -14.6820    5.9240 C.ar   64  TYR64       0.0417
     80  CZ        -9.3680  -13.8650    7.0430 C.ar   64  TYR64       0.1957
     81  OH        -8.2340  -13.8380    7.8250 O.3    64  TYR64      -0.2866
     82  N        -14.5310   -9.6890    3.7880 N.3    85  VAL85      -0.1245
     83  CA       -14.0260   -8.8850    2.6690 C.3    85  VAL85       0.1561
     84  C        -15.1550   -8.1450    1.9260 C.2    85  VAL85       0.2260
     85  O        -16.0370   -8.7920    1.3630 O.2    85  VAL85      -0.2867
     86  CB       -13.1410   -9.7270    1.6920 C.3    85  VAL85       0.0252
     87  CG1      -12.5980   -8.8660    0.5530 C.3    85  VAL85       0.0019
     88  CG2      -11.9940  -10.4220    2.4280 C.3    85  VAL85       0.0019
@<TRIPOS>BOND
     1    48    49    1
     2    15    16    1
     3    49    50    1
     4    49    52    1
     5    50    51    2
     6    52    53    1
     7    16    17    1
     8    16    19    1
     9    17    18    2
    10    53    55    1
    11    53    54    1
    12    19    20    1
    13    21    20    1
    14    23    24    1
    15    20    22    1
    16     4     3    2
    17     3     2    1
    18    24    27    1
    19    24    25    1
    20    27    28    1
    21    29    28    1
    22    28    30    1
    23     2     5    1
    24     2     1    1
    25    25    26    2
    26     5     6    1
    27    87    86    1
    28    11    13   ar
    29    11     8   ar
    30    13    14   ar
    31    69    68   ar
    32    69    67   ar
    33    68    66   ar
    34    67    65   ar
    35    85    84    2
    36     8     6   ar
    37     8    10   ar
    38     6     7   ar
    39    86    88    1
    40    86    83    1
    41    66    63   ar
    42    65    63   ar
    43    65    64   ar
    44    84    83    1
    45    63    61   ar
    46    64    62   ar
    47    14    12   ar
    48    61    62   ar
    49    61    60    1
    50    83    82    1
    51    10    12   ar
    52    10     9   ar
    53    60    57    1
    54     7     9   ar
    55    73    72    2
    56    45    46    2
    57    45    44    1
    58    47    44    1
    59    72    71    1
    60    31    32    1
    61    57    56    1
    62    57    58    1
    63    44    43    1
    64    74    71    1
    65    74    75    1
    66    77    75   ar
    67    77    79   ar
    68    59    58    2
    69    71    70    1
    70    75    76   ar
    71    43    40   am
    72    37    35    1
    73    32    35    1
    74    32    33    1
    75    79    80   ar
    76    36    35    1
    77    76    78   ar
    78    33    34    2
    79    40    41    2
    80    40    39    1
    81    80    78   ar
    82    80    81    1
    83    38    39    1
    84    42    39    1
