@<TRIPOS>MOLECULE
tmp/3s1dA01.pdb
 210 200 0 0 0
SMALL
GASTEIGER

@<TRIPOS>ATOM
      1  N        -36.2770  -19.5910   -8.9820 N.3   137  ASP137     -0.1225
      2  CA       -36.5470  -18.1490   -8.8300 C.3   137  ASP137      0.1805
      3  C        -35.2760  -17.3100   -8.7270 C.2   137  ASP137      0.2597
      4  O        -35.2840  -16.1490   -9.1210 O.2   137  ASP137     -0.2718
      5  CB       -37.3860  -17.8910   -7.5640 C.3   137  ASP137      0.1424
      6  CG       -38.8060  -18.4300   -7.6090 C.2   137  ASP137      0.3668
      7  OD1      -39.3460  -18.5660   -8.7120 O.co2 137  ASP137     -0.2456
      8  OD2      -39.3990  -18.6270   -6.5240 O.co2 137  ASP137     -0.2456
      9  N        -34.2240  -17.8890   -8.1610 N.am  138  TYR138     -0.1976
     10  CA       -32.9180  -17.2720   -7.9080 C.3   138  TYR138      0.1639
     11  C        -31.8690  -18.0100   -8.7490 C.2   138  TYR138      0.2290
     12  O        -31.7580  -19.2420   -8.6790 O.2   138  TYR138     -0.2864
     13  CB       -32.6510  -17.3660   -6.3910 C.3   138  TYR138      0.0560
     14  CG       -31.2760  -16.9630   -5.9020 C.ar  138  TYR138     -0.0198
     15  CD1      -30.9270  -15.6210   -5.7660 C.ar  138  TYR138     -0.0009
     16  CD2      -30.3650  -17.9190   -5.4710 C.ar  138  TYR138     -0.0009
     17  CE1      -29.6820  -15.2460   -5.2530 C.ar  138  TYR138      0.0417
     18  CE2      -29.1190  -17.5580   -4.9600 C.ar  138  TYR138      0.0417
     19  CZ       -28.7900  -16.2190   -4.8360 C.ar  138  TYR138      0.1957
     20  OH       -27.5460  -15.8800   -4.3520 O.3   138  TYR138     -0.2866
     21  N        -37.4940  -25.7210   -9.1520 N.3   152  ILE152     -0.1245
     22  CA       -38.8530  -25.2280   -9.4410 C.3   152  ILE152      0.1561
     23  C        -38.9710  -23.7210   -9.4960 C.2   152  ILE152      0.2260
     24  O        -38.3010  -23.0130   -8.7490 O.2   152  ILE152     -0.2867
     25  CB       -39.9320  -25.8120   -8.4760 C.3   152  ILE152      0.0252
     26  CG1      -39.6510  -25.3910   -7.0030 C.3   152  ILE152      0.0019
     27  CG2      -40.0440  -27.3540   -8.6280 C.3   152  ILE152      0.0019
     28  CD1      -40.7930  -25.6100   -5.9810 C.3   152  ILE152      0.0001
     29  N        -49.3670   -8.7110  -12.1800 N.3   221  ARG221     -0.1245
     30  CA       -49.8160   -9.0840  -10.8540 C.3   221  ARG221      0.1563
     31  C        -51.3320   -8.8320  -10.7550 C.2   221  ARG221      0.2260
     32  O        -51.8120   -7.7740  -11.1650 O.2   221  ARG221     -0.2867
     33  CB       -49.0060   -8.4370   -9.7250 C.3   221  ARG221      0.0307
     34  CG       -47.7370   -9.2190   -9.3840 C.3   221  ARG221      0.0489
     35  CD       -47.1820   -8.7440   -8.0530 C.3   221  ARG221      0.2205
     36  NE       -46.0020   -9.4950   -7.6240 N.pl3 221  ARG221     -0.0865
     37  CZ       -46.0320  -10.6130   -6.8990 C.cat 221  ARG221      0.5346
     38  NH1      -44.9010  -11.2060   -6.5390 N.pl3 221  ARG221      0.1354
     39  NH2      -47.1940  -11.1560   -6.5440 N.pl3 221  ARG221      0.1354
     40  N        -46.9670  -17.8370  -10.7560 N.3   252  GLU252     -0.1245
     41  CA       -46.6890  -18.0090   -9.3280 C.3   252  GLU252      0.1567
     42  C        -47.7660  -17.2370   -8.5560 C.2   252  GLU252      0.2260
     43  O        -48.7160  -16.7040   -9.1540 O.2   252  GLU252     -0.2867
     44  CB       -45.2610  -17.5620   -8.9290 C.3   252  GLU252      0.0388
     45  CG       -44.1530  -18.5080   -9.3730 C.3   252  GLU252      0.1160
     46  CD       -42.8090  -18.4040   -8.6680 C.2   252  GLU252      0.3649
     47  OE1      -41.8560  -19.0360   -9.1790 O.co2 252  GLU252     -0.2457
     48  OE2      -42.6900  -17.6990   -7.6330 O.co2 252  GLU252     -0.2457
     49  N        -48.5760  -15.1230   -4.3840 N.3   254  SER254     -0.1217
     50  CA       -48.0980  -14.5760   -3.1090 C.3   254  SER254      0.1889
     51  C        -49.2290  -14.4450   -2.1220 C.2   254  SER254      0.2288
     52  O        -50.3660  -14.1580   -2.5140 O.2   254  SER254     -0.2866
     53  CB       -47.5300  -13.1680   -3.3180 C.3   254  SER254      0.2089
     54  OG       -46.5480  -13.0810   -4.3290 O.3   254  SER254     -0.2183
     55  N        -50.2040  -12.3970    1.4240 N.3   256  PHE256     -0.1241
     56  CA       -49.8620  -11.2380    2.2490 C.3   256  PHE256      0.1605
     57  C        -50.7550  -11.2240    3.4900 C.2   256  PHE256      0.2264
     58  O        -51.9690  -11.2280    3.3610 O.2   256  PHE256     -0.2867
     59  CB       -50.0150   -9.9330    1.4460 C.3   256  PHE256      0.0534
     60  CG       -49.1690   -9.8400    0.1980 C.ar  256  PHE256     -0.0203
     61  CD1      -47.8280   -9.4860    0.2730 C.ar  256  PHE256     -0.0042
     62  CD2      -49.7160  -10.0940   -1.0530 C.ar  256  PHE256     -0.0042
     63  CE1      -47.0310   -9.4350   -0.8810 C.ar  256  PHE256     -0.0003
     64  CE2      -48.9280  -10.0270   -2.2070 C.ar  256  PHE256     -0.0003
     65  CZ       -47.5930   -9.6860   -2.1160 C.ar  256  PHE256     -0.0000
     66  N        -42.3010   -4.0690   -0.5020 N.3   267  ASN267     -0.1225
     67  CA       -41.0990   -4.9100   -0.6180 C.3   267  ASN267      0.1785
     68  C        -41.0970   -5.9280   -1.7910 C.2   267  ASN267      0.2597
     69  O        -40.0640   -6.5690   -2.0210 O.2   267  ASN267     -0.2718
     70  CB       -40.7580   -5.5750    0.7310 C.3   267  ASN267      0.1169
     71  CG       -40.3550   -4.5990    1.8230 C.2   267  ASN267      0.2627
     72  OD1      -39.9870   -3.4410    1.5800 O.2   267  ASN267     -0.2716
     73  ND2      -40.4300   -5.0460    3.0620 N.am  267  ASN267     -0.0877
     74  N        -42.2090   -6.0390   -2.5630 N.am  268  THR268     -0.1953
     75  CA       -42.2750   -6.9310   -3.7400 C.3   268  THR268      0.1897
     76  C        -41.3550   -6.4020   -4.8300 C.2   268  THR268      0.2313
     77  O        -40.8900   -7.1650   -5.6760 O.2   268  THR268     -0.2863
     78  CB       -43.7070   -7.0510   -4.3390 C.3   268  THR268      0.1794
     79  OG1      -44.2120   -5.7700   -4.7540 O.3   268  THR268     -0.2208
     80  CG2      -44.6910   -7.7670   -3.4190 C.3   268  THR268      0.0378
     81  N        -48.8840  -13.9360   -9.7910 N.3   295  GLU295     -0.1245
     82  CA       -47.7920  -13.3050  -10.5570 C.3   295  GLU295      0.1567
     83  C        -47.6440  -14.1450  -11.8370 C.2   295  GLU295      0.2260
     84  O        -47.3730  -15.3450  -11.7480 O.2   295  GLU295     -0.2867
     85  CB       -46.5030  -13.3010   -9.7420 C.3   295  GLU295      0.0388
     86  CG       -45.3550  -12.6180  -10.4740 C.3   295  GLU295      0.1160
     87  CD       -43.9830  -12.7940   -9.8590 C.2   295  GLU295      0.3649
     88  OE1      -43.7090  -13.8540   -9.2470 O.co2 295  GLU295     -0.2457
     89  OE2      -43.1690  -11.8560  -10.0010 O.co2 295  GLU295     -0.2457
     90  N        -34.4680  -11.1810  -11.4500 N.3   341  ARG341     -0.1231
     91  CA       -35.2120  -10.3120  -10.5190 C.3   341  ARG341      0.1694
     92  C        -34.8410  -10.4560   -9.0180 C.2   341  ARG341      0.2591
     93  O        -34.8230   -9.4480   -8.3040 O.2   341  ARG341     -0.2718
     94  CB       -36.7470  -10.4370  -10.7320 C.3   341  ARG341      0.0321
     95  CG       -37.3520  -11.7800  -10.2730 C.3   341  ARG341      0.0489
     96  CD       -38.6980  -12.1420  -10.9120 C.3   341  ARG341      0.2205
     97  NE       -39.1320  -13.4780  -10.4730 N.pl3 341  ARG341     -0.0865
     98  CZ       -38.6650  -14.6260  -10.9630 C.cat 341  ARG341      0.5346
     99  NH1      -37.7700  -14.6240  -11.9480 N.pl3 341  ARG341      0.1354
    100  NH2      -39.0910  -15.7830  -10.4780 N.pl3 341  ARG341      0.1354
    101  N        -34.5660  -11.6930   -8.5530 N.am  342  VAL342     -0.1980
    102  CA       -34.2640  -12.0260   -7.1500 C.3   342  VAL342      0.1595
    103  C        -32.8580  -11.5880   -6.7170 C.2   342  VAL342      0.2287
    104  O        -32.6820  -11.2320   -5.5460 O.2   342  VAL342     -0.2864
    105  CB       -34.6480  -13.4900   -6.7590 C.3   342  VAL342      0.0276
    106  CG1      -34.3900  -13.7800   -5.2740 C.3   342  VAL342      0.0022
    107  CG2      -36.1150  -13.7790   -7.0910 C.3   342  VAL342      0.0022
    108  N        -32.8210   -8.4880   -4.6730 N.3   345  SER345     -0.1217
    109  CA       -33.1870   -8.6640   -3.2640 C.3   345  SER345      0.1889
    110  C        -31.9460   -9.0400   -2.4420 C.2   345  SER345      0.2288
    111  O        -31.7300   -8.4360   -1.3920 O.2   345  SER345     -0.2866
    112  CB       -34.2860   -9.7120   -3.1090 C.3   345  SER345      0.2089
    113  OG       -35.4990   -9.2700   -3.7000 O.3   345  SER345     -0.2183
    114  N        -29.1920  -10.6770    4.8330 N.3   355  TRP355     -0.1241
    115  CA       -29.0590  -11.8050    3.9130 C.3   355  TRP355      0.1605
    116  C        -28.3310  -12.9360    4.6170 C.2   355  TRP355      0.2264
    117  O        -28.7930  -14.0730    4.5480 O.2   355  TRP355     -0.2867
    118  CB       -28.3470  -11.4080    2.6030 C.3   355  TRP355      0.0550
    119  CG       -28.2560  -12.5170    1.5900 C.ar  355  TRP355      0.0003
    120  CD1      -27.1730  -13.3040    1.3290 C.ar  355  TRP355      0.0946
    121  CD2      -29.3000  -12.9650    0.7130 C.ar  355  TRP355      0.0152
    122  NE1      -27.4770  -14.2190    0.3460 N.ar  355  TRP355     -0.2442
    123  CE2      -28.7850  -14.0530   -0.0320 C.ar  355  TRP355      0.0810
    124  CE3      -30.6400  -12.5860    0.5180 C.ar  355  TRP355      0.0012
    125  CZ2      -29.5450  -14.7280   -0.9980 C.ar  355  TRP355      0.0191
    126  CZ3      -31.3950  -13.2570   -0.4350 C.ar  355  TRP355      0.0001
    127  CH2      -30.8500  -14.3160   -1.1800 C.ar  355  TRP355      0.0015
    128  N        -36.6380  -21.5320    6.6170 N.3   361  TRP361     -0.1241
    129  CA       -37.6090  -21.6160    5.5280 C.3   361  TRP361      0.1605
    130  C        -38.4580  -22.8750    5.6340 C.2   361  TRP361      0.2264
    131  O        -37.9530  -23.9120    6.0610 O.2   361  TRP361     -0.2867
    132  CB       -36.8280  -21.6250    4.1970 C.3   361  TRP361      0.0550
    133  CG       -36.3200  -20.2770    3.7730 C.ar  361  TRP361      0.0003
    134  CD1      -36.3620  -19.1150    4.4900 C.ar  361  TRP361      0.0946
    135  CD2      -35.7230  -19.9480    2.5120 C.ar  361  TRP361      0.0152
    136  NE1      -35.8580  -18.0780    3.7430 N.ar  361  TRP361     -0.2442
    137  CE2      -35.4810  -18.5530    2.5140 C.ar  361  TRP361      0.0810
    138  CE3      -35.3990  -20.6890    1.3620 C.ar  361  TRP361      0.0012
    139  CZ2      -34.9460  -17.8850    1.4080 C.ar  361  TRP361      0.0191
    140  CZ3      -34.8390  -20.0260    0.2780 C.ar  361  TRP361      0.0001
    141  CH2      -34.6120  -18.6420    0.3120 C.ar  361  TRP361      0.0015
    142  N        -40.6390  -25.2410    3.1220 N.3   363  ASN363     -0.1240
    143  CA       -40.9630  -25.5280    1.7190 C.3   363  ASN363      0.1653
    144  C        -41.6240  -26.8660    1.6230 C.2   363  ASN363      0.2266
    145  O        -41.0980  -27.8470    2.1450 O.2   363  ASN363     -0.2867
    146  CB       -39.7280  -25.5190    0.8320 C.3   363  ASN363      0.1155
    147  CG       -38.9120  -24.2670    0.9660 C.2   363  ASN363      0.2627
    148  OD1      -39.1730  -23.2710    0.3100 O.2   363  ASN363     -0.2716
    149  ND2      -37.9390  -24.2910    1.8550 N.am  363  ASN363     -0.0877
    150  N        -40.9720  -13.3250    1.8260 N.3   391  PRO391     -0.2116
    151  CA       -42.1780  -13.5950    1.0290 C.3   391  PRO391      0.1372
    152  C        -42.8260  -14.9480    1.3310 C.2   391  PRO391      0.2244
    153  O        -42.1420  -15.8890    1.7350 O.2   391  PRO391     -0.2868
    154  CB       -41.6620  -13.5260   -0.4180 C.3   391  PRO391      0.0268
    155  CG       -40.2220  -13.9300   -0.3240 C.3   391  PRO391      0.0207
    156  CD       -39.7330  -13.4850    1.0300 C.3   391  PRO391      0.0892
    157  N        -44.8990  -17.6720   -0.8060 N.3   393  ILE393     -0.1245
    158  CA       -45.1470  -18.0530   -2.2000 C.3   393  ILE393      0.1561
    159  C        -45.9850  -19.3350   -2.2870 C.2   393  ILE393      0.2260
    160  O        -45.6780  -20.3100   -1.6160 O.2   393  ILE393     -0.2867
    161  CB       -43.7760  -18.2020   -2.9220 C.3   393  ILE393      0.0252
    162  CG1      -42.9550  -16.8660   -2.8530 C.3   393  ILE393      0.0019
    163  CG2      -43.9660  -18.6640   -4.3660 C.3   393  ILE393      0.0019
    164  CD1      -41.4860  -17.0470   -3.1670 C.3   393  ILE393      0.0001
    165  N        -48.1480  -21.7160   -5.4120 N.3   395  TYR395     -0.1241
    166  CA       -48.5440  -21.8920   -6.8250 C.3   395  TYR395      0.1605
    167  C        -48.7320  -23.3490   -7.2040 C.2   395  TYR395      0.2264
    168  O        -48.0290  -24.2020   -6.6470 O.2   395  TYR395     -0.2867
    169  CB       -47.6130  -21.1720   -7.8120 C.3   395  TYR395      0.0534
    170  CG       -46.1600  -21.5930   -7.7850 C.ar  395  TYR395     -0.0201
    171  CD1      -45.6930  -22.6190   -8.6060 C.ar  395  TYR395     -0.0009
    172  CD2      -45.2400  -20.9520   -6.9530 C.ar  395  TYR395     -0.0009
    173  CE1      -44.3500  -22.9960   -8.6030 C.ar  395  TYR395      0.0417
    174  CE2      -43.8880  -21.3060   -6.9590 C.ar  395  TYR395      0.0417
    175  CZ       -43.4440  -22.3210   -7.7980 C.ar  395  TYR395      0.1957
    176  OH       -42.1170  -22.6910   -7.8180 O.3   395  TYR395     -0.2866
    177  N        -43.9260  -22.1460   -0.3750 N.3   420  SER420     -0.1217
    178  CA       -42.6230  -21.6880    0.1240 C.3   420  SER420      0.1889
    179  C        -42.7720  -20.4850    1.0660 C.2   420  SER420      0.2288
    180  O        -43.1310  -19.3980    0.6160 O.2   420  SER420     -0.2866
    181  CB       -41.6880  -21.3730   -1.0390 C.3   420  SER420      0.2089
    182  OG       -41.3010  -22.5980   -1.6360 O.3   420  SER420     -0.2183
    183  N        -40.7600  -18.2410    3.1630 N.3   422  LEU422     -0.1245
    184  CA       -39.3580  -17.8100    3.1880 C.3   422  LEU422      0.1561
    185  C        -39.0080  -16.8630    4.3200 C.2   422  LEU422      0.2260
    186  O        -38.6460  -15.6920    4.0960 O.2   422  LEU422     -0.2867
    187  CB       -38.9390  -17.2500    1.8260 C.3   422  LEU422      0.0270
    188  CG       -39.3210  -18.0490    0.5790 C.3   422  LEU422      0.0019
    189  CD1      -38.7440  -17.3710   -0.6380 C.3   422  LEU422      0.0001
    190  CD2      -38.8000  -19.4900    0.6450 C.3   422  LEU422      0.0001
    191  N        -39.8350  -30.1800    0.6600 N.3   455  TYR455     -0.1227
    192  CA       -38.8860  -29.8850   -0.4120 C.3   455  TYR455      0.1736
    193  C        -37.7870  -29.0620    0.2670 C.2   455  TYR455      0.2595
    194  O        -38.0900  -28.2110    1.1050 O.2   455  TYR455     -0.2718
    195  CB       -39.5560  -29.0970   -1.5810 C.3   455  TYR455      0.0548
    196  CG       -38.6320  -28.7250   -2.7380 C.ar  455  TYR455     -0.0200
    197  CD1      -37.9160  -29.7010   -3.4300 C.ar  455  TYR455     -0.0009
    198  CD2      -38.5070  -27.4020   -3.1600 C.ar  455  TYR455     -0.0009
    199  CE1      -37.0520  -29.3640   -4.4760 C.ar  455  TYR455      0.0417
    200  CE2      -37.6810  -27.0580   -4.2350 C.ar  455  TYR455      0.0417
    201  CZ       -36.9510  -28.0470   -4.8890 C.ar  455  TYR455      0.1957
    202  OH       -36.1110  -27.7300   -5.9320 O.3   455  TYR455     -0.2866
    203  N        -36.5070  -29.3400   -0.0690 N.am  456  LEU456     -0.1980
    204  CA       -35.3390  -28.6380    0.4750 C.3   456  LEU456      0.1596
    205  C        -35.0330  -28.9130    1.9590 C.2   456  LEU456      0.2287
    206  O        -34.1170  -28.3050    2.5120 O.2   456  LEU456     -0.2864
    207  CB       -35.3790  -27.1260    0.1920 C.3   456  LEU456      0.0297
    208  CG       -35.5880  -26.6880   -1.2600 C.3   456  LEU456      0.0022
    209  CD1      -35.7390  -25.1930   -1.3470 C.3   456  LEU456      0.0001
    210  CD2      -34.4670  -27.1630   -2.1760 C.3   456  LEU456      0.0001
@<TRIPOS>BOND
     1    29    30    1
     2    99    98    1
     3    83    84    2
     4    83    82    1
     5    90    91    1
     6    32    31    2
     7    98   100    1
     8    98    97    2
     9    96    97    1
    10    96    95    1
    11    30    31    1
    12    30    33    1
    13    40    41    1
    14    94    91    1
    15    94    95    1
    16    82    81    1
    17    82    85    1
    18    91    92    1
    19    86    87    1
    20    86    85    1
    21    89    87   ar
    22    87    88   ar
    23    33    34    1
    24    23    22    1
    25    23    24    2
    26    22    21    1
    27    22    25    1
    28    34    35    1
    29    45    44    1
    30    45    46    1
    31    41    44    1
    32    41    42    1
    33    47    46   ar
    34    43    42    2
    35     4     3    2
    36    92   101   am
    37    92    93    2
    38     1     2    1
    39     2     3    1
    40     2     5    1
    41    11    12    2
    42    11    10    1
    43     3     9   am
    44     7     6   ar
    45    46    48   ar
    46    27    25    1
    47   171   173   ar
    48   171   170   ar
    49   173   175   ar
    50   101   102    1
    51    25    26    1
    52     9    10    1
    53    35    36    1
    54    10    13    1
    55   176   175    1
    56   169   170    1
    57   169   166    1
    58   175   174   ar
    59   170   172   ar
    60    36    37    2
    61     6     5    1
    62     6     8   ar
    63   167   166    1
    64   167   168    2
    65   102   105    1
    66   102   103    1
    67   107   105    1
    68    26    28    1
    69   174   172   ar
    70    37    39    1
    71    37    38    1
    72   166   165    1
    73   105   106    1
    74   103   104    2
    75    13    14    1
    76   202   201    1
    77    14    15   ar
    78    14    16   ar
    79    15    17   ar
    80    77    76    2
    81    16    18   ar
    82    17    19   ar
    83    18    19   ar
    84   201   199   ar
    85   201   200   ar
    86    19    20    1
    87    76    75    1
    88    79    78    1
    89   108   109    1
    90   199   197   ar
    91    49    50    1
    92   163   161    1
    93    78    75    1
    94    78    80    1
    95    54    53    1
    96   200   198   ar
    97    75    74    1
    98   113   112    1
    99   197   196   ar
   100    53    50    1
   101   109   112    1
   102   109   110    1
   103   164   162    1
   104   198   196   ar
   105    50    51    1
   106   161   162    1
   107   161   158    1
   108   196   195    1
   109    74    68   am
   110    52    51    2
   111   110   111    2
   112   159   158    1
   113   159   160    2
   114    64    65   ar
   115    64    62   ar
   116   158   157    1
   117   210   208    1
   118    65    63   ar
   119    69    68    2
   120    68    67    1
   121   182   181    1
   122   195   192    1
   123   209   208    1
   124   208   207    1
   125   127   125   ar
   126   127   126   ar
   127    62    60   ar
   128   181   178    1
   129   125   123   ar
   130    63    61   ar
   131   189   188    1
   132    67    66    1
   133    67    70    1
   134   126   124   ar
   135   154   155    1
   136   154   151    1
   137   192   193    1
   138   192   191    1
   139   177   178    1
   140   155   156    1
   141   203   193   am
   142   203   204    1
   143   123   122   ar
   144   123   121   ar
   145   178   179    1
   146   207   204    1
   147    60    61   ar
   148    60    59    1
   149   193   194    2
   150   140   141   ar
   151   140   138   ar
   152   148   147    2
   153   141   139   ar
   154   122   120   ar
   155   204   205    1
   156   124   121   ar
   157   188   190    1
   158   188   187    1
   159   180   179    2
   160   121   119   ar
   161    70    71    1
   162   146   147    1
   163   146   143    1
   164   147   149   am
   165   151   152    1
   166   151   150    1
   167   156   150    1
   168   120   119   ar
   169   152   153    2
   170   138   135   ar
   171   139   137   ar
   172    55    56    1
   173    59    56    1
   174    72    71    2
   175   119   118    1
   176   144   143    1
   177   144   145    2
   178   143   142    1
   179    71    73   am
   180   187   184    1
   181   205   206    2
   182    56    57    1
   183   135   137   ar
   184   135   133   ar
   185   137   136   ar
   186   118   115    1
   187   183   184    1
   188   184   185    1
   189    58    57    2
   190   136   134   ar
   191   133   132    1
   192   133   134   ar
   193   115   116    1
   194   115   114    1
   195   186   185    2
   196   132   129    1
   197   117   116    2
   198   129   130    1
   199   129   128    1
   200   130   131    2
