@<TRIPOS>MOLECULE
tmp/3s1eA01.pdb
 163 156 0 0 0
SMALL
GASTEIGER

@<TRIPOS>ATOM
      1  N        -36.1730    6.5070   -9.1360 N.3   138  ASP138     -0.1225
      2  CA       -36.4810    7.9320   -8.9390 C.3   138  ASP138      0.1805
      3  C        -35.2180    8.7570   -8.7990 C.2   138  ASP138      0.2597
      4  O        -35.2210    9.9370   -9.1430 O.2   138  ASP138     -0.2718
      5  CB       -37.3210    8.1190   -7.6590 C.3   138  ASP138      0.1424
      6  CG       -38.7170    7.5170   -7.7140 C.2   138  ASP138      0.3668
      7  OD1      -39.2280    7.3400   -8.8070 O.co2 138  ASP138     -0.2456
      8  OD2      -39.3120    7.3000   -6.6410 O.co2 138  ASP138     -0.2456
      9  N        -34.1610    8.1320   -8.2870 N.am  139  TYR139     -0.1976
     10  CA       -32.8550    8.7420   -7.9990 C.3   139  TYR139      0.1639
     11  C        -31.7760    8.0750   -8.8570 C.2   139  TYR139      0.2290
     12  O        -31.6270    6.8580   -8.8310 O.2   139  TYR139     -0.2864
     13  CB       -32.5910    8.6000   -6.4940 C.3   139  TYR139      0.0560
     14  CG       -31.2230    9.0230   -6.0060 C.ar  139  TYR139     -0.0198
     15  CD1      -30.9340   10.3590   -5.7610 C.ar  139  TYR139     -0.0009
     16  CD2      -30.2650    8.0800   -5.6680 C.ar  139  TYR139     -0.0009
     17  CE1      -29.6900   10.7500   -5.2620 C.ar  139  TYR139      0.0417
     18  CE2      -29.0200    8.4570   -5.1660 C.ar  139  TYR139      0.0417
     19  CZ       -28.7480    9.7910   -4.9360 C.ar  139  TYR139      0.1957
     20  OH       -27.5210   10.1480   -4.4260 O.3   139  TYR139     -0.2866
     21  N        -37.3330    0.3040   -9.2280 N.3   153  ILE153     -0.1245
     22  CA       -38.6800    0.7920   -9.5910 C.3   153  ILE153      0.1561
     23  C        -38.7900    2.2940   -9.6730 C.2   153  ILE153      0.2260
     24  O        -38.1140    3.0090   -8.9340 O.2   153  ILE153     -0.2867
     25  CB       -39.7910    0.2160   -8.6420 C.3   153  ILE153      0.0252
     26  CG1      -39.5570    0.7040   -7.1620 C.3   153  ILE153      0.0019
     27  CG2      -39.7960   -1.3190   -8.7210 C.3   153  ILE153      0.0019
     28  CD1      -40.6990    0.4270   -6.0910 C.3   153  ILE153      0.0001
     29  N        -46.8030    8.1420  -10.7740 N.3   253  GLU253     -0.1245
     30  CA       -46.4880    7.9460   -9.3500 C.3   253  GLU253      0.1567
     31  C        -47.5680    8.7210   -8.6230 C.2   253  GLU253      0.2260
     32  O        -48.5100    9.2010   -9.2440 O.2   253  GLU253     -0.2867
     33  CB       -45.0710    8.4520   -8.9560 C.3   253  GLU253      0.0388
     34  CG       -43.9540    7.5560   -9.4820 C.3   253  GLU253      0.1160
     35  CD       -42.6100    7.5660   -8.7820 C.2   253  GLU253      0.3649
     36  OE1      -41.7120    6.8480   -9.2730 O.co2 253  GLU253     -0.2457
     37  OE2      -42.4620    8.2260   -7.7240 O.co2 253  GLU253     -0.2457
     38  N        -34.3990   14.9380  -11.6240 N.3   342  ARG342     -0.1231
     39  CA       -35.1180   15.8380  -10.7150 C.3   342  ARG342      0.1694
     40  C        -34.7220   15.6680   -9.2230 C.2   342  ARG342      0.2591
     41  O        -34.8010   16.6380   -8.4760 O.2   342  ARG342     -0.2718
     42  CB       -36.6480   15.7020  -10.8840 C.3   342  ARG342      0.0321
     43  CG       -37.2180   14.3770  -10.3540 C.3   342  ARG342      0.0489
     44  CD       -38.5430   13.9680  -11.0050 C.3   342  ARG342      0.2205
     45  NE       -38.9620   12.6400  -10.5340 N.pl3 342  ARG342     -0.0865
     46  CZ       -38.4700   11.4730  -10.9570 C.cat 342  ARG342      0.5346
     47  NH1      -37.5380   11.4360  -11.9020 N.pl3 342  ARG342      0.1354
     48  NH2      -38.9040   10.3390  -10.4370 N.pl3 342  ARG342      0.1354
     49  N        -34.3030   14.4590   -8.7980 N.am  343  VAL343     -0.1980
     50  CA       -33.9670   14.1860   -7.3910 C.3   343  VAL343      0.1595
     51  C        -32.5530   14.6540   -7.0130 C.2   343  VAL343      0.2287
     52  O        -32.3760   15.1030   -5.8850 O.2   343  VAL343     -0.2864
     53  CB       -34.3210   12.7480   -6.9170 C.3   343  VAL343      0.0276
     54  CG1      -33.9050   12.5090   -5.4550 C.3   343  VAL343      0.0022
     55  CG2      -35.8240   12.4720   -7.0820 C.3   343  VAL343      0.0022
     56  N        -32.5750   17.7730   -5.1240 N.3   346  GLU346     -0.1245
     57  CA       -33.0440   17.5860   -3.7460 C.3   346  GLU346      0.1567
     58  C        -31.8650   17.1270   -2.8600 C.2   346  GLU346      0.2260
     59  O        -31.7150   17.6430   -1.7500 O.2   346  GLU346     -0.2867
     60  CB       -34.2210   16.5920   -3.7230 C.3   346  GLU346      0.0388
     61  CG       -34.8200   16.3110   -2.3540 C.3   346  GLU346      0.1160
     62  CD       -35.4780   14.9480   -2.2260 C.2   346  GLU346      0.3649
     63  OE1      -36.3480   14.6190   -3.0670 O.co2 346  GLU346     -0.2457
     64  OE2      -35.1230   14.2060   -1.2820 O.co2 346  GLU346     -0.2457
     65  N        -29.0860   15.5850    4.5260 N.3   356  TRP356     -0.1241
     66  CA       -28.9970   14.4170    3.6510 C.3   356  TRP356      0.1605
     67  C        -28.2750   13.2780    4.3510 C.2   356  TRP356      0.2264
     68  O        -28.7850   12.1610    4.3620 O.2   356  TRP356     -0.2867
     69  CB       -28.3200   14.7680    2.3130 C.3   356  TRP356      0.0550
     70  CG       -28.2830   13.6340    1.3310 C.ar  356  TRP356      0.0003
     71  CD1      -27.2340   12.7990    1.0820 C.ar  356  TRP356      0.0946
     72  CD2      -29.3420   13.2300    0.4460 C.ar  356  TRP356      0.0152
     73  NE1      -27.5770   11.8860    0.1060 N.ar  356  TRP356     -0.2442
     74  CE2      -28.8710   12.1210   -0.2920 C.ar  356  TRP356      0.0810
     75  CE3      -30.6640   13.6690    0.2400 C.ar  356  TRP356      0.0012
     76  CZ2      -29.6610   11.4680   -1.2540 C.ar  356  TRP356      0.0191
     77  CZ3      -31.4440   13.0260   -0.7150 C.ar  356  TRP356      0.0001
     78  CH2      -30.9430   11.9370   -1.4470 C.ar  356  TRP356      0.0015
     79  N        -36.3930    4.6000    6.4450 N.3   362  TRP362     -0.1241
     80  CA       -37.3750    4.4680    5.3700 C.3   362  TRP362      0.1605
     81  C        -38.1810    3.1980    5.4990 C.2   362  TRP362      0.2264
     82  O        -37.6490    2.2070    5.9640 O.2   362  TRP362     -0.2867
     83  CB       -36.6410    4.4760    4.0160 C.3   362  TRP362      0.0550
     84  CG       -36.1800    5.8420    3.6110 C.ar  362  TRP362      0.0003
     85  CD1      -36.2590    6.9880    4.3480 C.ar  362  TRP362      0.0946
     86  CD2      -35.5810    6.2070    2.3630 C.ar  362  TRP362      0.0152
     87  NE1      -35.8170    8.0550    3.6100 N.ar  362  TRP362     -0.2442
     88  CE2      -35.4120    7.6120    2.3790 C.ar  362  TRP362      0.0810
     89  CE3      -35.2120    5.4920    1.2090 C.ar  362  TRP362      0.0012
     90  CZ2      -34.8510    8.3140    1.3010 C.ar  362  TRP362      0.0191
     91  CZ3      -34.6680    6.1900    0.1380 C.ar  362  TRP362      0.0001
     92  CH2      -34.4930    7.5830    0.1870 C.ar  362  TRP362      0.0015
     93  N        -40.3960    0.7960    2.9580 N.3   364  ASN364     -0.1240
     94  CA       -40.7430    0.5230    1.5520 C.3   364  ASN364      0.1653
     95  C        -41.3620   -0.8240    1.4640 C.2   364  ASN364      0.2266
     96  O        -40.8590   -1.7880    2.0640 O.2   364  ASN364     -0.2867
     97  CB       -39.5410    0.5840    0.6320 C.3   364  ASN364      0.1155
     98  CG       -38.7330    1.8220    0.7890 C.2   364  ASN364      0.2627
     99  OD1      -39.0010    2.8120    0.1410 O.2   364  ASN364     -0.2716
    100  ND2      -37.7220    1.7750    1.6430 N.am  364  ASN364     -0.0877
    101  N        -41.0230   12.4240    2.0160 N.3   392  GLN392     -0.1245
    102  CA       -42.0820   12.1200    1.0550 C.3   392  GLN392      0.1566
    103  C        -42.7860   10.8060    1.3800 C.2   392  GLN392      0.2260
    104  O        -42.1530    9.8650    1.8330 O.2   392  GLN392     -0.2867
    105  CB       -41.4680   11.9830   -0.3650 C.3   392  GLN392      0.0367
    106  CG       -40.8560   13.2620   -0.9140 C.3   392  GLN392      0.0905
    107  CD       -39.3500   13.2480   -0.8000 C.2   392  GLN392      0.2608
    108  OE1      -38.7600   12.9040    0.2350 O.2   392  GLN392     -0.2717
    109  NE2      -38.6910   13.6630   -1.8650 N.am  392  GLN392     -0.0878
    110  N        -44.6860    8.2210   -0.8720 N.3   394  ILE394     -0.1245
    111  CA       -44.9520    7.8950   -2.2780 C.3   394  ILE394      0.1561
    112  C        -45.7950    6.6400   -2.3610 C.2   394  ILE394      0.2260
    113  O        -45.4700    5.6520   -1.7030 O.2   394  ILE394     -0.2867
    114  CB       -43.6060    7.7440   -3.0400 C.3   394  ILE394      0.0252
    115  CG1      -42.7790    9.0770   -2.9810 C.3   394  ILE394      0.0019
    116  CG2      -43.8410    7.3420   -4.4900 C.3   394  ILE394      0.0019
    117  CD1      -41.3030    8.8960   -3.3950 C.3   394  ILE394      0.0001
    118  N        -47.9770    4.2970   -5.4730 N.3   396  TYR396     -0.1241
    119  CA       -48.3790    4.1270   -6.8830 C.3   396  TYR396      0.1605
    120  C        -48.5570    2.6800   -7.2570 C.2   396  TYR396      0.2264
    121  O        -47.8630    1.8180   -6.7040 O.2   396  TYR396     -0.2867
    122  CB       -47.4610    4.8430   -7.8790 C.3   396  TYR396      0.0534
    123  CG       -46.0120    4.4100   -7.8570 C.ar  396  TYR396     -0.0201
    124  CD1      -45.5520    3.4030   -8.7030 C.ar  396  TYR396     -0.0009
    125  CD2      -45.0820    5.0540   -7.0370 C.ar  396  TYR396     -0.0009
    126  CE1      -44.2140    3.0070   -8.6900 C.ar  396  TYR396      0.0417
    127  CE2      -43.7390    4.6920   -7.0460 C.ar  396  TYR396      0.0417
    128  CZ       -43.3030    3.6930   -7.9030 C.ar  396  TYR396      0.1957
    129  OH       -41.9780    3.3620   -7.9400 O.3   396  TYR396     -0.2866
    130  N        -43.7070    3.8570   -0.4640 N.3   421  SER421     -0.1217
    131  CA       -42.3900    4.2730    0.0150 C.3   421  SER421      0.1889
    132  C        -42.5320    5.4570    0.9860 C.2   421  SER421      0.2288
    133  O        -42.8570    6.5720    0.5650 O.2   421  SER421     -0.2866
    134  CB       -41.5070    4.6490   -1.1720 C.3   421  SER421      0.2089
    135  OG       -41.0370    3.4650   -1.7910 O.3   421  SER421     -0.2183
    136  N        -40.6400    7.7540    3.0990 N.3   423  LEU423     -0.1245
    137  CA       -39.2600    8.2390    3.1380 C.3   423  LEU423      0.1561
    138  C        -39.0000    9.2480    4.2480 C.2   423  LEU423      0.2260
    139  O        -38.8100   10.4490    4.0010 O.2   423  LEU423     -0.2867
    140  CB       -38.8420    8.7880    1.7600 C.3   423  LEU423      0.0270
    141  CG       -39.2380    7.9770    0.5150 C.3   423  LEU423      0.0019
    142  CD1      -38.8310    8.7190   -0.7240 C.3   423  LEU423      0.0001
    143  CD2      -38.6450    6.5790    0.5250 C.3   423  LEU423      0.0001
    144  N        -39.5590   -4.1350    0.5040 N.3   456  TYR456     -0.1227
    145  CA       -38.6260   -3.8710   -0.5760 C.3   456  TYR456      0.1736
    146  C        -37.5180   -3.0090    0.0610 C.2   456  TYR456      0.2595
    147  O        -37.8240   -2.1060    0.8390 O.2   456  TYR456     -0.2718
    148  CB       -39.3330   -3.1160   -1.7120 C.3   456  TYR456      0.0548
    149  CG       -38.4390   -2.7460   -2.8830 C.ar  456  TYR456     -0.0200
    150  CD1      -37.6970   -3.7140   -3.5570 C.ar  456  TYR456     -0.0009
    151  CD2      -38.3410   -1.4280   -3.3180 C.ar  456  TYR456     -0.0009
    152  CE1      -36.8230   -3.3660   -4.5930 C.ar  456  TYR456      0.0417
    153  CE2      -37.4940   -1.0720   -4.3730 C.ar  456  TYR456      0.0417
    154  CZ       -36.7350   -2.0490   -5.0040 C.ar  456  TYR456      0.1957
    155  OH       -35.8910   -1.6850   -6.0250 O.3   456  TYR456     -0.2866
    156  N        -36.2370   -3.3100   -0.2340 N.am  457  LEU457     -0.1980
    157  CA       -35.0860   -2.5550    0.2890 C.3   457  LEU457      0.1596
    158  C        -34.8060   -2.7690    1.7800 C.2   457  LEU457      0.2287
    159  O        -33.9150   -2.1100    2.3390 O.2   457  LEU457     -0.2864
    160  CB       -35.1660   -1.0410   -0.0460 C.3   457  LEU457      0.0297
    161  CG       -35.3710   -0.6550   -1.5110 C.3   457  LEU457      0.0022
    162  CD1      -35.5540    0.8460   -1.6640 C.3   457  LEU457      0.0001
    163  CD2      -34.2190   -1.1380   -2.3980 C.3   457  LEU457      0.0001
@<TRIPOS>BOND
     1    47    46    1
     2    38    39    1
     3    44    45    1
     4    44    43    1
     5    46    45    2
     6    46    48    1
     7    42    39    1
     8    42    43    1
     9    29    30    1
    10    39    40    1
    11    23    22    1
    12    23    24    2
    13    22    21    1
    14    22    25    1
    15    34    33    1
    16    34    35    1
    17    30    33    1
    18    30    31    1
    19    36    35   ar
    20    32    31    2
    21    40    49   am
    22    40    41    2
    23     4     3    2
    24     1     2    1
    25     2     3    1
    26     2     5    1
    27    11    12    2
    28    11    10    1
    29     7     6   ar
    30     3     9   am
    31    49    50    1
    32    35    37   ar
    33    27    25    1
    34   124   126   ar
    35   124   123   ar
    36   126   128   ar
    37    25    26    1
    38     9    10    1
    39    10    13    1
    40   129   128    1
    41   128   127   ar
    42   122   123    1
    43   122   119    1
    44   123   125   ar
    45     6     5    1
    46     6     8   ar
    47    50    51    1
    48    50    53    1
    49   120   119    1
    50   120   121    2
    51    26    28    1
    52    55    53    1
    53   127   125   ar
    54    51    52    2
    55    53    54    1
    56   119   118    1
    57    13    14    1
    58   155   154    1
    59    14    15   ar
    60    14    16   ar
    61    15    17   ar
    62    16    18   ar
    63    17    19   ar
    64    18    19   ar
    65    56    57    1
    66   154   152   ar
    67   154   153   ar
    68    19    20    1
    69   152   150   ar
    70   116   114    1
    71   153   151   ar
    72    57    60    1
    73    57    58    1
    74    60    61    1
    75   150   149   ar
    76   117   115    1
    77   151   149   ar
    78    63    62   ar
    79   114   115    1
    80   114   111    1
    81   149   148    1
    82    58    59    2
    83   163   161    1
    84   112   111    1
    85   112   113    2
    86    61    62    1
    87   111   110    1
    88    62    64   ar
    89   109   107   am
    90   135   134    1
    91   148   145    1
    92   162   161    1
    93   161   160    1
    94    78    76   ar
    95    78    77   ar
    96    76    74   ar
    97   134   131    1
    98   106   107    1
    99   106   105    1
   100   107   108    2
   101   142   141    1
   102    77    75   ar
   103   145   146    1
   104   145   144    1
   105   130   131    1
   106   105   102    1
   107    74    73   ar
   108    74    72   ar
   109   156   146   am
   110   156   157    1
   111   160   157    1
   112   131   132    1
   113   146   147    2
   114    73    71   ar
   115    91    92   ar
   116    91    89   ar
   117    99    98    2
   118    92    90   ar
   119    75    72   ar
   120   157   158    1
   121    72    70   ar
   122   141   143    1
   123   141   140    1
   124   133   132    2
   125    97    98    1
   126    97    94    1
   127    98   100   am
   128   102   103    1
   129   102   101    1
   130    71    70   ar
   131    89    86   ar
   132    90    88   ar
   133    70    69    1
   134   103   104    2
   135    95    94    1
   136    95    96    2
   137    94    93    1
   138   140   137    1
   139   158   159    2
   140    69    66    1
   141    86    88   ar
   142    86    84   ar
   143    88    87   ar
   144   136   137    1
   145   137   138    1
   146    87    85   ar
   147    84    83    1
   148    84    85   ar
   149    66    67    1
   150    66    65    1
   151   139   138    2
   152    83    80    1
   153    67    68    2
   154    80    81    1
   155    80    79    1
   156    81    82    2
