@<TRIPOS>MOLECULE
tmp/3s1hA00.pdb
 175 167 0 0 0
SMALL
GASTEIGER

@<TRIPOS>ATOM
      1  N         94.5160   84.8850  -43.1820 N.3    10  ILE10      -0.1231
      2  CA        93.3660   84.0180  -43.4200 C.3    10  ILE10       0.1692
      3  C         93.5860   82.5360  -43.1410 C.2    10  ILE10       0.2593
      4  O         92.6810   81.7280  -43.3290 O.2    10  ILE10      -0.2718
      5  CB        92.8330   84.1940  -44.8710 C.3    10  ILE10       0.0266
      6  CG1       93.9460   83.9600  -45.8850 C.3    10  ILE10       0.0019
      7  CG2       92.2650   85.5940  -45.0430 C.3    10  ILE10       0.0020
      8  CD1       93.5070   84.1440  -47.3470 C.3    10  ILE10       0.0001
      9  N         94.7820   82.1790  -42.6790 N.am   11  GLY11      -0.1942
     10  CA        95.0590   80.7840  -42.3850 C.3    11  GLY11       0.2014
     11  C         96.5210   80.4670  -42.1470 C.2    11  GLY11       0.2639
     12  O         97.3890   81.3400  -42.2420 O.2    11  GLY11      -0.2714
     13  N         96.7920   79.2040  -41.8310 N.am   12  GLU12      -0.1963
     14  CA        98.1530   78.7500  -41.5780 C.3    12  GLU12       0.1733
     15  C         98.3090   77.2640  -41.8470 C.2    12  GLU12       0.2616
     16  O         97.3570   76.4930  -41.7220 O.2    12  GLU12      -0.2715
     17  CB        98.5550   79.0290  -40.1270 C.3    12  GLU12       0.0429
     18  CG        98.6130   80.4970  -39.7640 C.3    12  GLU12       0.1163
     19  CD        99.2480   80.7290  -38.4090 C.2    12  GLU12       0.3649
     20  OE1       98.8190   80.0750  -37.4350 O.co2  12  GLU12      -0.2457
     21  OE2      100.1730   81.5650  -38.3180 O.co2  12  GLU12      -0.2457
     22  N         99.5240   76.8750  -42.2170 N.am   13  GLY13      -0.1955
     23  CA        99.8160   75.4800  -42.4800 C.3    13  GLY13       0.1869
     24  C        100.9480   75.0360  -41.5740 C.2    13  GLY13       0.2309
     25  O        101.3590   75.7800  -40.6770 O.2    13  GLY13      -0.2863
     26  N         99.0970   82.1470  -44.5010 N.3    18  VAL18      -0.1245
     27  CA        98.4800   82.6950  -45.6970 C.3    18  VAL18       0.1561
     28  C         97.7310   83.9710  -45.3650 C.2    18  VAL18       0.2260
     29  O         97.0010   84.0570  -44.3720 O.2    18  VAL18      -0.2867
     30  CB        97.5430   81.6650  -46.3840 C.3    18  VAL18       0.0252
     31  CG1       96.4110   81.2690  -45.4580 C.3    18  VAL18       0.0019
     32  CG2       97.0000   82.2460  -47.6950 C.3    18  VAL18       0.0019
     33  N         95.9460   85.7390  -52.5400 N.3    31  ALA31      -0.1245
     34  CA        96.1850   84.9550  -51.3350 C.3    31  ALA31       0.1562
     35  C         97.6970   84.8160  -51.4030 C.2    31  ALA31       0.2260
     36  O         98.2290   84.3600  -52.4180 O.2    31  ALA31      -0.2867
     37  CB        95.5410   83.5910  -51.4310 C.3    31  ALA31       0.0290
     38  N        101.0320   83.1810  -49.5590 N.3    33  LYS33      -0.1245
     39  CA       101.5310   82.2400  -48.5760 C.3    33  LYS33       0.1561
     40  C        103.0040   82.5330  -48.3370 C.2    33  LYS33       0.2260
     41  O        103.7970   82.5700  -49.2710 O.2    33  LYS33      -0.2867
     42  CB       101.3600   80.8010  -49.0620 C.3    33  LYS33       0.0271
     43  CG       101.7360   79.7610  -48.0060 C.3    33  LYS33       0.0035
     44  CD       101.6250   78.3470  -48.5480 C.3    33  LYS33       0.0206
     45  CE       101.7340   77.3310  -47.4170 C.3    33  LYS33       0.1093
     46  NZ       101.7550   75.9340  -47.9460 N.3    33  LYS33      -0.1314
     47  N         93.2990   76.0010  -57.8260 N.3    56  VAL56      -0.1245
     48  CA        93.6150   77.4110  -57.5640 C.3    56  VAL56       0.1561
     49  C         94.8870   77.7790  -58.3560 C.2    56  VAL56       0.2260
     50  O         95.8920   77.0570  -58.3270 O.2    56  VAL56      -0.2867
     51  CB        93.8260   77.6720  -56.0390 C.3    56  VAL56       0.0252
     52  CG1       94.2320   79.1280  -55.7840 C.3    56  VAL56       0.0019
     53  CG2       92.5220   77.4060  -55.2990 C.3    56  VAL56       0.0019
     54  N         98.7510   83.3460  -54.9440 N.3    72  PHE72      -0.1227
     55  CA        97.6470   82.6260  -55.5680 C.3    72  PHE72       0.1736
     56  C         96.4580   83.5300  -55.8570 C.2    72  PHE72       0.2595
     57  O         96.2700   84.5640  -55.2200 O.2    72  PHE72      -0.2718
     58  CB        97.1310   81.5310  -54.6170 C.3    72  PHE72       0.0547
     59  CG        98.1370   80.4820  -54.2840 C.ar   72  PHE72      -0.0202
     60  CD1       98.3370   79.3940  -55.1330 C.ar   72  PHE72      -0.0042
     61  CD2       98.8700   80.5670  -53.1150 C.ar   72  PHE72      -0.0042
     62  CE1       99.2590   78.4010  -54.8070 C.ar   72  PHE72      -0.0003
     63  CE2       99.7920   79.5820  -52.7830 C.ar   72  PHE72      -0.0003
     64  CZ        99.9830   78.4970  -53.6330 C.ar   72  PHE72      -0.0000
     65  N         95.6380   83.1140  -56.8090 N.am   73  GLU73      -0.1965
     66  CA        94.4200   83.8500  -57.0970 C.3    73  GLU73       0.1733
     67  C         93.6140   83.6780  -55.7970 C.2    73  GLU73       0.2616
     68  O         93.6930   82.6360  -55.1280 O.2    73  GLU73      -0.2715
     69  CB        93.6740   83.2120  -58.2640 C.3    73  GLU73       0.0429
     70  CG        93.1870   81.8090  -57.9770 C.3    73  GLU73       0.1163
     71  CD        92.2400   81.2910  -59.0390 C.2    73  GLU73       0.3649
     72  OE1       91.3750   82.0630  -59.4970 O.co2  73  GLU73      -0.2457
     73  OE2       92.3470   80.1160  -59.4130 O.co2  73  GLU73      -0.2457
     74  N         92.8550   84.6940  -55.4430 N.am   74  PHE74      -0.1960
     75  CA        92.0750   84.6880  -54.2060 C.3    74  PHE74       0.1771
     76  C         90.6470   84.2020  -54.4030 C.2    74  PHE74       0.2619
     77  O         89.9710   84.6120  -55.3560 O.2    74  PHE74      -0.2715
     78  CB        92.0540   86.1080  -53.6200 C.3    74  PHE74       0.0574
     79  CG        91.2600   86.2410  -52.3500 C.ar   74  PHE74      -0.0200
     80  CD1       89.9580   86.7150  -52.3800 C.ar   74  PHE74      -0.0042
     81  CD2       91.8250   85.8850  -51.1170 C.ar   74  PHE74      -0.0042
     82  CE1       89.2060   86.8450  -51.2090 C.ar   74  PHE74      -0.0003
     83  CE2       91.0950   86.0050  -49.9380 C.ar   74  PHE74      -0.0003
     84  CZ        89.7700   86.4910  -49.9830 C.ar   74  PHE74      -0.0000
     85  N         90.2160   83.2840  -53.5420 N.am   75  LEU75      -0.1963
     86  CA        88.8300   82.7910  -53.5690 C.3    75  LEU75       0.1728
     87  C         88.2180   83.2960  -52.2730 C.2    75  LEU75       0.2616
     88  O         88.9340   83.4970  -51.3120 O.2    75  LEU75      -0.2715
     89  CB        88.7770   81.2640  -53.6950 C.3    75  LEU75       0.0311
     90  CG        88.7070   80.9690  -55.2070 C.3    75  LEU75       0.0022
     91  CD1       90.1180   80.7230  -55.7170 C.3    75  LEU75       0.0001
     92  CD2       87.7930   79.7920  -55.5100 C.3    75  LEU75       0.0001
     93  N         86.9020   83.5040  -52.2180 N.am   76  HIS76      -0.1959
     94  CA        86.3320   84.0930  -51.0210 C.3    76  HIS76       0.1787
     95  C         85.9510   83.2750  -49.8250 C.2    76  HIS76       0.2620
     96  O         85.6840   83.8450  -48.7730 O.2    76  HIS76      -0.2715
     97  CB        85.1430   84.9950  -51.3820 C.3    76  HIS76       0.0785
     98  CG        85.5440   86.3630  -51.8440 C.ar   76  HIS76       0.0821
     99  ND1       86.0810   86.6020  -53.0920 N.ar   76  HIS76      -0.2267
    100  CD2       85.4790   87.5670  -51.2230 C.ar   76  HIS76       0.1154
    101  CE1       86.3270   87.8950  -53.2190 C.ar   76  HIS76       0.1986
    102  NE2       85.9690   88.5010  -52.0990 N.ar   76  HIS76      -0.2212
    103  N         85.9320   81.9530  -49.9400 N.am   77  GLN77      -0.1963
    104  CA        85.5750   81.1620  -48.7680 C.3    77  GLN77       0.1733
    105  C         86.0720   79.7380  -48.9360 C.2    77  GLN77       0.2616
    106  O         86.2220   79.2780  -50.0630 O.2    77  GLN77      -0.2715
    107  CB        84.0560   81.1640  -48.5830 C.3    77  GLN77       0.0408
    108  CG        83.5660   80.5740  -47.2660 C.3    77  GLN77       0.0908
    109  CD        82.1630   81.0550  -46.9090 C.2    77  GLN77       0.2608
    110  OE1       81.9560   82.2250  -46.5280 O.2    77  GLN77      -0.2717
    111  NE2       81.1940   80.1690  -47.0420 N.am   77  GLN77      -0.0878
    112  N         86.3660   79.0680  -47.8200 N.am   78  ASP78      -0.1971
    113  CA        86.7970   77.6720  -47.8890 C.3    78  ASP78       0.1709
    114  C         85.6220   76.7770  -47.5040 C.2    78  ASP78       0.2293
    115  O         84.6180   77.2450  -46.9500 O.2    78  ASP78      -0.2864
    116  CB        88.0400   77.3920  -47.0160 C.3    78  ASP78       0.1436
    117  CG        87.8020   77.5740  -45.5150 C.2    78  ASP78       0.3671
    118  OD1       86.7990   77.0880  -44.9570 O.co2  78  ASP78      -0.2456
    119  OD2       88.6710   78.1910  -44.8880 O.co2  78  ASP78      -0.2456
    120  N         84.3920   76.5880  -43.6970 N.3    81  LYS81      -0.1245
    121  CA        83.5160   77.6740  -43.2890 C.3    81  LYS81       0.1561
    122  C         82.1240   77.4880  -43.8830 C.2    81  LYS81       0.2260
    123  O         81.1170   77.6640  -43.1930 O.2    81  LYS81      -0.2867
    124  CB        84.0920   79.0320  -43.7130 C.3    81  LYS81       0.0271
    125  CG        83.2040   80.2140  -43.3510 C.3    81  LYS81       0.0035
    126  CD        84.0510   81.4900  -43.3760 C.3    81  LYS81       0.0206
    127  CE        83.3240   82.6990  -42.8360 C.3    81  LYS81       0.1093
    128  NZ        84.1890   83.9220  -43.0230 N.3    81  LYS81      -0.1314
    129  N         91.6660   68.6590  -47.4600 N.3   121  LYS121     -0.1245
    130  CA        90.8140   68.8580  -46.3020 C.3   121  LYS121      0.1561
    131  C         89.9110   70.0250  -46.6290 C.2   121  LYS121      0.2260
    132  O         90.2030   70.8200  -47.5370 O.2   121  LYS121     -0.2867
    133  CB        91.6410   69.1020  -45.0260 C.3   121  LYS121      0.0271
    134  CG        92.6260   70.2550  -45.0660 C.3   121  LYS121      0.0035
    135  CD        93.6720   70.0590  -43.9550 C.3   121  LYS121      0.0206
    136  CE        94.7550   71.1070  -43.9900 C.3   121  LYS121      0.1093
    137  NZ        95.8570   70.7850  -43.0230 N.3   121  LYS121     -0.1314
    138  N         89.5360   72.8380  -45.3730 N.3   123  GLN123     -0.1231
    139  CA        90.2170   74.1340  -45.3390 C.3   123  GLN123      0.1698
    140  C         91.0310   74.4730  -46.5860 C.2   123  GLN123      0.2592
    141  O         91.3970   75.6350  -46.7890 O.2   123  GLN123     -0.2718
    142  CB        91.0860   74.2340  -44.0920 C.3   123  GLN123      0.0381
    143  CG        90.2400   74.3990  -42.8610 C.3   123  GLN123      0.0905
    144  CD        91.0300   74.1550  -41.6160 C.2   123  GLN123      0.2608
    145  OE1       91.5090   73.0390  -41.3860 O.2   123  GLN123     -0.2717
    146  NE2       91.1910   75.1990  -40.8000 N.am  123  GLN123     -0.0878
    147  N         91.3420   73.4850  -47.4170 N.am  124  ASN124     -0.1974
    148  CA        92.0340   73.8470  -48.6550 C.3   124  ASN124      0.1688
    149  C         91.2200   73.5850  -49.9160 C.2   124  ASN124      0.2292
    150  O         91.7750   73.4380  -51.0150 O.2   124  ASN124     -0.2864
    151  CB        93.4400   73.2400  -48.7800 C.3   124  ASN124      0.1181
    152  CG        93.4740   71.7660  -48.5890 C.2   124  ASN124      0.2629
    153  OD1       92.6180   71.0300  -49.0920 O.2   124  ASN124     -0.2716
    154  ND2       94.4940   71.3020  -47.8680 N.am  124  ASN124     -0.0877
    155  N         88.4580   75.5170  -51.9090 N.3   126  LEU126     -0.1245
    156  CA        87.9700   76.8900  -51.9560 C.3   126  LEU126      0.1561
    157  C         86.8220   77.0860  -52.9200 C.2   126  LEU126      0.2260
    158  O         86.8510   76.5530  -54.0300 O.2   126  LEU126     -0.2867
    159  CB        89.1220   77.8230  -52.3430 C.3   126  LEU126      0.0270
    160  CG        90.3870   77.5690  -51.5310 C.3   126  LEU126      0.0019
    161  CD1       91.4730   78.5110  -52.0320 C.3   126  LEU126      0.0001
    162  CD2       90.1030   77.7530  -50.0150 C.3   126  LEU126      0.0001
    163  N         93.3190   73.6930  -53.4410 N.3   136  ALA136     -0.1231
    164  CA        94.3230   74.6700  -53.0260 C.3   136  ALA136      0.1694
    165  C         95.3910   74.0610  -52.1340 C.2   136  ALA136      0.2592
    166  O         95.2630   72.9290  -51.6760 O.2   136  ALA136     -0.2718
    167  CB        93.6680   75.8200  -52.2820 C.3   136  ALA136      0.0304
    168  N         96.4470   74.8360  -51.9050 N.am  137  ASP137     -0.1974
    169  CA        97.5470   74.4530  -51.0280 C.3   137  ASP137      0.1709
    170  C         98.0640   73.0230  -51.2060 C.2   137  ASP137      0.2293
    171  O         98.0520   72.2160  -50.2700 O.2   137  ASP137     -0.2864
    172  CB        97.1290   74.6940  -49.5740 C.3   137  ASP137      0.1436
    173  CG        98.3210   74.7450  -48.6170 C.2   137  ASP137      0.3671
    174  OD1       99.3530   75.3450  -48.9760 O.co2 137  ASP137     -0.2456
    175  OD2       98.2060   74.2020  -47.5020 O.co2 137  ASP137     -0.2456
@<TRIPOS>BOND
     1    72    71   ar
     2    73    71   ar
     3    71    70    1
     4    49    50    2
     5    49    48    1
     6    69    70    1
     7    69    66    1
     8    47    48    1
     9    48    51    1
    10    66    65    1
    11    66    67    1
    12    65    56   am
    13    51    52    1
    14    51    53    1
    15    56    55    1
    16    56    57    2
    17    67    74   am
    18    67    68    2
    19    91    90    1
    20    55    54    1
    21    55    58    1
    22    92    90    1
    23    74    75    1
    24    77    76    2
    25    90    89    1
    26    60    62   ar
    27    60    59   ar
    28    62    64   ar
    29    58    59    1
    30    76    75    1
    31    76    85   am
    32    59    61   ar
    33    75    78    1
    34   158   157    2
    35    89    86    1
    36    64    63   ar
    37    78    79    1
    38    86    85    1
    39    86    87    1
    40   163   164    1
    41   101    99   ar
    42   101   102   ar
    43    61    63   ar
    44    99    98   ar
    45   164   167    1
    46   164   165    1
    47   157   156    1
    48    33    34    1
    49    36    35    2
    50    80    79   ar
    51    80    82   ar
    52    79    81   ar
    53   159   156    1
    54   159   160    1
    55    87    93   am
    56    87    88    2
    57    93    94    1
    58   165   168   am
    59   165   166    2
    60   102   100   ar
    61   161   160    1
    62   156   155    1
    63   168   169    1
    64    98    97    1
    65    98   100   ar
    66   160   162    1
    67    37    34    1
    68    35    34    1
    69    97    94    1
    70    82    84   ar
    71   170   169    1
    72   170   171    2
    73    81    83   ar
    74   169   172    1
    75    94    95    1
    76   150   149    2
    77   106   105    2
    78    84    83   ar
    79   103    95   am
    80   103   104    1
    81   149   148    1
    82    95    96    2
    83   172   173    1
    84    38    39    1
    85    41    40    2
    86   153   152    2
    87    42    39    1
    88    42    43    1
    89   174   173   ar
    90   105   104    1
    91   105   112   am
    92   151   148    1
    93   151   152    1
    94   104   107    1
    95   148   147    1
    96   173   175   ar
    97   152   154   am
    98   107   108    1
    99    39    40    1
   100    44    43    1
   101    44    45    1
   102    46    45    1
   103   113   112    1
   104   113   114    1
   105   113   116    1
   106    32    30    1
   107   132   131    2
   108   114   115    2
   109   129   130    1
   110   147   140   am
   111     8     6    1
   112   108   109    1
   113   111   109   am
   114   116   117    1
   115   109   110    2
   116   141   140    2
   117   131   130    1
   118   140   139    1
   119    30    27    1
   120    30    31    1
   121   130   133    1
   122     6     5    1
   123    27    28    1
   124    27    26    1
   125   117   118   ar
   126   117   119   ar
   127   138   139    1
   128    28    29    2
   129   139   142    1
   130   134   133    1
   131   134   135    1
   132     7     5    1
   133     5     2    1
   134   142   143    1
   135   136   135    1
   136   136   137    1
   137   122   121    1
   138   122   123    2
   139   124   125    1
   140   124   121    1
   141   120   121    1
   142     2     1    1
   143     2     3    1
   144   126   125    1
   145   126   127    1
   146     4     3    2
   147     3     9   am
   148   128   127    1
   149   143   144    1
   150     9    10    1
   151    23    22    1
   152    23    24    1
   153    10    11    1
   154    12    11    2
   155    22    15   am
   156    11    13   am
   157    15    16    2
   158    15    14    1
   159    13    14    1
   160   144   145    2
   161   144   146   am
   162    14    17    1
   163    24    25    2
   164    17    18    1
   165    18    19    1
   166    19    21   ar
   167    19    20   ar
