@<TRIPOS>MOLECULE
tmp/3s1lB00.pdb
 165 158 0 0 0
SMALL
GASTEIGER

@<TRIPOS>ATOM
      1  N         41.6220    6.2650   30.8270 N.3    40  CYS40      -0.1235
      2  CA        40.9500    6.3800   29.5390 C.3    40  CYS40       0.1677
      3  C         40.0080    7.5850   29.4670 C.2    40  CYS40       0.2270
      4  O         39.8250    8.3130   30.4460 O.2    40  CYS40      -0.2867
      5  CB        40.2000    5.0900   29.1950 C.3    40  CYS40       0.0956
      6  SG        38.5120    5.0210   29.8240 S.3    40  CYS40      -0.0801
      7  N         36.9120    7.9950   29.5640 N.3    42  THR42      -0.1218
      8  CA        35.8320    8.0690   30.5460 C.3    42  THR42       0.1862
      9  C         36.2500    8.8820   31.7750 C.2    42  THR42       0.2287
     10  O         35.4350    9.5820   32.3780 O.2    42  THR42      -0.2866
     11  CB        35.3490    6.6720   30.9660 C.3    42  THR42       0.1770
     12  OG1       34.6940    6.0510   29.8560 O.3    42  THR42      -0.2211
     13  CG2       34.3710    6.7620   32.1380 C.3    42  THR42       0.0375
     14  N         28.8180   14.5410   31.4770 N.3    51  TRP51      -0.1228
     15  CA        27.6440   13.7130   31.2140 C.3    51  TRP51       0.1722
     16  C         26.4130   14.1560   32.0090 C.2    51  TRP51       0.2437
     17  O         26.5420   14.8340   33.0300 O.2    51  TRP51      -0.2733
     18  CB        27.9810   12.2460   31.4950 C.3    51  TRP51       0.0563
     19  CG        28.8350   11.6190   30.4270 C.ar   51  TRP51       0.0003
     20  CD1       28.8560   11.9440   29.1040 C.ar   51  TRP51       0.0946
     21  CD2       29.7900   10.5640   30.5960 C.ar   51  TRP51       0.0152
     22  NE1       29.7610   11.1550   28.4350 N.ar   51  TRP51      -0.2442
     23  CE2       30.3500   10.3000   29.3280 C.ar   51  TRP51       0.0810
     24  CE3       30.2310    9.8200   31.6960 C.ar   51  TRP51       0.0012
     25  CZ2       31.3210    9.3190   29.1270 C.ar   51  TRP51       0.0191
     26  CZ3       31.1980    8.8440   31.4950 C.ar   51  TRP51       0.0001
     27  CH2       31.7310    8.6030   30.2190 C.ar   51  TRP51       0.0015
     28  N         25.2100   13.7810   31.5350 N.am   52  PRO52      -0.2718
     29  CA        23.9810   14.2230   32.2080 C.3    52  PRO52       0.1535
     30  C         23.9430   13.8560   33.6910 C.2    52  PRO52       0.2598
     31  O         23.5590   14.6940   34.5050 O.2    52  PRO52      -0.2715
     32  CB        22.8600   13.5190   31.4230 C.3    52  PRO52       0.0310
     33  CG        23.5430   12.5270   30.5230 C.3    52  PRO52       0.0237
     34  CD        24.9240   13.0440   30.2920 C.3    52  PRO52       0.0939
     35  N         24.3360   12.6340   34.0360 N.am   53  VAL53      -0.1978
     36  CA        24.4570   12.2470   35.4380 C.3    53  VAL53       0.1596
     37  C         25.9180   12.3640   35.8610 C.2    53  VAL53       0.2287
     38  O         26.7800   11.6660   35.3280 O.2    53  VAL53      -0.2864
     39  CB        23.9570   10.8130   35.6790 C.3    53  VAL53       0.0276
     40  CG1       24.0760   10.4460   37.1590 C.3    53  VAL53       0.0022
     41  CG2       22.5160   10.6660   35.1910 C.3    53  VAL53       0.0022
     42  N         38.5820    3.5730   37.0460 N.3    63  HIS63      -0.1241
     43  CA        37.7940    2.3440   37.0010 C.3    63  HIS63       0.1621
     44  C         38.6040    1.2050   36.3770 C.2    63  HIS63       0.2264
     45  O         38.0450    0.2090   35.9190 O.2    63  HIS63      -0.2867
     46  CB        36.5160    2.5790   36.1930 C.3    63  HIS63       0.0745
     47  CG        36.7720    3.1370   34.8300 C.ar   63  HIS63       0.0817
     48  ND1       36.9540    4.4840   34.5980 N.ar   63  HIS63      -0.2268
     49  CD2       36.8990    2.5280   33.6270 C.ar   63  HIS63       0.1154
     50  CE1       37.1810    4.6800   33.3130 C.ar   63  HIS63       0.1986
     51  NE2       37.1460    3.5100   32.7010 N.ar   63  HIS63      -0.2212
     52  N         34.5320   -0.6220   36.2410 N.3    89  TRP89      -0.1241
     53  CA        33.4600    0.3680   36.1820 C.3    89  TRP89       0.1605
     54  C         32.2370   -0.0140   37.0140 C.2    89  TRP89       0.2264
     55  O         31.7340    0.8020   37.7870 O.2    89  TRP89      -0.2867
     56  CB        33.0640    0.5890   34.7160 C.3    89  TRP89       0.0550
     57  CG        31.9030    1.4950   34.4970 C.ar   89  TRP89       0.0003
     58  CD1       30.6600    1.1420   34.0540 C.ar   89  TRP89       0.0946
     59  CD2       31.8750    2.9160   34.6830 C.ar   89  TRP89       0.0152
     60  NE1       29.8590    2.2540   33.9580 N.ar   89  TRP89      -0.2442
     61  CE2       30.5790    3.3560   34.3400 C.ar   89  TRP89       0.0810
     62  CE3       32.8170    3.8590   35.1080 C.ar   89  TRP89       0.0012
     63  CZ2       30.2010    4.6950   34.4150 C.ar   89  TRP89       0.0191
     64  CZ3       32.4410    5.1880   35.1770 C.ar   89  TRP89       0.0001
     65  CH2       31.1450    5.5940   34.8330 C.ar   89  TRP89       0.0015
     66  N         19.6150    0.1010   37.3200 N.3   109  GLU109     -0.1245
     67  CA        19.4420    1.5160   37.6390 C.3   109  GLU109      0.1567
     68  C         20.0890    1.8830   38.9740 C.2   109  GLU109      0.2260
     69  O         20.3750    3.0490   39.2270 O.2   109  GLU109     -0.2867
     70  CB        17.9570    1.8890   37.6610 C.3   109  GLU109      0.0388
     71  CG        17.2830    1.7990   36.3070 C.3   109  GLU109      0.1160
     72  CD        15.8450    2.2770   36.3420 C.2   109  GLU109      0.3649
     73  OE1       14.9390    1.4390   36.1530 O.co2 109  GLU109     -0.2457
     74  OE2       15.6210    3.4880   36.5530 O.co2 109  GLU109     -0.2457
     75  N         23.0300    0.7640   40.0980 N.3   111  GLN111     -0.1245
     76  CA        24.4520    0.4380   40.1010 C.3   111  GLN111      0.1566
     77  C         25.3160    1.5990   40.5780 C.2   111  GLN111      0.2260
     78  O         24.9590    2.7670   40.4210 O.2   111  GLN111     -0.2867
     79  CB        24.9120   -0.0190   38.7160 C.3   111  GLN111      0.0367
     80  CG        25.0650    1.0970   37.7000 C.3   111  GLN111      0.0905
     81  CD        25.3790    0.5580   36.3170 C.2   111  GLN111      0.2608
     82  OE1       26.5270    0.5880   35.8660 O.2   111  GLN111     -0.2717
     83  NE2       24.3590    0.0440   35.6440 N.am  111  GLN111     -0.0878
     84  N         29.3090    3.1610   40.2210 N.3   113  ASN113     -0.1240
     85  CA        30.4000    3.1180   39.2570 C.3   113  ASN113      0.1653
     86  C         31.7250    3.6210   39.8090 C.2   113  ASN113      0.2266
     87  O         31.8360    4.7600   40.2680 O.2   113  ASN113     -0.2867
     88  CB        30.0060    3.8690   37.9880 C.3   113  ASN113      0.1155
     89  CG        28.7690    3.2870   37.3460 C.2   113  ASN113      0.2627
     90  OD1       27.7200    3.9300   37.2870 O.2   113  ASN113     -0.2716
     91  ND2       28.8760    2.0440   36.8870 N.am  113  ASN113     -0.0877
     92  N         33.6450    7.1930   39.8180 N.3   116  TYR116     -0.1227
     93  CA        32.5890    8.0610   39.3130 C.3   116  TYR116      0.1736
     94  C         31.5990    8.4090   40.4210 C.2   116  TYR116      0.2596
     95  O         31.5880    9.5350   40.9170 O.2   116  TYR116     -0.2718
     96  CB        31.8640    7.4110   38.1350 C.3   116  TYR116      0.0548
     97  CG        31.1580    8.4070   37.2470 C.ar  116  TYR116     -0.0200
     98  CD1       31.7990    8.9610   36.1480 C.ar  116  TYR116     -0.0009
     99  CD2       29.8530    8.8010   37.5100 C.ar  116  TYR116     -0.0009
    100  CE1       31.1610    9.8780   35.3320 C.ar  116  TYR116      0.0417
    101  CE2       29.2050    9.7180   36.7000 C.ar  116  TYR116      0.0417
    102  CZ        29.8620   10.2510   35.6150 C.ar  116  TYR116      0.1957
    103  OH        29.2240   11.1630   34.8080 O.3   116  TYR116     -0.2866
    104  N         30.7730    7.4440   40.8120 N.am  117  SER117     -0.1952
    105  CA        29.8360    7.6500   41.9150 C.3   117  SER117      0.1924
    106  C         30.4730    7.2750   43.2550 C.2   117  SER117      0.2314
    107  O         29.9700    7.6380   44.3170 O.2   117  SER117     -0.2863
    108  CB        28.5470    6.8540   41.6940 C.3   117  SER117      0.2116
    109  OG        28.7730    5.4630   41.8360 O.3   117  SER117     -0.2180
    110  N         38.4900   -2.5900   31.0130 N.3   150  CYS150     -0.1235
    111  CA        37.6950   -1.5460   30.3820 C.3   150  CYS150      0.1677
    112  C         37.6340   -1.7240   28.8700 C.2   150  CYS150      0.2270
    113  O         36.6050   -2.1040   28.3270 O.2   150  CYS150     -0.2867
    114  CB        38.2620   -0.1720   30.7310 C.3   150  CYS150      0.0956
    115  SG        37.3700    1.1690   29.9610 S.3   150  CYS150     -0.0801
    116  N         34.8170   -4.1380   27.0450 N.3   154  THR154     -0.1218
    117  CA        33.9870   -3.3450   26.1380 C.3   154  THR154      0.1862
    118  C         33.9290   -3.9320   24.7210 C.2   154  THR154      0.2287
    119  O         32.8510   -4.1340   24.1710 O.2   154  THR154     -0.2866
    120  CB        34.4570   -1.8720   26.0570 C.3   154  THR154      0.1770
    121  OG1       34.1910   -1.2130   27.3010 O.3   154  THR154     -0.2211
    122  CG2       33.7250   -1.1400   24.9310 C.3   154  THR154      0.0375
    123  N         40.6080    1.1970   21.4950 N.3   178  LEU178     -0.1245
    124  CA        39.7370    0.0290   21.5860 C.3   178  LEU178      0.1561
    125  C         39.9790   -0.9300   20.4280 C.2   178  LEU178      0.2260
    126  O         40.0650   -2.1420   20.6210 O.2   178  LEU178     -0.2867
    127  CB        38.2620    0.4440   21.5970 C.3   178  LEU178      0.0270
    128  CG        37.7610    1.2650   22.7830 C.3   178  LEU178      0.0019
    129  CD1       36.2740    1.5630   22.6170 C.3   178  LEU178      0.0001
    130  CD2       38.0130    0.5380   24.0810 C.3   178  LEU178      0.0001
    131  N         30.2690    0.9110   19.8970 N.3   262  ASN262     -0.1225
    132  CA        31.0650    0.6700   21.0980 C.3   262  ASN262      0.1785
    133  C         31.4170    1.9220   21.9010 C.2   262  ASN262      0.2598
    134  O         32.4030    1.9220   22.6270 O.2   262  ASN262     -0.2718
    135  CB        32.3690   -0.0290   20.7000 C.3   262  ASN262      0.1169
    136  CG        32.5870   -1.3400   21.4270 C.2   262  ASN262      0.2627
    137  OD1       31.7400   -1.8020   22.1980 O.2   262  ASN262     -0.2716
    138  ND2       33.7290   -1.9580   21.1710 N.am  262  ASN262     -0.0877
    139  N         30.6230    2.9830   21.7780 N.am  263  GLY263     -0.1942
    140  CA        30.9350    4.2390   22.4460 C.3   263  GLY263      0.2014
    141  C         29.7500    5.1770   22.5830 C.2   263  GLY263      0.2638
    142  O         28.6980    4.9390   21.9990 O.2   263  GLY263     -0.2714
    143  N         29.9290    6.2500   23.3510 N.am  264  LEU264     -0.1977
    144  CA        28.8600    7.2080   23.6320 C.3   264  LEU264      0.1596
    145  C         29.0630    8.5410   22.9160 C.2   264  LEU264      0.2287
    146  O         29.5050    9.5070   23.5340 O.2   264  LEU264     -0.2864
    147  CB        28.7930    7.5060   25.1340 C.3   264  LEU264      0.0297
    148  CG        28.3750    6.4540   26.1630 C.3   264  LEU264      0.0022
    149  CD1       26.9900    5.9050   25.8430 C.3   264  LEU264      0.0001
    150  CD2       29.4010    5.3360   26.2760 C.3   264  LEU264      0.0001
    151  N         28.5850   -0.9150   25.6560 N.3   287  ILE287     -0.1231
    152  CA        29.6750   -0.3270   26.4060 C.3   287  ILE287      0.1692
    153  C         29.9050   -1.1660   27.6620 C.2   287  ILE287      0.2591
    154  O         28.9530   -1.6470   28.2720 O.2   287  ILE287     -0.2718
    155  CB        29.3870    1.1530   26.7450 C.3   287  ILE287      0.0266
    156  CG1       30.6750    1.8660   27.1500 C.3   287  ILE287      0.0019
    157  CG2       28.2930    1.2770   27.7970 C.3   287  ILE287      0.0020
    158  CD1       31.6680    1.9530   26.0190 C.3   287  ILE287      0.0001
    159  N         31.1700   -1.3590   28.0210 N.am  288  VAL288     -0.1980
    160  CA        31.5610   -2.2660   29.1080 C.3   288  VAL288      0.1595
    161  C         30.8260   -3.6110   29.0740 C.2   288  VAL288      0.2287
    162  O         30.5200   -4.1290   28.0010 O.2   288  VAL288     -0.2864
    163  CB        31.4530   -1.6060   30.5050 C.3   288  VAL288      0.0276
    164  CG1       32.5110   -0.5190   30.6500 C.3   288  VAL288      0.0022
    165  CG2       30.0580   -1.0450   30.7420 C.3   288  VAL288      0.0022
@<TRIPOS>BOND
     1   131   132    1
     2   125   126    2
     3   125   124    1
     4   135   132    1
     5   135   136    1
     6   132   133    1
     7   138   136   am
     8   136   137    2
     9   123   124    1
    10   124   127    1
    11   127   128    1
    12   139   133   am
    13   139   140    1
    14   133   134    2
    15   142   141    2
    16   140   141    1
    17   141   143   am
    18   129   128    1
    19   128   130    1
    20   145   146    2
    21   145   144    1
    22   143   144    1
    23   144   147    1
    24   119   118    2
    25   118   117    1
    26   122   120    1
    27   147   148    1
    28   151   152    1
    29   149   148    1
    30   158   156    1
    31   120   117    1
    32   120   121    1
    33   117   116    1
    34   148   150    1
    35   152   155    1
    36   152   153    1
    37   155   156    1
    38   155   157    1
    39   153   159   am
    40   153   154    2
    41   162   161    2
    42   159   160    1
    43   113   112    2
    44    22    20   ar
    45    22    23   ar
    46   112   111    1
    47   161   160    1
    48    20    19   ar
    49   160   163    1
    50    25    23   ar
    51    25    27   ar
    52     5     2    1
    53     5     6    1
    54    23    21   ar
    55     3     2    1
    56     3     4    2
    57     2     1    1
    58     7     8    1
    59    12    11    1
    60   115   114    1
    61    27    26   ar
    62    34    33    1
    63    34    28    1
    64   111   114    1
    65   111   110    1
    66    19    21   ar
    67    19    18    1
    68   163   164    1
    69   163   165    1
    70    33    32    1
    71     8    11    1
    72     8     9    1
    73    21    24   ar
    74    11    13    1
    75    15    14    1
    76    15    18    1
    77    15    16    1
    78    32    29    1
    79    26    24   ar
    80    28    16   am
    81    28    29    1
    82     9    10    2
    83    16    17    2
    84    29    30    1
    85    51    50   ar
    86    51    49   ar
    87    50    48   ar
    88    49    47   ar
    89    30    35   am
    90    30    31    2
    91    60    58   ar
    92    60    61   ar
    93    35    36    1
    94    58    57   ar
    95    61    63   ar
    96    61    59   ar
    97    63    65   ar
    98    57    59   ar
    99    57    56    1
   100    48    47   ar
   101    59    62   ar
   102    56    53    1
   103   103   102    1
   104    47    46    1
   105    65    64   ar
   106    62    64   ar
   107    41    39    1
   108    38    37    2
   109   100   102   ar
   110   100    98   ar
   111    36    39    1
   112    36    37    1
   113   102   101   ar
   114    83    81   am
   115    39    40    1
   116    82    81    2
   117    45    44    2
   118    98    97   ar
   119    73    72   ar
   120    53    52    1
   121    53    54    1
   122    46    43    1
   123    71    72    1
   124    71    70    1
   125    81    80    1
   126    72    74   ar
   127    44    43    1
   128   101    99   ar
   129    91    89   am
   130    43    42    1
   131    54    55    2
   132    97    99   ar
   133    97    96    1
   134    90    89    2
   135    66    67    1
   136    89    88    1
   137    67    70    1
   138    67    68    1
   139    80    79    1
   140    88    85    1
   141    96    93    1
   142    79    76    1
   143    68    69    2
   144    85    86    1
   145    85    84    1
   146    93    92    1
   147    93    94    1
   148    86    87    2
   149    75    76    1
   150    76    77    1
   151    94   104   am
   152    94    95    2
   153    78    77    2
   154   104   105    1
   155   108   109    1
   156   108   105    1
   157   105   106    1
   158   106   107    2
