@<TRIPOS>MOLECULE
tmp/3s1lC00.pdb
 160 154 0 0 0
SMALL
GASTEIGER

@<TRIPOS>ATOM
      1  N         34.4770  -44.3690    4.0990 N.3    40  CYS40      -0.1235
      2  CA        34.2890  -44.4170    5.5430 C.3    40  CYS40       0.1677
      3  C         33.3490  -45.5540    5.9280 C.2    40  CYS40       0.2270
      4  O         32.8290  -46.2560    5.0600 O.2    40  CYS40      -0.2867
      5  CB        33.7650  -43.0830    6.0780 C.3    40  CYS40       0.0956
      6  SG        31.9870  -42.8730    5.8930 S.3    40  CYS40      -0.0801
      7  N         30.3700  -45.6720    6.8500 N.3    42  THR42      -0.1218
      8  CA        29.0220  -45.5990    6.2960 C.3    42  THR42       0.1862
      9  C         28.9270  -46.4430    5.0270 C.2    42  THR42       0.2287
     10  O         27.8920  -47.0470    4.7400 O.2    42  THR42      -0.2866
     11  CB        28.6020  -44.1410    6.0170 C.3    42  THR42       0.1770
     12  OG1       28.3180  -43.4850    7.2590 O.3    42  THR42      -0.2211
     13  CG2       27.3620  -44.0930    5.1440 C.3    42  THR42       0.0375
     14  N         21.3420  -51.4940    7.9940 N.3    51  TRP51      -0.1228
     15  CA        20.5210  -50.4250    8.5520 C.3    51  TRP51       0.1722
     16  C         19.0520  -50.6600    8.2100 C.2    51  TRP51       0.2437
     17  O         18.7430  -51.3100    7.2110 O.2    51  TRP51      -0.2733
     18  CB        20.9930  -49.0590    8.0430 C.3    51  TRP51       0.0563
     19  CG        22.1820  -48.5230    8.7880 C.ar   51  TRP51       0.0003
     20  CD1       22.5740  -48.8540   10.0540 C.ar   51  TRP51       0.0946
     21  CD2       23.1350  -47.5630    8.3110 C.ar   51  TRP51       0.0152
     22  NE1       23.7080  -48.1580   10.3960 N.ar   51  TRP51      -0.2442
     23  CE2       24.0750  -47.3610    9.3430 C.ar   51  TRP51       0.0810
     24  CE3       23.2860  -46.8570    7.1130 C.ar   51  TRP51       0.0012
     25  CZ2       25.1480  -46.4810    9.2140 C.ar   51  TRP51       0.0191
     26  CZ3       24.3520  -45.9830    6.9870 C.ar   51  TRP51       0.0001
     27  CH2       25.2690  -45.8030    8.0310 C.ar   51  TRP51       0.0015
     28  N         18.1370  -50.1340    9.0410 N.am   52  PRO52      -0.2718
     29  CA        16.7020  -50.3500    8.8350 C.3    52  PRO52       0.1535
     30  C         16.2860  -50.0920    7.3900 C.2    52  PRO52       0.2598
     31  O         15.6720  -50.9530    6.7560 O.2    52  PRO52      -0.2715
     32  CB        16.0610  -49.3160    9.7640 C.3    52  PRO52       0.0310
     33  CG        17.0520  -49.1430   10.8560 C.3    52  PRO52       0.0237
     34  CD        18.4040  -49.2730   10.2070 C.3    52  PRO52       0.0939
     35  N         16.6200  -48.9120    6.8780 N.am   53  VAL53      -0.1978
     36  CA        16.3390  -48.5750    5.4910 C.3    53  VAL53       0.1596
     37  C         17.5720  -48.8700    4.6450 C.2    53  VAL53       0.2287
     38  O         18.6420  -48.3080    4.8780 O.2    53  VAL53      -0.2864
     39  CB        15.9470  -47.0970    5.3400 C.3    53  VAL53       0.0276
     40  CG1       15.5760  -46.7960    3.8980 C.3    53  VAL53       0.0022
     41  CG2       14.7930  -46.7630    6.2750 C.3    53  VAL53       0.0022
     42  N         29.9540  -41.3830   -1.0120 N.3    63  HIS63      -0.1241
     43  CA        29.3310  -40.0860   -0.7610 C.3    63  HIS63       0.1621
     44  C         30.4050  -39.0500   -0.4340 C.2    63  HIS63       0.2264
     45  O         30.1450  -38.0480    0.2300 O.2    63  HIS63      -0.2867
     46  CB        28.3330  -40.1940    0.3920 C.3    63  HIS63       0.0745
     47  CG        28.9310  -40.7530    1.6420 C.ar   63  HIS63       0.0817
     48  ND1       29.0200  -42.1070    1.8810 N.ar   63  HIS63      -0.2268
     49  CD2       29.5050  -40.1430    2.7050 C.ar   63  HIS63       0.1154
     50  CE1       29.6100  -42.3080    3.0460 C.ar   63  HIS63       0.1986
     51  NE2       29.9090  -41.1320    3.5670 N.ar   63  HIS63      -0.2212
     52  N         26.7570  -36.7640    0.9460 N.3    89  TRP89      -0.1241
     53  CA        25.6950  -37.6510    1.4060 C.3    89  TRP89       0.1605
     54  C         24.3020  -37.1530    1.0140 C.2    89  TRP89       0.2264
     55  O         23.4750  -37.9210    0.5190 O.2    89  TRP89      -0.2867
     56  CB        25.8070  -37.8130    2.9280 C.3    89  TRP89       0.0550
     57  CG        24.7020  -38.5850    3.5580 C.ar   89  TRP89       0.0003
     58  CD1       23.7200  -38.0940    4.3690 C.ar   89  TRP89       0.0946
     59  CD2       24.4620  -39.9940    3.4410 C.ar   89  TRP89       0.0152
     60  NE1       22.8830  -39.1110    4.7650 N.ar   89  TRP89      -0.2442
     61  CE2       23.3170  -40.2870    4.2080 C.ar   89  TRP89       0.0810
     62  CE3       25.1080  -41.0350    2.7650 C.ar   89  TRP89       0.0012
     63  CZ2       22.8010  -41.5780    4.3180 C.ar   89  TRP89       0.0191
     64  CZ3       24.5950  -42.3180    2.8750 C.ar   89  TRP89       0.0001
     65  CH2       23.4520  -42.5760    3.6440 C.ar   89  TRP89       0.0015
     66  N         18.6630  -31.4660    6.0680 N.3   106  THR106     -0.1203
     67  CA        19.1370  -32.7840    6.5020 C.3   106  THR106      0.1994
     68  C         18.0240  -33.6300    7.1020 C.2   106  THR106      0.2618
     69  O         18.1490  -34.8490    7.2070 O.2   106  THR106     -0.2717
     70  CB        20.2630  -32.6920    7.5500 C.3   106  THR106      0.1784
     71  OG1       19.9130  -31.7320    8.5560 O.3   106  THR106     -0.2211
     72  CG2       21.5670  -32.2970    6.8940 C.3   106  THR106      0.0376
     73  N         16.9410  -32.9840    7.5150 N.am  107  LEU107     -0.1965
     74  CA        15.8240  -33.7030    8.1150 C.3   107  LEU107      0.1728
     75  C         14.7490  -34.0220    7.0890 C.2   107  LEU107      0.2616
     76  O         13.7260  -34.6210    7.4170 O.2   107  LEU107     -0.2715
     77  CB        15.2170  -32.8950    9.2610 C.3   107  LEU107      0.0311
     78  CG        16.1840  -32.5160   10.3800 C.3   107  LEU107      0.0022
     79  CD1       15.4400  -31.8110   11.5080 C.3   107  LEU107      0.0001
     80  CD2       16.9000  -33.7550   10.8940 C.3   107  LEU107      0.0001
     81  N         14.9720  -33.6170    5.8430 N.am  108  CYS108     -0.1954
     82  CA        13.9780  -33.8640    4.8050 C.3   108  CYS108      0.1843
     83  C         13.6660  -35.3520    4.6540 C.2   108  CYS108      0.2625
     84  O         14.5600  -36.1650    4.4260 O.2   108  CYS108     -0.2714
     85  CB        14.4260  -33.2920    3.4630 C.3   108  CYS108      0.0997
     86  SG        13.1720  -33.5010    2.1800 S.3   108  CYS108     -0.0797
     87  N         12.3870  -35.6990    4.7730 N.am  109  GLU109     -0.1977
     88  CA        11.9600  -37.0860    4.6480 C.3   109  GLU109      0.1602
     89  C         12.0780  -37.5830    3.2140 C.2   109  GLU109      0.2287
     90  O         12.1030  -38.7860    2.9710 O.2   109  GLU109     -0.2864
     91  CB        10.5200  -37.2540    5.1380 C.3   109  GLU109      0.0415
     92  CG        10.3240  -36.9520    6.6130 C.3   109  GLU109      0.1163
     93  CD         8.9000  -37.2130    7.0720 C.2   109  GLU109      0.3649
     94  OE1        8.5240  -36.7250    8.1580 O.co2 109  GLU109     -0.2457
     95  OE2        8.1590  -37.9100    6.3450 O.co2 109  GLU109     -0.2457
     96  N         14.6050  -36.8520    1.1420 N.3   111  GLN111     -0.1245
     97  CA        15.9770  -36.7120    0.6620 C.3   111  GLN111      0.1566
     98  C         16.4840  -37.9850   -0.0080 C.2   111  GLN111      0.2260
     99  O         16.0920  -39.0960    0.3600 O.2   111  GLN111     -0.2867
    100  CB        16.9170  -36.3230    1.8020 C.3   111  GLN111      0.0367
    101  CG        17.2030  -37.4440    2.7860 C.3   111  GLN111      0.0905
    102  CD        18.0880  -36.9870    3.9360 C.2   111  GLN111      0.2608
    103  OE1       19.2990  -37.2170    3.9390 O.2   111  GLN111     -0.2717
    104  NE2       17.4820  -36.3290    4.9210 N.am  111  GLN111     -0.0878
    105  N         20.1590  -40.0340   -0.9310 N.3   113  ASN113     -0.1240
    106  CA        21.5080  -40.0890   -0.3790 C.3   113  ASN113      0.1653
    107  C         22.5190  -40.7160   -1.3320 C.2   113  ASN113      0.2266
    108  O         22.3320  -41.8320   -1.8220 O.2   113  ASN113     -0.2867
    109  CB        21.5030  -40.7910    0.9740 C.3   113  ASN113      0.1155
    110  CG        20.5920  -40.1010    1.9700 C.2   113  ASN113      0.2627
    111  OD1       19.5850  -40.6610    2.4010 O.2   113  ASN113     -0.2716
    112  ND2       20.9290  -38.8640    2.3180 N.am  113  ASN113     -0.0877
    113  N         23.9890  -44.4980   -1.8080 N.3   116  TYR116     -0.1241
    114  CA        23.1190  -45.2610   -0.9230 C.3   116  TYR116      0.1605
    115  C         21.7730  -45.5120   -1.6000 C.2   116  TYR116      0.2264
    116  O         21.4530  -46.6470   -1.9500 O.2   116  TYR116     -0.2867
    117  CB        22.9300  -44.5340    0.4140 C.3   116  TYR116      0.0534
    118  CG        22.4500  -45.4420    1.5240 C.ar  116  TYR116     -0.0201
    119  CD1       23.3540  -46.0730    2.3700 C.ar  116  TYR116     -0.0009
    120  CD2       21.0950  -45.6790    1.7170 C.ar  116  TYR116     -0.0009
    121  CE1       22.9220  -46.9130    3.3840 C.ar  116  TYR116      0.0417
    122  CE2       20.6520  -46.5150    2.7310 C.ar  116  TYR116      0.0417
    123  CZ        21.5700  -47.1260    3.5590 C.ar  116  TYR116      0.1957
    124  OH        21.1440  -47.9620    4.5630 O.3   116  TYR116     -0.2866
    125  N         32.4520  -35.3030    4.4450 N.3   150  CYS150     -0.1235
    126  CA        31.8170  -36.2150    5.3950 C.3   150  CYS150      0.1677
    127  C         32.2890  -35.9920    6.8310 C.2   150  CYS150      0.2270
    128  O         31.5270  -35.5270    7.6780 O.2   150  CYS150     -0.2867
    129  CB        32.0400  -37.6700    4.9760 C.3   150  CYS150      0.0956
    130  SG        31.2900  -38.8750    6.0790 S.3   150  CYS150     -0.0801
    131  N         30.4720  -33.2160    9.3320 N.3   154  THR154     -0.1218
    132  CA        29.9040  -33.9370   10.4670 C.3   154  THR154      0.1862
    133  C         30.3710  -33.3630   11.8090 C.2   154  THR154      0.2287
    134  O         29.5530  -33.0570   12.6730 O.2   154  THR154     -0.2866
    135  CB        30.2070  -35.4550   10.4190 C.3   154  THR154      0.1770
    136  OG1       29.5220  -36.0430    9.3090 O.3   154  THR154     -0.2211
    137  CG2       29.7370  -36.1330   11.7010 C.3   154  THR154      0.0375
    138  N         26.0470  -43.2060   14.7390 N.3   264  LEU264     -0.1245
    139  CA        24.8280  -44.0010   14.6560 C.3   264  LEU264      0.1561
    140  C         25.0520  -45.4150   15.1650 C.2   264  LEU264      0.2260
    141  O         25.1070  -46.3560   14.3740 O.2   264  LEU264     -0.2867
    142  CB        24.3430  -44.0700   13.2080 C.3   264  LEU264      0.0270
    143  CG        23.7600  -42.7930   12.6060 C.3   264  LEU264      0.0019
    144  CD1       23.6910  -42.9100   11.0950 C.3   264  LEU264      0.0001
    145  CD2       22.3860  -42.5100   13.1920 C.3   264  LEU264      0.0001
    146  N         24.6890  -35.8470   12.5900 N.3   287  ILE287     -0.1231
    147  CA        25.5620  -36.4010   11.5610 C.3   287  ILE287      0.1692
    148  C         25.4700  -35.5660   10.2850 C.2   287  ILE287      0.2591
    149  O         24.4430  -34.9560   10.0060 O.2   287  ILE287     -0.2718
    150  CB        25.2560  -37.8740   11.2520 C.3   287  ILE287      0.0266
    151  CG1       23.7880  -38.0400   10.8600 C.3   287  ILE287      0.0019
    152  CG2       25.5970  -38.7500   12.4460 C.3   287  ILE287      0.0020
    153  CD1       23.4530  -39.4290   10.3850 C.3   287  ILE287      0.0001
    154  N         26.5610  -35.5410    9.5270 N.am  288  VAL288     -0.1980
    155  CA        26.6850  -34.6730    8.3590 C.3   288  VAL288      0.1595
    156  C         26.0700  -33.2870    8.6010 C.2   288  VAL288      0.2287
    157  O         26.1910  -32.7360    9.6950 O.2   288  VAL288     -0.2864
    158  CB        26.1370  -35.3420    7.0750 C.3   288  VAL288      0.0276
    159  CG1       27.0880  -36.4390    6.6190 C.3   288  VAL288      0.0022
    160  CG2       24.7480  -35.9100    7.3080 C.3   288  VAL288      0.0022
@<TRIPOS>BOND
     1   116   115    2
     2   108   107    2
     3   113   114    1
     4   115   114    1
     5   107   106    1
     6    42    43    1
     7   105   106    1
     8   114   117    1
     9    43    44    1
    10    43    46    1
    11    44    45    2
    12   106   109    1
    13    98    99    2
    14    98    97    1
    15    46    47    1
    16   117   118    1
    17    55    54    2
    18    97    96    1
    19    97   100    1
    20    52    53    1
    21   109   110    1
    22    54    53    1
    23    53    56    1
    24   118   120   ar
    25   118   119   ar
    26    47    48   ar
    27    47    49   ar
    28   120   122   ar
    29   100   101    1
    30    48    50   ar
    31   110   112   am
    32   110   111    2
    33    86    85    1
    34   119   121   ar
    35    49    51   ar
    36   122   123   ar
    37    62    64   ar
    38    62    59   ar
    39   101   102    1
    40    64    65   ar
    41    56    57    1
    42    90    89    2
    43    50    51   ar
    44    89    88    1
    45   121   123   ar
    46    59    57   ar
    47    59    61   ar
    48    85    82    1
    49    57    58   ar
    50   123   124    1
    51    65    63   ar
    52    40    39    1
    53   102   103    2
    54   102   104   am
    55     1     2    1
    56    61    63   ar
    57    61    60   ar
    58    58    60   ar
    59    84    83    2
    60   125   126    1
    61    37    38    2
    62    37    36    1
    63    88    87    1
    64    88    91    1
    65    83    87   am
    66    83    82    1
    67    10     9    2
    68    82    81    1
    69   129   126    1
    70   129   130    1
    71     9     8    1
    72     4     3    2
    73    91    92    1
    74    13    11    1
    75    39    36    1
    76    39    41    1
    77   126   127    1
    78    36    35    1
    79     2     3    1
    80     2     5    1
    81    81    75   am
    82     6     5    1
    83    11     8    1
    84    11    12    1
    85    66    67    1
    86     8     7    1
    87    95    93   ar
    88    67    68    1
    89    67    70    1
    90    92    93    1
    91   159   158    1
    92    31    30    2
    93   127   128    2
    94    35    30   am
    95    72    70    1
    96    26    24   ar
    97    26    27   ar
    98    93    94   ar
    99   158   160    1
   100   158   155    1
   101    75    76    2
   102    75    74    1
   103    68    69    2
   104    68    73   am
   105    24    21   ar
   106    17    16    2
   107    30    29    1
   108    73    74    1
   109    70    71    1
   110    14    15    1
   111    27    25   ar
   112    18    15    1
   113    18    19    1
   114    74    77    1
   115    16    15    1
   116    16    28   am
   117    21    19   ar
   118    21    23   ar
   119   155   156    1
   120   155   154    1
   121   156   157    2
   122    19    20   ar
   123    29    28    1
   124    29    32    1
   125    28    34    1
   126    25    23   ar
   127    77    78    1
   128   136   135    1
   129   131   132    1
   130    23    22   ar
   131   154   148   am
   132    32    33    1
   133   149   148    2
   134    20    22   ar
   135    34    33    1
   136   148   147    1
   137    78    80    1
   138    78    79    1
   139   153   151    1
   140   135   132    1
   141   135   137    1
   142   132   133    1
   143   151   150    1
   144   144   143    1
   145   150   147    1
   146   150   152    1
   147   147   146    1
   148   133   134    2
   149   143   145    1
   150   143   142    1
   151   142   139    1
   152   141   140    2
   153   139   138    1
   154   139   140    1
