@<TRIPOS>MOLECULE
tmp/3s1sA00.pdb
 219 211 0 0 0
SMALL
GASTEIGER

@<TRIPOS>ATOM
      1  N         75.9530   93.3660   19.5450 N.3   279  HIS279     -0.1241
      2  CA        75.5470   92.1810   18.8010 C.3   279  HIS279      0.1621
      3  C         74.4930   91.3570   19.5530 C.2   279  HIS279      0.2264
      4  O         73.5390   90.8940   18.9440 O.2   279  HIS279     -0.2867
      5  CB        76.7690   91.3490   18.4310 C.3   279  HIS279      0.0745
      6  CG        76.4500   90.1430   17.6150 C.ar  279  HIS279      0.0817
      7  ND1       76.4120   88.8750   18.1510 N.ar  279  HIS279     -0.2268
      8  CD2       76.1400   90.0090   16.3030 C.ar  279  HIS279      0.1154
      9  CE1       76.1130   88.0070   17.2010 C.ar  279  HIS279      0.1986
     10  NE2       75.9320   88.6710   16.0730 N.ar  279  HIS279     -0.2212
     11  N         69.4260   85.4630   11.8690 N.3   288  HIS288     -0.1226
     12  CA        70.6670   85.8590   12.6080 C.3   288  HIS288      0.1752
     13  C         71.7040   84.7990   13.0020 C.2   288  HIS288      0.2596
     14  O         72.8570   85.1520   13.2880 O.2   288  HIS288     -0.2718
     15  CB        70.3950   86.7530   13.8350 C.3   288  HIS288      0.0759
     16  CG        69.5360   87.9460   13.5540 C.ar  288  HIS288      0.0818
     17  ND1       69.8070   88.8400   12.5410 N.ar  288  HIS288     -0.2268
     18  CD2       68.4180   88.4000   14.1700 C.ar  288  HIS288      0.1154
     19  CE1       68.8840   89.7840   12.5310 C.ar  288  HIS288      0.1986
     20  NE2       68.0310   89.5440   13.5130 N.ar  288  HIS288     -0.2212
     21  N         71.3300   83.5260   13.0650 N.am  289  GLU289     -0.1965
     22  CA        72.3260   82.5330   13.4740 C.3   289  GLU289      0.1733
     23  C         73.0250   81.9710   12.2310 C.2   289  GLU289      0.2616
     24  O         72.5740   82.1740   11.1050 O.2   289  GLU289     -0.2715
     25  CB        71.7020   81.4390   14.3770 C.3   289  GLU289      0.0429
     26  CG        72.6470   80.2940   14.8830 C.3   289  GLU289      0.1163
     27  CD        73.7460   80.7100   15.8940 C.2   289  GLU289      0.3649
     28  OE1       74.4380   81.7420   15.7030 O.co2 289  GLU289     -0.2457
     29  OE2       73.9520   79.9570   16.8710 O.co2 289  GLU289     -0.2457
     30  N         74.1480   81.3020   12.4520 N.am  290  GLY290     -0.1955
     31  CA        74.8810   80.6490   11.3890 C.3   290  GLY290      0.1869
     32  C         75.0960   79.2210   11.8230 C.2   290  GLY290      0.2309
     33  O         74.5070   78.7820   12.8170 O.2   290  GLY290     -0.2863
     34  N         77.7580   77.5460   13.1930 N.3   292  VAL292     -0.1245
     35  CA        78.2980   77.3580   14.5520 C.3   292  VAL292      0.1561
     36  C         78.1800   78.6300   15.3620 C.2   292  VAL292      0.2260
     37  O         78.1630   79.7140   14.7910 O.2   292  VAL292     -0.2867
     38  CB        79.8120   76.9070   14.5880 C.3   292  VAL292      0.0252
     39  CG1       79.9980   75.5190   14.0190 C.3   292  VAL292      0.0019
     40  CG2       80.7660   77.9400   13.9330 C.3   292  VAL292      0.0019
     41  N         79.8010   81.4750   17.9940 N.3   294  THR294     -0.1218
     42  CA        81.1300   82.1160   17.9980 C.3   294  THR294      0.1862
     43  C         82.2340   81.1100   18.3490 C.2   294  THR294      0.2287
     44  O         82.2000   80.4980   19.4240 O.2   294  THR294     -0.2866
     45  CB        81.1870   83.2920   19.0280 C.3   294  THR294      0.1770
     46  OG1       80.2410   84.3000   18.6560 O.3   294  THR294     -0.2211
     47  CG2       82.5780   83.9160   19.1110 C.3   294  THR294      0.0375
     48  N         84.2730   88.5020    4.4310 N.3   322  ASP322     -0.1225
     49  CA        83.2060   87.6770    5.0010 C.3   322  ASP322      0.1790
     50  C         81.8770   88.2810    4.5420 C.2   322  ASP322      0.2440
     51  O         81.4980   89.3470    4.9900 O.2   322  ASP322     -0.2733
     52  CB        83.2870   87.6010    6.5280 C.3   322  ASP322      0.1423
     53  CG        82.3070   86.5730    7.1330 C.2   322  ASP322      0.3668
     54  OD1       81.2900   86.2340    6.4910 O.co2 322  ASP322     -0.2456
     55  OD2       82.5510   86.1070    8.2730 O.co2 322  ASP322     -0.2456
     56  N         81.1760   87.6060    3.6250 N.am  323  PRO323     -0.2718
     57  CA        79.9390   88.1520    3.0790 C.3   323  PRO323      0.1535
     58  C         78.6930   87.9730    3.9600 C.2   323  PRO323      0.2598
     59  O         77.6390   88.5070    3.6190 O.2   323  PRO323     -0.2715
     60  CB        79.7810   87.3980    1.7540 C.3   323  PRO323      0.0310
     61  CG        80.4980   86.1430    1.9420 C.3   323  PRO323      0.0237
     62  CD        81.6240   86.4100    2.8950 C.3   323  PRO323      0.0939
     63  N         78.8030   87.2110    5.0460 N.am  324  ALA324     -0.1964
     64  CA        77.7670   87.1530    6.1030 C.3   324  ALA324      0.1728
     65  C         78.4920   87.2850    7.4420 C.2   324  ALA324      0.2616
     66  O         78.5930   86.3310    8.2100 O.2   324  ALA324     -0.2715
     67  CB        76.9730   85.8490    6.0270 C.3   324  ALA324      0.0334
     68  N         79.0190   88.4850    7.6780 N.am  325  ALA325     -0.1963
     69  CA        80.0040   88.7600    8.7090 C.3   325  ALA325      0.1728
     70  C         79.4810   88.5990   10.1190 C.2   325  ALA325      0.2617
     71  O         80.2400   88.2240   11.0120 O.2   325  ALA325     -0.2715
     72  CB        80.6000   90.1490    8.5210 C.3   325  ALA325      0.0334
     73  N         78.1980   88.8840   10.3180 N.am  326  GLY326     -0.1940
     74  CA        77.5810   88.7920   11.6420 C.3   326  GLY326      0.2014
     75  C         78.2130   89.7130   12.6680 C.2   326  GLY326      0.2639
     76  O         78.1800   90.9350   12.5240 O.2   326  GLY326     -0.2714
     77  N         78.8040   89.1090   13.6940 N.am  327  SER327     -0.1949
     78  CA        79.4270   89.8500   14.7850 C.3   327  SER327      0.1924
     79  C         80.8080   90.3770   14.3940 C.2   327  SER327      0.2314
     80  O         81.3420   91.2650   15.0430 O.2   327  SER327     -0.2863
     81  CB        79.5300   88.9760   16.0330 C.3   327  SER327      0.2116
     82  OG        80.3900   87.8730   15.8000 O.3   327  SER327     -0.2180
     83  N         83.4900   88.4780   14.4250 N.3   329  ASN329     -0.1225
     84  CA        84.4850   87.6730   15.1250 C.3   329  ASN329      0.1785
     85  C         85.3670   86.8590   14.2130 C.2   329  ASN329      0.2597
     86  O         86.5720   86.8350   14.3930 O.2   329  ASN329     -0.2718
     87  CB        83.8330   86.7680   16.1830 C.3   329  ASN329      0.1169
     88  CG        83.6360   87.4790   17.5180 C.2   329  ASN329      0.2627
     89  OD1       84.5710   88.0650   18.0720 O.2   329  ASN329     -0.2716
     90  ND2       82.4150   87.4190   18.0460 N.am  329  ASN329     -0.0877
     91  N         84.7700   86.1900   13.2360 N.am  330  LEU330     -0.1980
     92  CA        85.5240   85.2930   12.3850 C.3   330  LEU330      0.1596
     93  C         86.4720   86.0740   11.4620 C.2   330  LEU330      0.2287
     94  O         87.6300   85.6970   11.3190 O.2   330  LEU330     -0.2864
     95  CB        84.5850   84.3660   11.5960 C.3   330  LEU330      0.0297
     96  CG        85.2140   83.3840   10.5900 C.3   330  LEU330      0.0022
     97  CD1       85.9880   82.2750   11.3090 C.3   330  LEU330      0.0001
     98  CD2       84.1750   82.7880    9.6360 C.3   330  LEU330      0.0001
     99  N         77.0480   92.1880    5.7850 N.3   349  ASP349     -0.1225
    100  CA        75.9240   91.4310    6.3360 C.3   349  ASP349      0.1805
    101  C         74.5980   92.0820    5.9460 C.2   349  ASP349      0.2598
    102  O         74.4800   93.3010    5.9280 O.2   349  ASP349     -0.2718
    103  CB        76.0480   91.2560    7.8520 C.3   349  ASP349      0.1424
    104  CG        75.2230   90.0850    8.3760 C.2   349  ASP349      0.3668
    105  OD1       73.9770   90.1700    8.3120 O.co2 349  ASP349     -0.2456
    106  OD2       75.8090   89.0830    8.8510 O.co2 349  ASP349     -0.2456
    107  N         73.6160   91.2530    5.6040 N.am  350  ILE350     -0.1966
    108  CA        72.2630   91.7140    5.2750 C.3   350  ILE350      0.1727
    109  C         71.6260   92.5190    6.4240 C.2   350  ILE350      0.2616
    110  O         70.8480   93.4510    6.1830 O.2   350  ILE350     -0.2715
    111  CB        71.3350   90.5180    4.8520 C.3   350  ILE350      0.0290
    112  CG1       70.1040   91.0180    4.0760 C.3   350  ILE350      0.0022
    113  CG2       70.9440   89.6320    6.0620 C.3   350  ILE350      0.0023
    114  CD1       69.2630   89.8840    3.4130 C.3   350  ILE350      0.0001
    115  N         71.9620   92.1530    7.6600 N.am  351  GLU351     -0.1977
    116  CA        71.3870   92.7810    8.8350 C.3   351  GLU351      0.1602
    117  C         72.0690   94.1130    9.1070 C.2   351  GLU351      0.2287
    118  O         73.2000   94.1530    9.5820 O.2   351  GLU351     -0.2864
    119  CB        71.5090   91.8420   10.0380 C.3   351  GLU351      0.0415
    120  CG        71.0070   92.4120   11.3610 C.3   351  GLU351      0.1163
    121  CD        69.6020   92.9710   11.2650 C.2   351  GLU351      0.3649
    122  OE1       68.6470   92.1770   11.3880 O.co2 351  GLU351     -0.2457
    123  OE2       69.4630   94.2000   11.0680 O.co2 351  GLU351     -0.2457
    124  N         73.8430   95.4010   12.3220 N.3   354  PHE354     -0.1241
    125  CA        75.2450   95.0630   12.5720 C.3   354  PHE354      0.1605
    126  C         76.2380   96.0660   11.9900 C.2   354  PHE354      0.2264
    127  O         77.4310   95.8690   12.1600 O.2   354  PHE354     -0.2867
    128  CB        75.6400   93.7050   11.9880 C.3   354  PHE354      0.0534
    129  CG        74.8590   92.5410   12.5030 C.ar  354  PHE354     -0.0203
    130  CD1       74.1270   92.6130   13.6880 C.ar  354  PHE354     -0.0042
    131  CD2       74.9010   91.3310   11.8120 C.ar  354  PHE354     -0.0042
    132  CE1       73.4080   91.5050   14.1500 C.ar  354  PHE354     -0.0003
    133  CE2       74.1910   90.2190   12.2690 C.ar  354  PHE354     -0.0003
    134  CZ        73.4390   90.3090   13.4370 C.ar  354  PHE354     -0.0000
    135  N         74.4290   94.5950    2.6990 N.3   381  GLU381     -0.1231
    136  CA        73.7340   94.1170    1.5050 C.3   381  GLU381      0.1699
    137  C         73.4050   92.6410    1.5900 C.2   381  GLU381      0.2592
    138  O         74.1820   91.8530    2.1280 O.2   381  GLU381     -0.2718
    139  CB        74.6100   94.3300    0.2700 C.3   381  GLU381      0.0402
    140  CG        75.0970   95.7540    0.0700 C.3   381  GLU381      0.1161
    141  CD        74.0140   96.7040   -0.4130 C.2   381  GLU381      0.3649
    142  OE1       72.9960   96.2460   -0.9630 O.co2 381  GLU381     -0.2457
    143  OE2       74.1870   97.9290   -0.2390 O.co2 381  GLU381     -0.2457
    144  N         72.2540   92.2800    1.0320 N.am  382  ASP382     -0.1960
    145  CA        71.9230   90.8980    0.7460 C.3   382  ASP382      0.1840
    146  C         72.9700   90.4460   -0.2640 C.2   382  ASP382      0.2621
    147  O         73.2220   91.1580   -1.2450 O.2   382  ASP382     -0.2715
    148  CB        70.5210   90.8610    0.1170 C.3   382  ASP382      0.1450
    149  CG        69.9550   89.4470   -0.0510 C.2   382  ASP382      0.3671
    150  OD1       70.7060   88.4640   -0.2260 O.co2 382  ASP382     -0.2456
    151  OD2       68.7090   89.3280   -0.0260 O.co2 382  ASP382     -0.2456
    152  N         73.5960   89.2910   -0.0280 N.am  383  VAL383     -0.1977
    153  CA        74.4830   88.6880   -1.0410 C.3   383  VAL383      0.1596
    154  C         73.8320   88.5810   -2.4330 C.2   383  VAL383      0.2287
    155  O         74.5070   88.7760   -3.4410 O.2   383  VAL383     -0.2864
    156  CB        75.0520   87.3120   -0.6360 C.3   383  VAL383      0.0276
    157  CG1       76.0200   87.4660    0.5090 C.3   383  VAL383      0.0022
    158  CG2       73.9370   86.3390   -0.2770 C.3   383  VAL383      0.0022
    159  N         80.9060   81.6700    8.0050 N.3   399  ASN399     -0.1240
    160  CA        80.0960   80.7940    8.8250 C.3   399  ASN399      0.1653
    161  C         78.6610   81.0600    8.3520 C.2   399  ASN399      0.2266
    162  O         77.9810   81.9320    8.8760 O.2   399  ASN399     -0.2867
    163  CB        80.3340   81.1480   10.2980 C.3   399  ASN399      0.1155
    164  CG        79.3890   80.4550   11.2510 C.2   399  ASN399      0.2627
    165  OD1       78.7900   79.4180   10.9420 O.2   399  ASN399     -0.2716
    166  ND2       79.2580   81.0270   12.4430 N.am  399  ASN399     -0.0877
    167  N         74.6700   81.3660    7.1350 N.3   401  PRO401     -0.2116
    168  CA        73.3810   81.2590    7.8070 C.3   401  PRO401      0.1372
    169  C         72.8870   79.8260    7.7670 C.2   401  PRO401      0.2244
    170  O         73.0230   79.1560    6.7500 O.2   401  PRO401     -0.2868
    171  CB        72.4540   82.1460    6.9590 C.3   401  PRO401      0.0268
    172  CG        73.2090   82.4710    5.7230 C.3   401  PRO401      0.0207
    173  CD        74.6500   82.4170    6.1020 C.3   401  PRO401      0.0892
    174  N         63.2570   82.3390    0.4810 N.3   411  ILE411     -0.1245
    175  CA        64.7090   82.4450    0.5980 C.3   411  ILE411      0.1561
    176  C         65.3950   81.5240   -0.4270 C.2   411  ILE411      0.2260
    177  O         66.3200   81.9420   -1.1380 O.2   411  ILE411     -0.2867
    178  CB        65.1820   82.1220    2.0510 C.3   411  ILE411      0.0252
    179  CG1       64.6840   83.1810    3.0500 C.3   411  ILE411      0.0019
    180  CG2       66.7000   81.9650    2.1340 C.3   411  ILE411      0.0019
    181  CD1       64.8800   84.6480    2.6020 C.3   411  ILE411      0.0001
    182  N         65.0230   82.9810   -3.9120 N.3   414  LYS414     -0.1231
    183  CA        65.8270   84.1770   -4.1260 C.3   414  LYS414      0.1693
    184  C         67.2770   83.8170   -4.4820 C.2   414  LYS414      0.2592
    185  O         67.8390   84.4130   -5.3960 O.2   414  LYS414     -0.2718
    186  CB        65.7350   85.0900   -2.9060 C.3   414  LYS414      0.0285
    187  CG        66.5750   86.3490   -2.9660 C.3   414  LYS414      0.0035
    188  CD        66.5960   87.0560   -1.6010 C.3   414  LYS414      0.0206
    189  CE        67.2890   86.2240   -0.5240 C.3   414  LYS414      0.1093
    190  NZ        67.5020   86.9930    0.7470 N.3   414  LYS414     -0.1314
    191  N         67.8500   82.8360   -3.7770 N.am  415  PHE415     -0.1976
    192  CA        69.1880   82.3020   -4.0710 C.3   415  PHE415      0.1639
    193  C         69.2780   81.5330   -5.4000 C.2   415  PHE415      0.2290
    194  O         70.2430   81.7080   -6.1740 O.2   415  PHE415     -0.2864
    195  CB        69.6750   81.4020   -2.9330 C.3   415  PHE415      0.0560
    196  CG        70.3070   82.1490   -1.7860 C.ar  415  PHE415     -0.0200
    197  CD1       69.5780   82.4330   -0.6290 C.ar  415  PHE415     -0.0042
    198  CD2       71.6350   82.5520   -1.8490 C.ar  415  PHE415     -0.0042
    199  CE1       70.1590   83.1150    0.4240 C.ar  415  PHE415     -0.0003
    200  CE2       72.2250   83.2350   -0.7860 C.ar  415  PHE415     -0.0003
    201  CZ        71.4850   83.5150    0.3480 C.ar  415  PHE415     -0.0000
    202  N         69.8190   76.4140    3.3520 N.3   436  VAL436     -0.1245
    203  CA        70.2910   77.7210    2.8700 C.3   436  VAL436      0.1561
    204  C         71.8140   77.8600    2.8630 C.2   436  VAL436      0.2260
    205  O         72.3660   78.5700    2.0150 O.2   436  VAL436     -0.2867
    206  CB        69.6600   78.9420    3.6140 C.3   436  VAL436      0.0252
    207  CG1       70.0820   79.0030    5.0720 C.3   436  VAL436      0.0019
    208  CG2       70.0570   80.2480    2.9060 C.3   436  VAL436      0.0019
    209  N         74.0140   79.4170   -0.1710 N.3   440  PHE440     -0.1241
    210  CA        74.8370   80.5780    0.1250 C.3   440  PHE440      0.1605
    211  C         76.2760   80.3360   -0.3330 C.2   440  PHE440      0.2264
    212  O         76.8590   81.1750   -1.0160 O.2   440  PHE440     -0.2867
    213  CB        74.8000   80.8910    1.6280 C.3   440  PHE440      0.0534
    214  CG        75.3390   82.2590    1.9970 C.ar  440  PHE440     -0.0203
    215  CD1       74.4710   83.2840    2.3690 C.ar  440  PHE440     -0.0042
    216  CD2       76.7040   82.5150    2.0090 C.ar  440  PHE440     -0.0042
    217  CE1       74.9570   84.5470    2.7160 C.ar  440  PHE440     -0.0003
    218  CE2       77.2010   83.7820    2.3610 C.ar  440  PHE440     -0.0003
    219  CZ        76.3280   84.7930    2.7030 C.ar  440  PHE440     -0.0000
@<TRIPOS>BOND
     1   194   193    2
     2   193   192    1
     3   185   184    2
     4   184   183    1
     5   184   191   am
     6   183   182    1
     7   183   186    1
     8   192   191    1
     9   192   195    1
    10   155   154    2
    11   187   186    1
    12   187   188    1
    13   195   196    1
    14   154   153    1
    15   198   196   ar
    16   198   200   ar
    17   196   197   ar
    18   188   189    1
    19   147   146    2
    20   177   176    2
    21   153   156    1
    22   153   152    1
    23   212   211    2
    24   142   141   ar
    25   200   201   ar
    26   156   158    1
    27   156   157    1
    28   197   199   ar
    29   189   190    1
    30   176   175    1
    31   141   143   ar
    32   141   140    1
    33   211   210    1
    34   146   152   am
    35   146   145    1
    36   150   149   ar
    37   209   210    1
    38   149   151   ar
    39   149   148    1
    40   140   139    1
    41   148   145    1
    42   210   213    1
    43   139   136    1
    44   201   199   ar
    45   174   175    1
    46   175   178    1
    47   145   144    1
    48   144   137   am
    49   136   137    1
    50   136   135    1
    51   137   138    2
    52   213   214    1
    53    60    61    1
    54    60    57    1
    55    61    62    1
    56   214   216   ar
    57   214   215   ar
    58   216   218   ar
    59   205   204    2
    60   178   180    1
    61   178   179    1
    62   218   219   ar
    63   215   217   ar
    64   181   179    1
    65   219   217   ar
    66   204   203    1
    67   203   202    1
    68   203   206    1
    69    62    56    1
    70   208   206    1
    71    57    56    1
    72    57    58    1
    73   114   112    1
    74   206   207    1
    75    59    58    2
    76    56    50   am
    77    58    63   am
    78   112   111    1
    79    48    49    1
    80    50    51    2
    81    50    49    1
    82   111   108    1
    83   111   113    1
    84    49    52    1
    85    63    64    1
    86   108   107    1
    87   108   109    1
    88   107   101   am
    89   172   173    1
    90   172   171    1
    91    99   100    1
    92   102   101    2
    93   101   100    1
    94    67    64    1
    95   173   167    1
    96    64    65    1
    97   110   109    2
    98   100   103    1
    99   109   115   am
   100    54    53   ar
   101    52    53    1
   102   170   169    2
   103   171   168    1
   104    53    55   ar
   105   167   168    1
   106    65    68   am
   107    65    66    2
   108   115   116    1
   109    68    69    1
   110   169   168    1
   111   103   104    1
   112   159   160    1
   113   105   104   ar
   114   161   160    1
   115   161   162    2
   116   104   106   ar
   117    72    69    1
   118    69    70    1
   119   160   163    1
   120   116   117    1
   121   116   119    1
   122   117   118    2
   123    98    96    1
   124   119   120    1
   125    70    73   am
   126    70    71    2
   127   163   164    1
   128    73    74    1
   129    96    97    1
   130    96    95    1
   131   165   164    2
   132   123   121   ar
   133    24    23    2
   134   164   166   am
   135   121   120    1
   136   121   122   ar
   137    94    93    2
   138    31    32    1
   139    31    30    1
   140    93    92    1
   141    95    92    1
   142    74    75    1
   143   131   133   ar
   144   131   129   ar
   145    32    33    2
   146    11    12    1
   147   128   129    1
   148   128   125    1
   149   126   127    2
   150   126   125    1
   151    23    30   am
   152    23    22    1
   153   133   134   ar
   154   124   125    1
   155    92    91    1
   156   129   130   ar
   157    76    75    2
   158    19    17   ar
   159    19    20   ar
   160    17    16   ar
   161    12    13    1
   162    12    15    1
   163    75    77   am
   164    13    21   am
   165    13    14    2
   166    21    22    1
   167    34    35    1
   168    91    85   am
   169   134   132   ar
   170    22    25    1
   171    20    18   ar
   172    16    15    1
   173    16    18   ar
   174   130   132   ar
   175    77    78    1
   176    40    38    1
   177    39    38    1
   178    85    86    2
   179    85    84    1
   180    25    26    1
   181    79    78    1
   182    79    80    2
   183    83    84    1
   184    35    38    1
   185    35    36    1
   186    78    81    1
   187    37    36    2
   188    26    27    1
   189    84    87    1
   190    28    27   ar
   191    82    81    1
   192    27    29   ar
   193    10     8   ar
   194    10     9   ar
   195    87    88    1
   196     8     6   ar
   197     9     7   ar
   198    88    90   am
   199    88    89    2
   200     6     7   ar
   201     6     5    1
   202    41    42    1
   203    42    43    1
   204    42    45    1
   205    43    44    2
   206     5     2    1
   207    46    45    1
   208     2     1    1
   209     2     3    1
   210     4     3    2
   211    45    47    1
