@<TRIPOS>MOLECULE
tmp/3s1uC00.pdb
 126 116 0 0 0
SMALL
GASTEIGER

@<TRIPOS>ATOM
      1  N         -9.9930   -7.3110   13.7040 N.3     6  ASP6       -0.1239
      2  CA       -10.7730   -6.9840   14.9010 C.3     6  ASP6        0.1674
      3  C        -10.5070   -5.5270   15.2570 C.2     6  ASP6        0.2266
      4  O         -9.6360   -5.2270   16.0650 O.2     6  ASP6       -0.2867
      5  CB       -10.3500   -7.9210   16.0390 C.3     6  ASP6        0.1410
      6  CG       -11.2750   -7.8580   17.2520 C.2     6  ASP6        0.3668
      7  OD1      -10.7910   -8.1780   18.3490 O.co2   6  ASP6       -0.2456
      8  OD2      -12.4680   -7.5260   17.1200 O.co2   6  ASP6       -0.2456
      9  N        -14.5430   -7.5650   12.4930 N.3    26  THR26      -0.1218
     10  CA       -15.4110   -7.6460   13.6530 C.3    26  THR26       0.1862
     11  C        -15.2810   -6.3640   14.4540 C.2    26  THR26       0.2287
     12  O        -14.1840   -5.8380   14.6380 O.2    26  THR26      -0.2866
     13  CB       -15.0710   -8.8740   14.5430 C.3    26  THR26       0.1770
     14  OG1      -13.7120   -8.7820   14.9830 O.3    26  THR26      -0.2211
     15  CG2      -15.2440  -10.1740   13.7440 C.3    26  THR26       0.0375
     16  N        -16.9850   -4.1560   18.0430 N.3    28  ASN28      -0.1240
     17  CA       -17.8290   -4.2580   19.2270 C.3    28  ASN28       0.1653
     18  C        -17.9970   -2.8330   19.7630 C.2    28  ASN28       0.2266
     19  O        -17.3850   -1.9090   19.2390 O.2    28  ASN28      -0.2867
     20  CB       -17.2340   -5.2400   20.2500 C.3    28  ASN28       0.1155
     21  CG       -15.8930   -4.7830   20.8000 C.2    28  ASN28       0.2627
     22  OD1      -15.7280   -3.6240   21.1780 O.2    28  ASN28      -0.2716
     23  ND2      -14.9310   -5.7040   20.8620 N.am   28  ASN28      -0.0877
     24  N        -16.9250   -1.2190   22.3180 N.3    30  THR30      -0.1203
     25  CA       -15.6660   -0.6250   22.7540 C.3    30  THR30       0.1994
     26  C        -14.8100   -0.1310   21.5780 C.2    30  THR30       0.2617
     27  O        -14.3770    1.0280   21.5460 O.2    30  THR30      -0.2717
     28  CB       -14.8710   -1.6290   23.6260 C.3    30  THR30       0.1784
     29  OG1      -15.6160   -1.9020   24.8150 O.3    30  THR30      -0.2211
     30  CG2      -13.5160   -1.0570   24.0170 C.3    30  THR30       0.0376
     31  N        -14.5790   -1.0070   20.6020 N.am   31  LEU31      -0.1979
     32  CA       -13.7700   -0.6490   19.4410 C.3    31  LEU31       0.1596
     33  C        -14.3520    0.5610   18.7140 C.2    31  LEU31       0.2287
     34  O        -13.6170    1.4320   18.2510 O.2    31  LEU31      -0.2864
     35  CB       -13.6750   -1.8280   18.4700 C.3    31  LEU31       0.0297
     36  CG       -12.8860   -3.0160   19.0300 C.3    31  LEU31       0.0022
     37  CD1      -13.0080   -4.2490   18.1380 C.3    31  LEU31       0.0001
     38  CD2      -11.4230   -2.6300   19.2460 C.3    31  LEU31       0.0001
     39  N        -24.1210   -9.0240   15.9050 N.3    86  LYS86      -0.1245
     40  CA       -23.4540   -9.5940   17.0660 C.3    86  LYS86       0.1561
     41  C        -24.3540   -9.4450   18.2840 C.2    86  LYS86       0.2260
     42  O        -24.8910   -8.3630   18.5470 O.2    86  LYS86      -0.2867
     43  CB       -22.1120   -8.9010   17.2780 C.3    86  LYS86       0.0271
     44  CG       -21.3240   -9.4370   18.4350 C.3    86  LYS86       0.0035
     45  CD       -20.0280   -8.6660   18.5930 C.3    86  LYS86       0.0206
     46  CE       -18.9700   -9.1400   17.6360 C.3    86  LYS86       0.1093
     47  NZ       -17.6310   -8.6890   18.1180 N.3    86  LYS86      -0.1314
     48  N        -21.4160  -13.3840   20.9560 N.3   110  THR110     -0.1218
     49  CA       -20.1480  -12.9460   21.5240 C.3   110  THR110      0.1862
     50  C        -20.0990  -13.0690   23.0460 C.2   110  THR110      0.2287
     51  O        -21.0810  -13.4640   23.6820 O.2   110  THR110     -0.2866
     52  CB       -19.8140  -11.4990   21.0820 C.3   110  THR110      0.1770
     53  OG1      -18.4640  -11.1930   21.4420 O.3   110  THR110     -0.2211
     54  CG2      -20.7660  -10.4950   21.7380 C.3   110  THR110      0.0375
     55  N        -18.2320  -16.5290   19.0810 N.3   130  SER130     -0.1217
     56  CA       -16.9510  -15.8680   19.3330 C.3   130  SER130      0.1889
     57  C        -16.4400  -16.0510   20.7540 C.2   130  SER130      0.2288
     58  O        -16.7390  -15.2370   21.6300 O.2   130  SER130     -0.2866
     59  CB       -17.0540  -14.3660   19.0470 C.3   130  SER130      0.2089
     60  OG       -17.2510  -14.1240   17.6680 O.3   130  SER130     -0.2183
     61  N        -13.6170  -15.8610   23.6650 N.3   132  PHE132     -0.1241
     62  CA       -12.5950  -14.8450   23.9350 C.3   132  PHE132      0.1605
     63  C        -11.3570  -15.4520   24.5820 C.2   132  PHE132      0.2264
     64  O        -11.2580  -15.4990   25.8170 O.2   132  PHE132     -0.2867
     65  CB       -13.1300  -13.7980   24.9180 C.3   132  PHE132      0.0534
     66  CG       -14.0240  -12.7510   24.2930 C.ar  132  PHE132     -0.0203
     67  CD1      -14.0800  -11.4760   24.8300 C.ar  132  PHE132     -0.0042
     68  CD2      -14.8070  -13.0440   23.1840 C.ar  132  PHE132     -0.0042
     69  CE1      -14.8980  -10.5060   24.2850 C.ar  132  PHE132     -0.0003
     70  CE2      -15.6340  -12.0780   22.6210 C.ar  132  PHE132     -0.0003
     71  CZ       -15.6750  -10.8040   23.1670 C.ar  132  PHE132     -0.0000
     72  N         -8.9950  -13.1350   27.0870 N.3   135  ARG135     -0.1245
     73  CA        -9.5910  -12.8160   28.3840 C.3   135  ARG135      0.1563
     74  C         -9.5920  -14.0180   29.3160 C.2   135  ARG135      0.2260
     75  O         -9.5810  -13.8760   30.5420 O.2   135  ARG135     -0.2867
     76  CB       -11.0040  -12.2410   28.1990 C.3   135  ARG135      0.0307
     77  CG       -10.9920  -10.9230   27.4040 C.3   135  ARG135      0.0489
     78  CD       -12.2580  -10.0950   27.6410 C.3   135  ARG135      0.2205
     79  NE       -12.3020   -8.9140   26.7840 N.pl3 135  ARG135     -0.0865
     80  CZ       -13.3490   -8.0980   26.6970 C.cat 135  ARG135      0.5346
     81  NH1      -14.4340   -8.3470   27.4140 N.pl3 135  ARG135      0.1354
     82  NH2      -13.3130   -7.0400   25.8900 N.pl3 135  ARG135      0.1354
     83  N        -11.8400  -15.1310   19.0720 N.3   166  ALA166     -0.1231
     84  CA       -11.7400  -13.7020   19.3360 C.3   166  ALA166      0.1694
     85  C        -10.8510  -13.4220   20.5510 C.2   166  ALA166      0.2593
     86  O        -10.3010  -14.3500   21.1510 O.2   166  ALA166     -0.2718
     87  CB       -13.1180  -13.1000   19.5230 C.3   166  ALA166      0.0304
     88  N        -10.7100  -12.1410   20.8890 N.am  167  SER167     -0.1938
     89  CA        -9.7880  -11.7170   21.9380 C.3   167  SER167      0.2055
     90  C         -8.4170  -12.3380   21.6960 C.2   167  SER167      0.2643
     91  O         -7.8050  -12.9090   22.5930 O.2   167  SER167     -0.2714
     92  CB       -10.3270  -12.1040   23.3250 C.3   167  SER167      0.2130
     93  OG        -9.5570  -11.5040   24.3600 O.3   167  SER167     -0.2179
     94  N         -7.9420  -12.2390   20.4570 N.am  168  ILE168     -0.1963
     95  CA        -6.6310  -12.7610   20.1170 C.3   168  ILE168      0.1727
     96  C         -5.5510  -11.7400   20.4430 C.2   168  ILE168      0.2616
     97  O         -5.6790  -10.5440   20.1190 O.2   168  ILE168     -0.2715
     98  CB        -6.5890  -13.1830   18.6390 C.3   168  ILE168      0.0290
     99  CG1       -7.3100  -14.5280   18.4880 C.3   168  ILE168      0.0022
    100  CG2       -5.1400  -13.2660   18.1250 C.3   168  ILE168      0.0023
    101  CD1       -7.4150  -15.0000   17.0570 C.3   168  ILE168      0.0001
    102  N         -4.4860  -12.2080   21.0870 N.am  169  ARG169     -0.1977
    103  CA        -3.4580  -11.3080   21.6280 C.3   169  ARG169      0.1597
    104  C         -2.1060  -11.4830   20.9510 C.2   169  ARG169      0.2287
    105  O         -1.2580  -10.6050   21.0280 O.2   169  ARG169     -0.2864
    106  CB        -3.2880  -11.5410   23.1410 C.3   169  ARG169      0.0334
    107  CG        -4.5760  -11.4150   23.9380 C.3   169  ARG169      0.0492
    108  CD        -5.0130   -9.9500   24.0880 C.3   169  ARG169      0.2205
    109  NE        -6.2590   -9.8470   24.8570 N.pl3 169  ARG169     -0.0865
    110  CZ        -6.3300   -9.9600   26.1810 C.cat 169  ARG169      0.5346
    111  NH1       -5.2300  -10.1700   26.8820 N.pl3 169  ARG169      0.1354
    112  NH2       -7.5020   -9.8510   26.8090 N.pl3 169  ARG169      0.1354
    113  N        -10.2670  -13.6990   14.4050 N.3   186  THR186     -0.1218
    114  CA       -10.2910  -12.2550   14.2220 C.3   186  THR186      0.1862
    115  C         -9.1640  -11.6540   15.0560 C.2   186  THR186      0.2287
    116  O         -9.0060  -11.9730   16.2360 O.2   186  THR186     -0.2866
    117  CB       -11.6730  -11.6180   14.5430 C.3   186  THR186      0.1770
    118  OG1      -11.6780  -10.2400   14.1310 O.3   186  THR186     -0.2211
    119  CG2      -12.0260  -11.7110   16.0530 C.3   186  THR186      0.0375
    120  N         -6.3600   -8.2520   16.0080 N.3   188  PRO188     -0.2116
    121  CA        -6.0250   -6.8290   15.9840 C.3   188  PRO188      0.1372
    122  C         -5.0130   -6.5690   14.8790 C.2   188  PRO188      0.2244
    123  O         -4.2950   -7.4860   14.4690 O.2   188  PRO188     -0.2868
    124  CB        -5.3700   -6.5810   17.3550 C.3   188  PRO188      0.0268
    125  CG        -5.7010   -7.7660   18.1860 C.3   188  PRO188      0.0207
    126  CD        -5.8830   -8.9150   17.2360 C.3   188  PRO188      0.0892
@<TRIPOS>BOND
     1     9    10    1
     2    10    11    1
     3    10    13    1
     4     1     2    1
     5    15    13    1
     6   118   117    1
     7   114   113    1
     8   114   117    1
     9   114   115    1
    10    11    12    2
    11   123   122    2
    12    13    14    1
    13   117   119    1
    14   122   121    1
    15     2     3    1
    16     2     5    1
    17   115   116    2
    18     3     4    2
    19    39    40    1
    20   121   120    1
    21   121   124    1
    22   120   126    1
    23     5     6    1
    24   101    99    1
    25    40    43    1
    26    40    41    1
    27     8     6   ar
    28   126   125    1
    29     6     7   ar
    30    43    44    1
    31   124   125    1
    32    46    47    1
    33    46    45    1
    34    60    59    1
    35    16    17    1
    36   100    98    1
    37    37    36    1
    38    34    33    2
    39    41    42    2
    40    44    45    1
    41    35    36    1
    42    35    32    1
    43    99    98    1
    44    98    95    1
    45    33    32    1
    46    36    38    1
    47    59    56    1
    48    83    84    1
    49    55    56    1
    50    17    18    1
    51    17    20    1
    52    19    18    2
    53    56    57    1
    54    84    87    1
    55    84    85    1
    56    32    31    1
    57    95    96    1
    58    95    94    1
    59    97    96    2
    60    20    21    1
    61    96   102   am
    62    94    90   am
    63    85    88   am
    64    85    86    2
    65    31    26   am
    66    57    58    2
    67    21    23   am
    68    21    22    2
    69    88    89    1
    70   104   105    2
    71   104   103    1
    72    48    49    1
    73    52    53    1
    74    52    49    1
    75    52    54    1
    76   102   103    1
    77    49    50    1
    78    27    26    2
    79    26    25    1
    80   103   106    1
    81    90    89    1
    82    90    91    2
    83    89    92    1
    84    24    25    1
    85    70    71   ar
    86    70    68   ar
    87    25    28    1
    88    50    51    2
    89   106   107    1
    90    71    69   ar
    91    68    66   ar
    92    92    93    1
    93    28    30    1
    94    28    29    1
    95    61    62    1
    96    62    63    1
    97    62    65    1
    98   107   108    1
    99   108   109    1
   100    69    67   ar
   101    66    67   ar
   102    66    65    1
   103    63    64    2
   104   109   110    2
   105    82    80    1
   106   110   112    1
   107   110   111    1
   108    80    79    2
   109    80    81    1
   110    79    78    1
   111    72    73    1
   112    77    78    1
   113    77    76    1
   114    76    73    1
   115    73    74    1
   116    74    75    2
