@<TRIPOS>MOLECULE
tmp/3s1vD00.pdb
 137 126 0 0 0
SMALL
GASTEIGER

@<TRIPOS>ATOM
      1  N        -35.3310  -32.1830   33.3790 N.3     6  ASP6       -0.1239
      2  CA       -35.6020  -33.3340   34.2430 C.3     6  ASP6        0.1674
      3  C        -36.4060  -32.8990   35.4670 C.2     6  ASP6        0.2266
      4  O        -35.8360  -32.6190   36.5230 O.2     6  ASP6       -0.2867
      5  CB       -34.2550  -33.9570   34.6780 C.3     6  ASP6        0.1410
      6  CG       -34.4010  -35.3720   35.2390 C.2     6  ASP6        0.3668
      7  OD1      -35.4570  -36.0100   35.0350 O.co2   6  ASP6       -0.2456
      8  OD2      -33.4500  -35.8390   35.8910 O.co2   6  ASP6       -0.2456
      9  N        -38.0550  -35.0150   30.8250 N.3    26  THR26      -0.1203
     10  CA       -38.0990  -36.3760   31.3620 C.3    26  THR26       0.1994
     11  C        -38.7230  -36.3060   32.7440 C.2    26  THR26       0.2619
     12  O        -38.4340  -35.3790   33.5100 O.2    26  THR26      -0.2717
     13  CB       -36.7020  -37.0370   31.4620 C.3    26  THR26       0.1784
     14  OG1      -35.8110  -36.2010   32.2160 O.3    26  THR26      -0.2211
     15  CG2      -36.1050  -37.2730   30.0640 C.3    26  THR26       0.0376
     16  N        -39.5870  -37.2660   33.0610 N.am   27  THR27      -0.1938
     17  CA       -40.1140  -37.3710   34.4220 C.3    27  THR27       0.2028
     18  C        -39.8800  -38.7830   34.9220 C.2    27  THR27       0.2642
     19  O        -39.4210  -39.6500   34.1760 O.2    27  THR27      -0.2714
     20  CB       -41.6210  -37.0770   34.5160 C.3    27  THR27       0.1808
     21  OG1      -42.3490  -38.1530   33.9170 O.3    27  THR27      -0.2208
     22  CG2      -41.9590  -35.7480   33.8360 C.3    27  THR27       0.0379
     23  N        -40.1700  -39.0050   36.2000 N.am   28  ASN28      -0.1971
     24  CA       -40.1220  -40.3440   36.7490 C.3    28  ASN28       0.1688
     25  C        -41.0510  -40.3440   37.9570 C.2    28  ASN28       0.2292
     26  O        -41.5450  -39.2820   38.3570 O.2    28  ASN28      -0.2864
     27  CB       -38.6720  -40.7450   37.1000 C.3    28  ASN28       0.1181
     28  CG       -38.1030  -39.9390   38.2710 C.2    28  ASN28       0.2629
     29  OD1      -38.8190  -39.6150   39.2060 O.2    28  ASN28      -0.2716
     30  ND2      -36.8160  -39.6220   38.2110 N.am   28  ASN28      -0.0877
     31  N        -40.3100  -37.6990   40.7650 N.3    31  LEU31      -0.1245
     32  CA       -40.5560  -36.3140   40.3620 C.3    31  LEU31       0.1561
     33  C        -42.0480  -35.9700   40.2840 C.2    31  LEU31       0.2260
     34  O        -42.4620  -34.8670   40.6600 O.2    31  LEU31      -0.2867
     35  CB       -39.8730  -36.0200   39.0150 C.3    31  LEU31       0.0270
     36  CG       -38.3540  -36.2150   38.9930 C.3    31  LEU31       0.0019
     37  CD1      -37.7940  -36.1910   37.5430 C.3    31  LEU31       0.0001
     38  CD2      -37.6960  -35.1270   39.8780 C.3    31  LEU31       0.0001
     39  N        -42.9420  -42.5270   32.9560 N.3    60  GLU60      -0.1245
     40  CA       -42.5530  -43.8870   33.3510 C.3    60  GLU60       0.1567
     41  C        -43.7460  -44.7440   33.7530 C.2    60  GLU60       0.2260
     42  O        -44.6140  -44.2980   34.5140 O.2    60  GLU60      -0.2867
     43  CB       -41.5290  -43.8670   34.5090 C.3    60  GLU60       0.0388
     44  CG       -40.9750  -45.2440   34.8820 C.3    60  GLU60       0.1160
     45  CD       -39.6110  -45.1770   35.6000 C.2    60  GLU60       0.3649
     46  OE1      -38.9910  -44.0980   35.6110 O.co2  60  GLU60      -0.2457
     47  OE2      -39.1770  -46.2220   36.1580 O.co2  60  GLU60      -0.2457
     48  N        -41.2790  -44.5590   29.4760 N.3    86  LYS86      -0.1245
     49  CA       -40.0330  -44.8290   30.1680 C.3    86  LYS86       0.1561
     50  C        -40.2270  -46.1590   30.8600 C.2    86  LYS86       0.2260
     51  O        -41.2080  -46.3410   31.5790 O.2    86  LYS86      -0.2867
     52  CB       -39.7270  -43.7080   31.1710 C.3    86  LYS86       0.0271
     53  CG       -38.3500  -43.7020   31.6890 C.3    86  LYS86       0.0035
     54  CD       -38.1680  -42.6000   32.7290 C.3    86  LYS86       0.0206
     55  CE       -37.3580  -41.4440   32.1880 C.3    86  LYS86       0.1093
     56  NZ       -36.8070  -40.6620   33.3420 N.3    86  LYS86      -0.1314
     57  N        -38.0170  -45.3130   26.3570 N.3   108  ASN108     -0.1240
     58  CA       -36.8130  -44.8130   27.0120 C.3   108  ASN108      0.1653
     59  C        -36.4890  -45.8010   28.1180 C.2   108  ASN108      0.2266
     60  O        -37.3010  -45.9920   29.0360 O.2   108  ASN108     -0.2867
     61  CB       -37.1340  -43.4250   27.6000 C.3   108  ASN108      0.1155
     62  CG       -35.9830  -42.8240   28.3990 C.2   108  ASN108      0.2627
     63  OD1      -34.9320  -43.4270   28.5500 O.2   108  ASN108     -0.2716
     64  ND2      -36.1730  -41.5940   28.8620 N.am  108  ASN108     -0.0877
     65  N        -34.6970  -46.9310   31.3770 N.3   110  THR110     -0.1218
     66  CA       -34.1670  -46.1430   32.4570 C.3   110  THR110      0.1862
     67  C        -33.5290  -47.0650   33.5100 C.2   110  THR110      0.2287
     68  O        -33.6110  -48.2670   33.3830 O.2   110  THR110     -0.2866
     69  CB       -35.2780  -45.2350   33.0330 C.3   110  THR110      0.1770
     70  OG1      -34.7110  -44.2810   33.9290 O.3   110  THR110     -0.2211
     71  CG2      -36.3690  -46.0610   33.7380 C.3   110  THR110      0.0375
     72  N        -31.1370  -44.3590   29.1560 N.3   130  SER130     -0.1217
     73  CA       -30.7910  -43.3210   30.1370 C.3   130  SER130      0.1889
     74  C        -29.9040  -43.8600   31.2700 C.2   130  SER130      0.2288
     75  O        -30.4240  -44.3330   32.2860 O.2   130  SER130     -0.2866
     76  CB       -32.0630  -42.7250   30.7830 C.3   130  SER130      0.2089
     77  OG       -32.8840  -42.0630   29.8250 O.3   130  SER130     -0.2183
     78  N        -27.4900  -43.3900   34.4800 N.3   132  PHE132     -0.1241
     79  CA       -27.6750  -42.4570   35.5990 C.3   132  PHE132      0.1605
     80  C        -26.3210  -42.0380   36.1850 C.2   132  PHE132      0.2264
     81  O        -25.8440  -42.6600   37.1390 O.2   132  PHE132     -0.2867
     82  CB       -28.4740  -43.1170   36.7380 C.3   132  PHE132      0.0534
     83  CG       -29.9730  -43.0930   36.5570 C.ar  132  PHE132     -0.0203
     84  CD1      -30.8010  -42.9710   37.6590 C.ar  132  PHE132     -0.0042
     85  CD2      -30.5550  -43.2270   35.2930 C.ar  132  PHE132     -0.0042
     86  CE1      -32.1810  -42.9630   37.5320 C.ar  132  PHE132     -0.0003
     87  CE2      -31.9260  -43.2190   35.1520 C.ar  132  PHE132     -0.0003
     88  CZ       -32.7500  -43.0810   36.2670 C.ar  132  PHE132     -0.0000
     89  N        -25.9440  -41.0080   40.1310 N.3   135  ARG135     -0.1245
     90  CA       -26.0970  -42.1160   41.0910 C.3   135  ARG135      0.1563
     91  C        -24.8660  -43.0270   41.1240 C.2   135  ARG135      0.2260
     92  O        -24.5940  -43.6570   42.1410 O.2   135  ARG135     -0.2867
     93  CB       -27.3490  -42.9360   40.8210 C.3   135  ARG135      0.0307
     94  CG       -28.6250  -42.1210   40.9740 C.3   135  ARG135      0.0489
     95  CD       -29.8370  -43.0290   41.1090 C.3   135  ARG135      0.2205
     96  NE       -31.0570  -42.2280   41.0740 N.pl3 135  ARG135     -0.0865
     97  CZ       -32.2900  -42.7190   41.2400 C.cat 135  ARG135      0.5346
     98  NH1      -32.4790  -44.0150   41.4820 N.pl3 135  ARG135      0.1354
     99  NH2      -33.3300  -41.8950   41.1890 N.pl3 135  ARG135      0.1354
    100  N        -29.1430  -40.8460   26.3650 N.3   164  LEU164     -0.1245
    101  CA       -29.8400  -39.7620   27.0550 C.3   164  LEU164      0.1561
    102  C        -29.2380  -39.7490   28.4470 C.2   164  LEU164      0.2260
    103  O        -29.6200  -40.5440   29.2980 O.2   164  LEU164     -0.2867
    104  CB       -31.3660  -40.0280   27.1050 C.3   164  LEU164      0.0270
    105  CG       -32.3350  -38.9060   27.5420 C.3   164  LEU164      0.0019
    106  CD1      -33.8030  -39.3160   27.4640 C.3   164  LEU164      0.0001
    107  CD2      -32.0130  -38.4830   28.9550 C.3   164  LEU164      0.0001
    108  N        -28.6460  -39.0910   32.1280 N.3   166  ALA166     -0.1231
    109  CA       -29.6210  -38.6940   33.1400 C.3   166  ALA166      0.1694
    110  C        -28.9510  -38.7010   34.5100 C.2   166  ALA166      0.2593
    111  O        -27.7550  -38.9930   34.6150 O.2   166  ALA166     -0.2718
    112  CB       -30.7980  -39.6580   33.1180 C.3   166  ALA166      0.0304
    113  N        -29.7200  -38.3690   35.5450 N.am  167  SER167     -0.1938
    114  CA       -29.1450  -38.1800   36.8740 C.3   167  SER167      0.2055
    115  C        -27.9910  -37.1870   36.8090 C.2   167  SER167      0.2643
    116  O        -26.9340  -37.3950   37.4170 O.2   167  SER167     -0.2714
    117  CB       -28.6600  -39.5250   37.4400 C.3   167  SER167      0.2130
    118  OG       -28.4620  -39.4200   38.8400 O.3   167  SER167     -0.2179
    119  N        -28.1950  -36.0910   36.0740 N.am  168  ILE168     -0.1963
    120  CA       -27.1760  -35.0550   35.9490 C.3   168  ILE168      0.1727
    121  C        -27.2090  -34.1330   37.1620 C.2   168  ILE168      0.2616
    122  O        -28.2800  -33.7360   37.6080 O.2   168  ILE168     -0.2715
    123  CB       -27.3610  -34.2820   34.6140 C.3   168  ILE168      0.0290
    124  CG1      -26.9490  -35.2120   33.4670 C.3   168  ILE168      0.0022
    125  CG2      -26.5880  -32.9270   34.6180 C.3   168  ILE168      0.0023
    126  CD1      -26.9360  -34.5690   32.1290 C.3   168  ILE168      0.0001
    127  N        -26.0290  -33.8170   37.6980 N.am  169  ARG169     -0.1977
    128  CA       -25.9320  -33.0460   38.9510 C.3   169  ARG169      0.1597
    129  C        -25.2060  -31.7190   38.8250 C.2   169  ARG169      0.2287
    130  O        -25.3270  -30.8610   39.7070 O.2   169  ARG169     -0.2864
    131  CB       -25.2190  -33.8720   40.0380 C.3   169  ARG169      0.0334
    132  CG       -25.7980  -35.2500   40.2430 C.3   169  ARG169      0.0492
    133  CD       -27.1310  -35.2420   40.9790 C.3   169  ARG169      0.2205
    134  NE       -27.6490  -36.6060   41.1230 N.pl3 169  ARG169     -0.0865
    135  CZ       -27.2400  -37.4730   42.0520 C.cat 169  ARG169      0.5346
    136  NH1      -26.2840  -37.1440   42.9000 N.pl3 169  ARG169      0.1354
    137  NH2      -27.7540  -38.6940   42.0990 N.pl3 169  ARG169      0.1354
@<TRIPOS>BOND
     1    57    58    1
     2   100   101    1
     3    58    61    1
     4    58    59    1
     5   101   104    1
     6   101   102    1
     7   104   105    1
     8   106   105    1
     9   105   107    1
    10    61    62    1
    11    59    60    2
    12    62    63    2
    13    62    64   am
    14   102   103    2
    15    72    73    1
    16    48    49    1
    17    77    76    1
    18    15    13    1
    19    73    76    1
    20    73    74    1
    21    49    50    1
    22    49    52    1
    23     9    10    1
    24    50    51    2
    25    52    53    1
    26    74    75    2
    27    10    13    1
    28    10    11    1
    29    65    66    1
    30    13    14    1
    31    53    54    1
    32   108   109    1
    33   126   124    1
    34    55    54    1
    35    55    56    1
    36    66    69    1
    37    66    67    1
    38    11    16   am
    39    11    12    2
    40    39    40    1
    41    69    71    1
    42    69    70    1
    43    16    17    1
    44   112   109    1
    45   109   110    1
    46    40    41    1
    47    40    43    1
    48     1     2    1
    49    68    67    2
    50   124   123    1
    51    41    42    2
    52    22    20    1
    53    21    20    1
    54    19    18    2
    55     2     5    1
    56     2     3    1
    57    17    20    1
    58    17    18    1
    59    78    79    1
    60    43    44    1
    61   110   111    2
    62   110   113   am
    63   123   125    1
    64   123   120    1
    65     5     6    1
    66    44    45    1
    67    18    23   am
    68     7     6   ar
    69    87    85   ar
    70    87    88   ar
    71     6     8   ar
    72    85    83   ar
    73     3     4    2
    74   113   114    1
    75    79    80    1
    76    79    82    1
    77    45    46   ar
    78    45    47   ar
    79   120   119    1
    80   120   121    1
    81   119   115   am
    82    80    81    2
    83    23    24    1
    84    88    86   ar
    85    83    82    1
    86    83    84   ar
    87    24    27    1
    88    24    25    1
    89   115   114    1
    90   115   116    2
    91   114   117    1
    92    27    28    1
    93   121   122    2
    94   121   127   am
    95   117   118    1
    96    86    84   ar
    97    37    36    1
    98   127   128    1
    99    25    26    2
   100    30    28   am
   101    28    29    2
   102   129   128    1
   103   129   130    2
   104   128   131    1
   105    36    35    1
   106    36    38    1
   107    35    32    1
   108   131   132    1
   109    89    90    1
   110   132   133    1
   111    33    32    1
   112    33    34    2
   113    32    31    1
   114    93    94    1
   115    93    90    1
   116    94    95    1
   117   133   134    1
   118    96    95    1
   119    96    97    2
   120    90    91    1
   121   134   135    2
   122    91    92    2
   123    99    97    1
   124    97    98    1
   125   135   137    1
   126   135   136    1
