@<TRIPOS>MOLECULE
tmp/3s1wC00.pdb
 99 93 0 0 0
SMALL
GASTEIGER

@<TRIPOS>ATOM
      1  N         -9.8460   -7.2140   13.7850 N.3     6  ASP6       -0.1239
      2  CA       -10.6530   -6.8900   14.9510 C.3     6  ASP6        0.1674
      3  C        -10.3520   -5.4470   15.2860 C.2     6  ASP6        0.2266
      4  O         -9.4710   -5.1550   16.0740 O.2     6  ASP6       -0.2867
      5  CB       -10.2590   -7.7990   16.1070 C.3     6  ASP6        0.1410
      6  CG       -11.2040   -7.6970   17.2850 C.2     6  ASP6        0.3668
      7  OD1      -10.7440   -7.8920   18.4250 O.co2   6  ASP6       -0.2456
      8  OD2      -12.4020   -7.4530   17.0730 O.co2   6  ASP6       -0.2456
      9  N        -16.5580   -4.0020   17.8350 N.3    28  ASN28      -0.1240
     10  CA       -17.3520   -4.1800   19.0220 C.3    28  ASN28       0.1653
     11  C        -17.5180   -2.7790   19.5990 C.2    28  ASN28       0.2266
     12  O        -16.9030   -1.8270   19.1110 O.2    28  ASN28      -0.2867
     13  CB       -16.7100   -5.2070   19.9790 C.3    28  ASN28       0.1155
     14  CG       -15.4130   -4.7130   20.5880 C.2    28  ASN28       0.2627
     15  OD1      -15.3170   -3.5660   21.0070 O.2    28  ASN28      -0.2716
     16  ND2      -14.4130   -5.5830   20.6470 N.am   28  ASN28      -0.0877
     17  N        -16.4760   -1.2660   22.0990 N.3    30  THR30      -0.1203
     18  CA       -15.2420   -0.6380   22.5390 C.3    30  THR30       0.1994
     19  C        -14.3940   -0.1590   21.3680 C.2    30  THR30       0.2617
     20  O        -13.9470    0.9890   21.3300 O.2    30  THR30      -0.2717
     21  CB       -14.4170   -1.6020   23.4090 C.3    30  THR30       0.1784
     22  OG1      -15.1180   -1.8320   24.6330 O.3    30  THR30      -0.2211
     23  CG2      -13.0460   -1.0170   23.7120 C.3    30  THR30       0.0376
     24  N        -14.1490   -1.0440   20.4130 N.am   31  LEU31      -0.1979
     25  CA       -13.3260   -0.6830   19.2710 C.3    31  LEU31       0.1596
     26  C        -13.9120    0.5240   18.5690 C.2    31  LEU31       0.2287
     27  O        -13.1910    1.4110   18.1310 O.2    31  LEU31      -0.2864
     28  CB       -13.2710   -1.8390   18.2890 C.3    31  LEU31       0.0297
     29  CG       -12.5730   -3.0440   18.9010 C.3    31  LEU31       0.0022
     30  CD1      -12.6970   -4.2320   17.9500 C.3    31  LEU31       0.0001
     31  CD2      -11.1130   -2.7040   19.2140 C.3    31  LEU31       0.0001
     32  N        -13.2950    3.7260   20.3400 N.3    34  LYS34      -0.1245
     33  CA       -11.9370    4.1980   20.1310 C.3    34  LYS34       0.1561
     34  C        -11.8660    5.0800   18.9010 C.2    34  LYS34       0.2260
     35  O        -11.1160    6.0460   18.8790 O.2    34  LYS34      -0.2867
     36  CB       -10.9580    3.0300   19.9820 C.3    34  LYS34       0.0271
     37  CG       -10.5410    2.3860   21.3020 C.3    34  LYS34       0.0035
     38  CD        -9.9310    1.0000   21.0950 C.3    34  LYS34       0.0206
     39  CE        -8.6210    1.0480   20.3220 C.3    34  LYS34       0.1093
     40  NZ        -7.9610   -0.3050   20.2910 N.3    34  LYS34      -0.1314
     41  N        -13.4500  -15.5030   23.3740 N.3   132  PHE132     -0.1241
     42  CA       -12.4520  -14.4810   23.5950 C.3   132  PHE132      0.1605
     43  C        -11.2660  -15.1160   24.2940 C.2   132  PHE132      0.2264
     44  O        -11.2260  -15.1760   25.5130 O.2   132  PHE132     -0.2867
     45  CB       -13.0360  -13.3780   24.4650 C.3   132  PHE132      0.0534
     46  CG       -13.8590  -12.3860   23.7040 C.ar  132  PHE132     -0.0203
     47  CD1      -13.6490  -11.0310   23.8630 C.ar  132  PHE132     -0.0042
     48  CD2      -14.8450  -12.8160   22.8210 C.ar  132  PHE132     -0.0042
     49  CE1      -14.4100  -10.1090   23.1440 C.ar  132  PHE132     -0.0003
     50  CE2      -15.6080  -11.9130   22.1200 C.ar  132  PHE132     -0.0003
     51  CZ       -15.3870  -10.5620   22.2680 C.ar  132  PHE132     -0.0000
     52  N         -8.8180  -12.9280   26.7090 N.3   135  ARG135     -0.1245
     53  CA        -9.4020  -12.6020   28.0070 C.3   135  ARG135      0.1563
     54  C         -9.4180  -13.7870   28.9480 C.2   135  ARG135      0.2260
     55  O         -9.4480  -13.6160   30.1420 O.2   135  ARG135     -0.2867
     56  CB       -10.7970  -12.0360   27.8420 C.3   135  ARG135      0.0307
     57  CG       -10.7550  -10.7570   27.0270 C.3   135  ARG135      0.0489
     58  CD       -12.0880  -10.0870   27.0810 C.3   135  ARG135      0.2205
     59  NE       -12.0740   -8.9030   26.2290 N.pl3 135  ARG135     -0.0865
     60  CZ       -13.0810   -8.0470   26.1690 C.cat 135  ARG135      0.5346
     61  NH1      -14.1550   -8.2510   26.9210 N.pl3 135  ARG135      0.1354
     62  NH2      -12.9940   -6.9770   25.3890 N.pl3 135  ARG135      0.1354
     63  N        -11.6440  -14.7340   18.9070 N.3   166  ALA166     -0.1231
     64  CA       -11.5410  -13.3000   19.1210 C.3   166  ALA166      0.1694
     65  C        -10.6700  -13.0830   20.3390 C.2   166  ALA166      0.2593
     66  O        -10.1880  -14.0540   20.9500 O.2   166  ALA166     -0.2718
     67  CB       -12.9100  -12.7200   19.3300 C.3   166  ALA166      0.0304
     68  N        -10.4750  -11.8210   20.6940 N.am  167  SER167     -0.1938
     69  CA        -9.5260  -11.4670   21.7390 C.3   167  SER167      0.2055
     70  C         -8.1790  -12.1130   21.4260 C.2   167  SER167      0.2643
     71  O         -7.5300  -12.7300   22.2840 O.2   167  SER167     -0.2714
     72  CB       -10.0330  -11.9040   23.1170 C.3   167  SER167      0.2130
     73  OG        -9.2220  -11.3270   24.1160 O.3   167  SER167     -0.2179
     74  N         -7.7670  -11.9820   20.1760 N.am  168  ILE168     -0.1963
     75  CA        -6.4930  -12.5310   19.7630 C.3   168  ILE168      0.1727
     76  C         -5.4190  -11.5530   20.1520 C.2   168  ILE168      0.2616
     77  O         -5.5060  -10.3550   19.8480 O.2   168  ILE168     -0.2715
     78  CB        -6.4860  -12.8330   18.2620 C.3   168  ILE168      0.0290
     79  CG1       -7.2650  -14.1320   18.0400 C.3   168  ILE168      0.0022
     80  CG2       -5.0550  -12.9670   17.7420 C.3   168  ILE168      0.0023
     81  CD1       -7.3990  -14.5290   16.6180 C.3   168  ILE168      0.0001
     82  N         -4.4190  -12.0390   20.8670 N.am  169  ARG169     -0.1977
     83  CA        -3.4180  -11.1360   21.4060 C.3   169  ARG169      0.1597
     84  C         -2.0900  -11.2960   20.7170 C.2   169  ARG169      0.2287
     85  O         -1.2530  -10.4080   20.7720 O.2   169  ARG169     -0.2864
     86  CB        -3.2340  -11.3720   22.9080 C.3   169  ARG169      0.0334
     87  CG        -4.5150  -11.2480   23.6760 C.3   169  ARG169      0.0492
     88  CD        -4.9630   -9.7830   23.7590 C.3   169  ARG169      0.2205
     89  NE        -6.1950   -9.7050   24.5370 N.pl3 169  ARG169     -0.0865
     90  CZ        -6.2390   -9.8650   25.8550 C.cat 169  ARG169      0.5346
     91  NH1       -5.1200  -10.0820   26.5340 N.pl3 169  ARG169      0.1354
     92  NH2       -7.3920   -9.7930   26.4950 N.pl3 169  ARG169      0.1354
     93  N         -6.2020   -8.0630   15.9810 N.3   188  PRO188     -0.2116
     94  CA        -5.9390   -6.6340   15.8740 C.3   188  PRO188      0.1372
     95  C         -4.9100   -6.3970   14.7770 C.2   188  PRO188      0.2244
     96  O         -4.1700   -7.2920   14.3590 O.2   188  PRO188     -0.2868
     97  CB        -5.3840   -6.2660   17.2510 C.3   188  PRO188      0.0268
     98  CG        -4.8370   -7.5370   17.7990 C.3   188  PRO188      0.0207
     99  CD        -5.6870   -8.6440   17.2350 C.3   188  PRO188      0.0892
@<TRIPOS>BOND
     1     1     2    1
     2    96    95    2
     3    95    94    1
     4     2     3    1
     5     2     5    1
     6     3     4    2
     7    94    93    1
     8    94    97    1
     9    93    99    1
    10     5     6    1
    11    81    79    1
    12     8     6   ar
    13    99    98    1
    14    97    98    1
    15     6     7   ar
    16    80    78    1
    17     9    10    1
    18    30    29    1
    19    79    78    1
    20    27    26    2
    21    78    75    1
    22    28    29    1
    23    28    25    1
    24    26    25    1
    25    35    34    2
    26    34    33    1
    27    29    31    1
    28    63    64    1
    29    10    11    1
    30    10    13    1
    31    12    11    2
    32    64    67    1
    33    64    65    1
    34    25    24    1
    35    75    76    1
    36    75    74    1
    37    77    76    2
    38    13    14    1
    39    36    33    1
    40    36    37    1
    41    33    32    1
    42    76    82   am
    43    74    70   am
    44    40    39    1
    45    39    38    1
    46    65    68   am
    47    65    66    2
    48    24    19   am
    49    14    16   am
    50    14    15    2
    51    68    69    1
    52    84    85    2
    53    84    83    1
    54    82    83    1
    55    38    37    1
    56    20    19    2
    57    19    18    1
    58    83    86    1
    59    70    69    1
    60    70    71    2
    61    69    72    1
    62    17    18    1
    63    50    51   ar
    64    50    48   ar
    65    51    49   ar
    66    18    21    1
    67    48    46   ar
    68    86    87    1
    69    72    73    1
    70    49    47   ar
    71    41    42    1
    72    21    23    1
    73    21    22    1
    74    42    43    1
    75    42    45    1
    76    87    88    1
    77    46    47   ar
    78    46    45    1
    79    88    89    1
    80    43    44    2
    81    89    90    2
    82    62    60    1
    83    90    92    1
    84    90    91    1
    85    60    59    2
    86    60    61    1
    87    59    58    1
    88    52    53    1
    89    57    58    1
    90    57    56    1
    91    56    53    1
    92    53    54    1
    93    54    55    2
