@<TRIPOS>MOLECULE
tmp/3s1xD00.pdb
 144 132 0 0 0
SMALL
GASTEIGER

@<TRIPOS>ATOM
      1  N        -35.2960  -32.3350   33.3910 N.3     6  ASP6       -0.1239
      2  CA       -35.6040  -33.5050   34.2040 C.3     6  ASP6        0.1674
      3  C        -36.4020  -33.1070   35.4370 C.2     6  ASP6        0.2266
      4  O        -35.8400  -32.9130   36.5030 O.2     6  ASP6       -0.2867
      5  CB       -34.2870  -34.1880   34.6150 C.3     6  ASP6        0.1410
      6  CG       -34.4880  -35.5970   35.1530 C.2     6  ASP6        0.3668
      7  OD1      -35.5210  -36.2500   34.8670 O.co2   6  ASP6       -0.2456
      8  OD2      -33.5910  -36.0620   35.8730 O.co2   6  ASP6       -0.2456
      9  N        -38.0650  -35.0940   30.7960 N.3    26  THR26      -0.1203
     10  CA       -38.1410  -36.4380   31.3550 C.3    26  THR26       0.1994
     11  C        -38.7580  -36.3590   32.7450 C.2    26  THR26       0.2619
     12  O        -38.4510  -35.4470   33.5260 O.2    26  THR26      -0.2717
     13  CB       -36.7690  -37.1510   31.4340 C.3    26  THR26       0.1784
     14  OG1      -35.8520  -36.3880   32.2400 O.3    26  THR26      -0.2211
     15  CG2      -36.1830  -37.3340   30.0380 C.3    26  THR26       0.0376
     16  N        -39.6600  -37.2950   33.0280 N.am   27  THR27      -0.1938
     17  CA       -40.2030  -37.4540   34.3720 C.3    27  THR27       0.2028
     18  C        -39.9800  -38.8780   34.8810 C.2    27  THR27       0.2642
     19  O        -39.5090  -39.7500   34.1510 O.2    27  THR27      -0.2714
     20  CB       -41.7080  -37.1490   34.4270 C.3    27  THR27       0.1808
     21  OG1      -42.4330  -38.2020   33.7740 O.3    27  THR27      -0.2208
     22  CG2      -42.0140  -35.8040   33.7470 C.3    27  THR27       0.0379
     23  N        -40.2850  -39.0950   36.1540 N.am   28  ASN28      -0.1971
     24  CA       -40.2580  -40.4320   36.7300 C.3    28  ASN28       0.1688
     25  C        -41.2010  -40.4180   37.9300 C.2    28  ASN28       0.2292
     26  O        -41.7180  -39.3610   38.2980 O.2    28  ASN28      -0.2864
     27  CB       -38.8310  -40.8470   37.1250 C.3    28  ASN28       0.1181
     28  CG       -38.2740  -40.0040   38.2540 C.2    28  ASN28       0.2629
     29  OD1      -38.9300  -39.8140   39.2740 O.2    28  ASN28      -0.2716
     30  ND2      -37.0570  -39.4970   38.0800 N.am   28  ASN28      -0.0877
     31  N        -40.3270  -37.8460   40.7380 N.3    31  LEU31      -0.1245
     32  CA       -40.5640  -36.4590   40.3360 C.3    31  LEU31       0.1561
     33  C        -42.0460  -36.1150   40.2880 C.2    31  LEU31       0.2260
     34  O        -42.4510  -35.0320   40.7020 O.2    31  LEU31      -0.2867
     35  CB       -39.9220  -36.1810   38.9640 C.3    31  LEU31       0.0270
     36  CG       -38.3910  -36.2380   38.9270 C.3    31  LEU31       0.0019
     37  CD1      -37.8420  -36.2320   37.4730 C.3    31  LEU31       0.0001
     38  CD2      -37.7730  -35.1150   39.7740 C.3    31  LEU31       0.0001
     39  N        -42.9520  -42.5370   32.9300 N.3    60  GLU60      -0.1245
     40  CA       -42.6100  -43.8980   33.3480 C.3    60  GLU60       0.1567
     41  C        -43.7990  -44.7720   33.7660 C.2    60  GLU60       0.2260
     42  O        -44.6650  -44.3350   34.5310 O.2    60  GLU60      -0.2867
     43  CB       -41.5870  -43.8410   34.4990 C.3    60  GLU60       0.0388
     44  CG       -41.0880  -45.2100   34.9750 C.3    60  GLU60       0.1160
     45  CD       -39.6900  -45.1790   35.5890 C.2    60  GLU60       0.3649
     46  OE1      -39.0060  -44.1220   35.5400 O.co2  60  GLU60      -0.2457
     47  OE2      -39.2600  -46.2420   36.1080 O.co2  60  GLU60      -0.2457
     48  N        -41.3010  -44.5470   29.4760 N.3    86  LYS86      -0.1245
     49  CA       -40.0740  -44.8710   30.1920 C.3    86  LYS86       0.1561
     50  C        -40.2930  -46.2240   30.8460 C.2    86  LYS86       0.2260
     51  O        -41.2940  -46.4250   31.5200 O.2    86  LYS86      -0.2867
     52  CB       -39.7610  -43.7950   31.2400 C.3    86  LYS86       0.0271
     53  CG       -38.3230  -43.8240   31.7450 C.3    86  LYS86       0.0035
     54  CD       -38.0320  -42.7460   32.7910 C.3    86  LYS86       0.0206
     55  CE       -37.5540  -41.4280   32.1770 C.3    86  LYS86       0.1093
     56  NZ       -36.8700  -40.6050   33.2610 N.3    86  LYS86      -0.1314
     57  N        -38.0960  -45.3220   26.3120 N.3   108  ASN108     -0.1240
     58  CA       -36.8980  -44.8180   26.9830 C.3   108  ASN108      0.1653
     59  C        -36.5730  -45.7950   28.0910 C.2   108  ASN108      0.2266
     60  O        -37.3570  -45.9250   29.0240 O.2   108  ASN108     -0.2867
     61  CB       -37.2250  -43.4420   27.5710 C.3   108  ASN108      0.1155
     62  CG       -36.0650  -42.7910   28.3200 C.2   108  ASN108      0.2627
     63  OD1      -34.9580  -43.3360   28.4200 O.2   108  ASN108     -0.2716
     64  ND2      -36.3210  -41.5810   28.8460 N.am  108  ASN108     -0.0877
     65  N        -34.7690  -46.9430   31.3440 N.3   110  THR110     -0.1218
     66  CA       -34.1980  -46.1910   32.4460 C.3   110  THR110      0.1862
     67  C        -33.5330  -47.1300   33.4730 C.2   110  THR110      0.2287
     68  O        -33.6000  -48.3520   33.3450 O.2   110  THR110     -0.2866
     69  CB       -35.2900  -45.2880   33.0830 C.3   110  THR110      0.1770
     70  OG1      -34.7000  -44.3880   34.0310 O.3   110  THR110     -0.2211
     71  CG2      -36.3720  -46.1500   33.7800 C.3   110  THR110      0.0375
     72  N        -31.1810  -44.4410   29.0350 N.3   130  SER130     -0.1217
     73  CA       -30.7640  -43.4450   30.0190 C.3   130  SER130      0.1889
     74  C        -29.8780  -44.0170   31.1290 C.2   130  SER130      0.2288
     75  O        -30.3720  -44.4350   32.1730 O.2   130  SER130     -0.2866
     76  CB       -31.9810  -42.7920   30.6750 C.3   130  SER130      0.2089
     77  OG       -32.7570  -42.0830   29.7190 O.3   130  SER130     -0.2183
     78  N        -27.4200  -43.5970   34.2850 N.3   132  PHE132     -0.1241
     79  CA       -27.5220  -42.6410   35.3920 C.3   132  PHE132      0.1605
     80  C        -26.1050  -42.2830   35.8700 C.2   132  PHE132      0.2264
     81  O        -25.4300  -43.1170   36.4630 O.2   132  PHE132     -0.2867
     82  CB       -28.2700  -43.2800   36.5610 C.3   132  PHE132      0.0534
     83  CG       -29.7730  -43.2230   36.4650 C.ar  132  PHE132     -0.0203
     84  CD1      -30.5420  -43.0870   37.6140 C.ar  132  PHE132     -0.0042
     85  CD2      -30.4230  -43.3150   35.2430 C.ar  132  PHE132     -0.0042
     86  CE1      -31.9230  -43.0650   37.5580 C.ar  132  PHE132     -0.0003
     87  CE2      -31.8120  -43.2870   35.1700 C.ar  132  PHE132     -0.0003
     88  CZ       -32.5660  -43.1470   36.3420 C.ar  132  PHE132     -0.0000
     89  N        -25.8660  -41.1590   40.2230 N.3   135  ARG135     -0.1245
     90  CA       -26.0220  -42.2490   41.1850 C.3   135  ARG135      0.1563
     91  C        -24.8120  -43.1850   41.1960 C.2   135  ARG135      0.2260
     92  O        -24.5260  -43.8160   42.2130 O.2   135  ARG135     -0.2867
     93  CB       -27.3110  -43.0280   40.9380 C.3   135  ARG135      0.0307
     94  CG       -28.5510  -42.1740   41.0600 C.3   135  ARG135      0.0489
     95  CD       -29.8050  -43.0290   41.2900 C.3   135  ARG135      0.2205
     96  NE       -30.9820  -42.1580   41.2880 N.pl3 135  ARG135     -0.0865
     97  CZ       -32.2400  -42.5900   41.3150 C.cat 135  ARG135      0.5346
     98  NH1      -32.4910  -43.8960   41.3560 N.pl3 135  ARG135      0.1354
     99  NH2      -33.2400  -41.7120   41.3340 N.pl3 135  ARG135      0.1354
    100  N        -29.3050  -40.9460   26.2440 N.3   164  LEU164     -0.1245
    101  CA       -29.9860  -39.8580   26.9510 C.3   164  LEU164      0.1561
    102  C        -29.4330  -39.8490   28.3780 C.2   164  LEU164      0.2260
    103  O        -29.9270  -40.5600   29.2660 O.2   164  LEU164     -0.2867
    104  CB       -31.5050  -40.0850   26.9480 C.3   164  LEU164      0.0270
    105  CG       -32.5010  -38.9560   27.3060 C.3   164  LEU164      0.0019
    106  CD1      -33.9350  -39.4650   27.2630 C.3   164  LEU164      0.0001
    107  CD2      -32.2170  -38.3730   28.6730 C.3   164  LEU164      0.0001
    108  N        -28.7570  -39.2600   32.0800 N.3   166  ALA166     -0.1231
    109  CA       -29.6860  -38.8660   33.1530 C.3   166  ALA166      0.1694
    110  C        -28.9490  -38.8740   34.4960 C.2   166  ALA166      0.2593
    111  O        -27.7430  -39.1440   34.5300 O.2   166  ALA166     -0.2718
    112  CB       -30.8750  -39.8210   33.1770 C.3   166  ALA166      0.0304
    113  N        -29.6660  -38.5680   35.5830 N.am  167  SER167     -0.1938
    114  CA       -29.0330  -38.3710   36.8890 C.3   167  SER167      0.2055
    115  C        -27.8680  -37.3710   36.7440 C.2   167  SER167      0.2643
    116  O        -26.7640  -37.5760   37.2610 O.2   167  SER167     -0.2714
    117  CB       -28.5960  -39.7030   37.5140 C.3   167  SER167      0.2130
    118  OG       -28.1440  -39.5200   38.8450 O.3   167  SER167     -0.2179
    119  N        -28.1420  -36.2790   36.0350 N.am  168  ILE168     -0.1963
    120  CA       -27.1510  -35.2270   35.8660 C.3   168  ILE168      0.1727
    121  C        -27.1760  -34.3230   37.0780 C.2   168  ILE168      0.2616
    122  O        -28.2530  -33.9410   37.5510 O.2   168  ILE168     -0.2715
    123  CB       -27.4000  -34.4280   34.5640 C.3   168  ILE168      0.0290
    124  CG1      -26.9460  -35.2970   33.3750 C.3   168  ILE168      0.0022
    125  CG2      -26.6790  -33.0770   34.6040 C.3   168  ILE168      0.0023
    126  CD1      -26.9550  -34.6420   32.0670 C.3   168  ILE168      0.0001
    127  N        -25.9910  -33.9910   37.5860 N.am  169  ARG169     -0.1977
    128  CA       -25.8970  -33.2500   38.8500 C.3   169  ARG169      0.1597
    129  C        -25.2060  -31.8940   38.7330 C.2   169  ARG169      0.2287
    130  O        -25.3230  -31.0450   39.6290 O.2   169  ARG169     -0.2864
    131  CB       -25.1700  -34.0980   39.9120 C.3   169  ARG169      0.0334
    132  CG       -25.7820  -35.4720   40.1800 C.3   169  ARG169      0.0492
    133  CD       -27.0290  -35.3950   41.0670 C.3   169  ARG169      0.2205
    134  NE       -27.5380  -36.7400   41.3420 N.pl3 169  ARG169     -0.0865
    135  CZ       -26.9920  -37.5820   42.2170 C.cat 169  ARG169      0.5346
    136  NH1      -25.9190  -37.2340   42.9330 N.pl3 169  ARG169      0.1354
    137  NH2      -27.5120  -38.7840   42.3750 N.pl3 169  ARG169      0.1354
    138  N        -30.5050  -34.9240   30.0080 N.3   186  THR186     -0.1218
    139  CA       -31.6510  -34.3620   30.7020 C.3   186  THR186      0.1862
    140  C        -31.1910  -33.8380   32.0640 C.2   186  THR186      0.2287
    141  O        -30.5060  -34.5370   32.8120 O.2   186  THR186     -0.2866
    142  CB       -32.8270  -35.3460   30.8180 C.3   186  THR186      0.1770
    143  OG1      -33.9680  -34.6540   31.3570 O.3   186  THR186     -0.2211
    144  CG2      -32.4700  -36.5440   31.7100 C.3   186  THR186      0.0375
@<TRIPOS>BOND
     1   100   101    1
     2    57    58    1
     3   104   101    1
     4   104   105    1
     5   101   102    1
     6    58    61    1
     7    58    59    1
     8   106   105    1
     9   105   107    1
    10    61    62    1
    11    59    60    2
    12    62    63    2
    13    62    64   am
    14   102   103    2
    15    72    73    1
    16    48    49    1
    17    77    76    1
    18   138   139    1
    19    73    76    1
    20    73    74    1
    21    15    13    1
    22    49    50    1
    23    49    52    1
    24   139   142    1
    25   139   140    1
    26     9    10    1
    27   142   143    1
    28   142   144    1
    29    50    51    2
    30    74    75    2
    31    52    53    1
    32    65    66    1
    33    10    13    1
    34    10    11    1
    35    13    14    1
    36    53    54    1
    37   140   141    2
    38   126   124    1
    39   108   109    1
    40    55    54    1
    41    55    56    1
    42    66    69    1
    43    66    67    1
    44    11    16   am
    45    11    12    2
    46    39    40    1
    47    16    17    1
    48    69    71    1
    49    69    70    1
    50   109   112    1
    51   109   110    1
    52    68    67    2
    53    40    41    1
    54    40    43    1
    55   124   123    1
    56     1     2    1
    57    22    20    1
    58    41    42    2
    59    21    20    1
    60    19    18    2
    61     2     5    1
    62     2     3    1
    63    78    79    1
    64    17    20    1
    65    17    18    1
    66   110   111    2
    67   110   113   am
    68    43    44    1
    69   123   125    1
    70   123   120    1
    71     5     6    1
    72     7     6   ar
    73    18    23   am
    74    44    45    1
    75     6     8   ar
    76    87    85   ar
    77    87    88   ar
    78    85    83   ar
    79    79    80    1
    80    79    82    1
    81     3     4    2
    82    46    45   ar
    83   113   114    1
    84    45    47   ar
    85   120   119    1
    86   120   121    1
    87    80    81    2
    88   119   115   am
    89    23    24    1
    90    88    86   ar
    91    83    82    1
    92    83    84   ar
    93    24    27    1
    94    24    25    1
    95   115   114    1
    96   115   116    2
    97   114   117    1
    98   121   122    2
    99   121   127   am
   100    27    28    1
   101    37    36    1
   102   117   118    1
   103    86    84   ar
   104   127   128    1
   105    25    26    2
   106    30    28   am
   107    28    29    2
   108   129   128    1
   109   129   130    2
   110   128   131    1
   111    36    35    1
   112    36    38    1
   113    35    32    1
   114   131   132    1
   115   132   133    1
   116    89    90    1
   117    33    32    1
   118    33    34    2
   119    32    31    1
   120    93    94    1
   121    93    90    1
   122    94    95    1
   123   133   134    1
   124    90    91    1
   125    91    92    2
   126    96    95    1
   127    96    97    2
   128    97    99    1
   129    97    98    1
   130   134   135    2
   131   135   137    1
   132   135   136    1
