@<TRIPOS>MOLECULE
tmp/3s1yA00.pdb
 139 132 0 0 0
SMALL
GASTEIGER

@<TRIPOS>ATOM
      1  N          7.0170    8.1310   16.2210 N.3    62  SER62      -0.1217
      2  CA         6.5770    7.3340   17.3560 C.3    62  SER62       0.1889
      3  C          6.3450    5.8640   17.0870 C.2    62  SER62       0.2288
      4  O          6.1750    5.0960   18.0170 O.2    62  SER62      -0.2866
      5  CB         5.3150    7.9320   17.9420 C.3    62  SER62       0.2089
      6  OG         5.5990    9.1660   18.5510 O.3    62  SER62      -0.2183
      7  N          3.4740   15.1600   26.0480 N.3   117  LEU117     -0.1231
      8  CA         3.6550   14.5430   24.7480 C.3   117  LEU117      0.1693
      9  C          5.1240   14.5110   24.3510 C.2   117  LEU117      0.2591
     10  O          5.6400   13.4890   23.9160 O.2   117  LEU117     -0.2718
     11  CB         2.8620   15.3180   23.6980 C.3   117  LEU117      0.0284
     12  CG         3.1160   14.9150   22.2460 C.3   117  LEU117      0.0019
     13  CD1        2.4370   13.5980   21.9380 C.3   117  LEU117      0.0001
     14  CD2        2.6540   16.0040   21.2970 C.3   117  LEU117      0.0001
     15  N          5.7830   15.6510   24.4970 N.am  118  GLN118     -0.1979
     16  CA         7.1760   15.7740   24.1300 C.3   118  GLN118      0.1601
     17  C          7.9300   16.3760   25.2870 C.2   118  GLN118      0.2287
     18  O          7.3490   17.0350   26.1450 O.2   118  GLN118     -0.2864
     19  CB         7.3270   16.7040   22.9300 C.3   118  GLN118      0.0394
     20  CG         6.6910   16.2230   21.6480 C.3   118  GLN118      0.0908
     21  CD         6.6900   17.2980   20.5800 C.2   118  GLN118      0.2608
     22  OE1        7.5990   18.1330   20.5170 O.2   118  GLN118     -0.2717
     23  NE2        5.6670   17.2880   19.7320 N.am  118  GLN118     -0.0878
     24  N         -0.4080   10.3330   26.4380 N.3   149  TYR149     -0.1241
     25  CA         0.5490    9.8740   25.4730 C.3   149  TYR149      0.1605
     26  C          1.7880   10.7550   25.5330 C.2   149  TYR149      0.2264
     27  O          1.6980   11.9760   25.5130 O.2   149  TYR149     -0.2867
     28  CB        -0.0760    9.8890   24.0930 C.3   149  TYR149      0.0534
     29  CG         0.8620    9.4070   23.0460 C.ar  149  TYR149     -0.0201
     30  CD1        1.0570    8.0490   22.8360 C.ar  149  TYR149     -0.0009
     31  CD2        1.5780   10.3110   22.2820 C.ar  149  TYR149     -0.0009
     32  CE1        1.9280    7.6080   21.8750 C.ar  149  TYR149      0.0417
     33  CE2        2.4500    9.8860   21.3220 C.ar  149  TYR149      0.0417
     34  CZ         2.6150    8.5340   21.1210 C.ar  149  TYR149      0.1957
     35  OH         3.4880    8.1170   20.1670 O.3   149  TYR149     -0.2866
     36  N          6.1830   11.0080   24.7980 N.3   151  ASN151     -0.1240
     37  CA         7.5230   10.6100   24.4190 C.3   151  ASN151      0.1653
     38  C          8.4340   10.4950   25.6300 C.2   151  ASN151      0.2266
     39  O          9.0830    9.4720   25.7870 O.2   151  ASN151     -0.2867
     40  CB         8.1180   11.5800   23.4010 C.3   151  ASN151      0.1155
     41  CG         7.5090   11.4360   22.0310 C.2   151  ASN151      0.2627
     42  OD1        6.6250   10.6140   21.8120 O.2   151  ASN151     -0.2716
     43  ND2        7.9810   12.2400   21.0950 N.am  151  ASN151     -0.0877
     44  N         14.2870   14.7220   10.8670 N.3   211  VAL211     -0.1231
     45  CA        14.2320   14.8240   12.3090 C.3   211  VAL211      0.1692
     46  C         15.6120   15.1370   12.8580 C.2   211  VAL211      0.2593
     47  O         16.6120   14.5390   12.4560 O.2   211  VAL211     -0.2718
     48  CB        13.6270   13.5540   12.9460 C.3   211  VAL211      0.0266
     49  CG1       14.5440   12.3550   12.7730 C.3   211  VAL211      0.0020
     50  CG2       13.3040   13.7880   14.4120 C.3   211  VAL211      0.0020
     51  N         15.6560   16.1250   13.7390 N.am  212  GLY212     -0.1943
     52  CA        16.8860   16.4950   14.3910 C.3   212  GLY212      0.1998
     53  C         17.0170   15.7540   15.7010 C.2   212  GLY212      0.2481
     54  O         16.0580   15.1220   16.1640 O.2   212  GLY212     -0.2729
     55  N         18.2120   15.8190   16.3000 N.am  213  PRO213     -0.2715
     56  CA        18.4550   15.2210   17.5980 C.3   213  PRO213      0.1536
     57  C         17.4960   15.7830   18.6270 C.2   213  PRO213      0.2599
     58  O         17.1580   16.9670   18.6010 O.2   213  PRO213     -0.2715
     59  CB        19.8830   15.6590   17.9240 C.3   213  PRO213      0.0310
     60  CG        20.5130   15.8950   16.6130 C.3   213  PRO213      0.0237
     61  CD        19.4260   16.4360   15.7420 C.3   213  PRO213      0.0939
     62  N         17.0430   14.9180   19.5130 N.am  214  GLY214     -0.1955
     63  CA        16.2060   15.3520   20.6050 C.3   214  GLY214      0.1869
     64  C         16.4080   14.4170   21.7640 C.2   214  GLY214      0.2309
     65  O         16.9130   13.3120   21.5930 O.2   214  GLY214     -0.2863
     66  N         11.1760    8.3000   18.9540 N.3   221  TYR221     -0.1241
     67  CA        10.8650    8.5610   17.5620 C.3   221  TYR221      0.1605
     68  C         12.0920    8.4540   16.6760 C.2   221  TYR221      0.2264
     69  O         12.1520    9.0780   15.6140 O.2   221  TYR221     -0.2867
     70  CB        10.2240    9.9450   17.4370 C.3   221  TYR221      0.0534
     71  CG        11.0550   11.0590   18.0260 C.ar  221  TYR221     -0.0201
     72  CD1       11.9970   11.7310   17.2510 C.ar  221  TYR221     -0.0009
     73  CD2       10.8930   11.4450   19.3510 C.ar  221  TYR221     -0.0009
     74  CE1       12.7610   12.7460   17.7770 C.ar  221  TYR221      0.0417
     75  CE2       11.6570   12.4650   19.8900 C.ar  221  TYR221      0.0417
     76  CZ        12.5850   13.1120   19.0920 C.ar  221  TYR221      0.1957
     77  OH        13.3530   14.1250   19.5990 O.3   221  TYR221     -0.2866
     78  N         -4.1240   11.5350   21.7350 N.3   291  ALA291     -0.1245
     79  CA        -2.7030   11.7200   21.9960 C.3   291  ALA291      0.1562
     80  C         -2.4360   12.8320   23.0030 C.2   291  ALA291      0.2260
     81  O         -1.5390   12.7190   23.8360 O.2   291  ALA291     -0.2867
     82  CB        -1.9650   12.0110   20.7020 C.3   291  ALA291      0.0290
     83  N          0.3870    1.5660   15.4750 N.3   314  LYS314     -0.1231
     84  CA         1.0410    2.7010   16.0350 C.3   314  LYS314      0.1693
     85  C          1.1670    3.7310   14.9560 C.2   314  LYS314      0.2593
     86  O          1.5810    3.4310   13.8370 O.2   314  LYS314     -0.2718
     87  CB         2.4120    2.3300   16.5880 C.3   314  LYS314      0.0285
     88  CG         3.0440    3.4440   17.3930 C.3   314  LYS314      0.0035
     89  CD         2.2560    3.7470   18.6550 C.3   314  LYS314      0.0206
     90  CE         2.8380    4.9440   19.3760 C.3   314  LYS314      0.1093
     91  NZ         2.3730    6.2220   18.7680 N.3   314  LYS314     -0.1314
     92  N          0.7780    4.9430   15.3120 N.am  315  THR315     -0.1939
     93  CA         1.0320    6.0930   14.4910 C.3   315  THR315      0.2028
     94  C          2.3660    6.6530   14.9320 C.2   315  THR315      0.2643
     95  O          2.7840    6.4980   16.0820 O.2   315  THR315     -0.2714
     96  CB        -0.0280    7.1590   14.7190 C.3   315  THR315      0.1808
     97  OG1       -0.2150    7.3240   16.1250 O.3   315  THR315     -0.2208
     98  CG2       -1.3480    6.7440   14.0930 C.3   315  THR315      0.0379
     99  N          3.0450    7.3100   14.0190 N.am  316  GLY316     -0.1939
    100  CA         4.2590    7.9740   14.3940 C.3   316  GLY316      0.2014
    101  C          4.4770    9.0730   13.4120 C.2   316  GLY316      0.2640
    102  O          4.2220    8.9070   12.2330 O.2   316  GLY316     -0.2714
    103  N          4.9320   10.2030   13.9130 N.am  317  SER317     -0.1935
    104  CA         5.1940   11.3270   13.0640 C.3   317  SER317      0.2055
    105  C          6.4460   11.9950   13.5130 C.2   317  SER317      0.2644
    106  O          6.7840   12.0060   14.6970 O.2   317  SER317     -0.2714
    107  CB         4.0610   12.3350   13.1430 C.3   317  SER317      0.2130
    108  OG         2.8610   11.7380   12.7360 O.3   317  SER317     -0.2179
    109  N          7.1410   12.5550   12.5460 N.am  318  THR318     -0.1936
    110  CA         8.1090   13.5700   12.8470 C.3   318  THR318      0.2028
    111  C          7.5710   14.8000   12.1580 C.2   318  THR318      0.2642
    112  O          6.4680   14.7720   11.6080 O.2   318  THR318     -0.2714
    113  CB         9.4750   13.2010   12.3110 C.3   318  THR318      0.1808
    114  OG1        9.3630   12.9310   10.9120 O.3   318  THR318     -0.2208
    115  CG2        9.9970   11.9710   13.0360 C.3   318  THR318      0.0379
    116  N          8.3300   15.8840   12.1720 N.am  319  ASN319     -0.1971
    117  CA         7.8460   17.0960   11.5430 C.3   319  ASN319      0.1688
    118  C          7.5960   16.8930   10.0620 C.2   319  ASN319      0.2292
    119  O          6.6950   17.5010    9.4890 O.2   319  ASN319     -0.2864
    120  CB         8.8100   18.2480   11.7830 C.3   319  ASN319      0.1181
    121  CG         8.8550   18.6690   13.2310 C.2   319  ASN319      0.2629
    122  OD1        9.9140   19.0080   13.7580 O.2   319  ASN319     -0.2716
    123  ND2        7.7020   18.6460   13.8860 N.am  319  ASN319     -0.0877
    124  N          4.0080   14.6490    7.4860 N.3   342  ASN342     -0.1240
    125  CA         3.2140   14.4270    8.6600 C.3   342  ASN342      0.1653
    126  C          1.8010   14.8380    8.3200 C.2   342  ASN342      0.2266
    127  O          1.4150   15.9910    8.4700 O.2   342  ASN342     -0.2867
    128  CB         3.7450   15.2370    9.8340 C.3   342  ASN342      0.1155
    129  CG         2.9010   15.0750   11.0740 C.2   342  ASN342      0.2627
    130  OD1        1.9480   14.3020   11.0910 O.2   342  ASN342     -0.2716
    131  ND2        3.2430   15.8080   12.1200 N.am  342  ASN342     -0.0877
    132  N         -3.1350   11.6360   11.3080 N.3   345  ASN345     -0.1240
    133  CA        -3.2420   10.2310   11.6350 C.3   345  ASN345      0.1653
    134  C         -4.4850    9.6030   11.0460 C.2   345  ASN345      0.2266
    135  O         -4.4340    8.4770   10.5660 O.2   345  ASN345     -0.2867
    136  CB        -3.2550   10.0390   13.1390 C.3   345  ASN345      0.1155
    137  CG        -1.9060   10.2670   13.7620 C.2   345  ASN345      0.2627
    138  OD1       -0.8920   10.3600   13.0700 O.2   345  ASN345     -0.2716
    139  ND2       -1.8810   10.3490   15.0810 N.am  345  ASN345     -0.0877
@<TRIPOS>BOND
     1   124   125    1
     2   126   127    2
     3   126   125    1
     4   125   128    1
     5   119   118    2
     6   128   129    1
     7   118   117    1
     8   135   134    2
     9    44    45    1
    10   114   113    1
    11   134   133    1
    12   129   130    2
    13   129   131   am
    14   132   133    1
    15   117   120    1
    16   117   116    1
    17   112   111    2
    18   133   136    1
    19   120   121    1
    20   111   116   am
    21   111   110    1
    22   102   101    2
    23    45    46    1
    24    45    48    1
    25   113   110    1
    26   113   115    1
    27    47    46    2
    28   109   110    1
    29   109   105   am
    30   108   107    1
    31    49    48    1
    32    46    51   am
    33    48    50    1
    34   104   107    1
    35   104   105    1
    36   104   103    1
    37   138   137    2
    38   136   137    1
    39   121   122    2
    40   121   123   am
    41   101   103   am
    42   101   100    1
    43   105   106    2
    44    51    52    1
    45   137   139   am
    46    86    85    2
    47    99   100    1
    48    99    94   am
    49    98    96    1
    50    52    53    1
    51    93    96    1
    52    93    94    1
    53    93    92    1
    54    96    97    1
    55    94    95    2
    56    85    92   am
    57    85    84    1
    58    83    84    1
    59    69    68    2
    60    53    54    2
    61    53    55   am
    62    61    55    1
    63    61    60    1
    64    84    87    1
    65     1     2    1
    66    55    56    1
    67    87    88    1
    68    60    59    1
    69    68    67    1
    70     3     2    1
    71     3     4    2
    72    72    74   ar
    73    72    71   ar
    74     2     5    1
    75    88    89    1
    76    70    67    1
    77    70    71    1
    78    67    66    1
    79    56    59    1
    80    56    57    1
    81    74    76   ar
    82     5     6    1
    83    71    73   ar
    84    58    57    2
    85    57    62   am
    86    89    90    1
    87    91    90    1
    88    76    77    1
    89    76    75   ar
    90    73    75   ar
    91    62    63    1
    92    23    21   am
    93    35    34    1
    94    22    21    2
    95    21    20    1
    96    63    64    1
    97    82    79    1
    98    43    41   am
    99    34    33   ar
   100    34    32   ar
   101    14    12    1
   102    33    31   ar
   103    65    64    2
   104    20    19    1
   105    78    79    1
   106    42    41    2
   107    32    30   ar
   108    13    12    1
   109    79    80    1
   110    41    40    1
   111    12    11    1
   112    31    29   ar
   113    30    29   ar
   114    19    16    1
   115    80    81    2
   116    29    28    1
   117    40    37    1
   118    11     8    1
   119    10     9    2
   120    28    25    1
   121    16    15    1
   122    16    17    1
   123     9    15   am
   124     9     8    1
   125    37    36    1
   126    37    38    1
   127     8     7    1
   128    17    18    2
   129    25    26    1
   130    25    24    1
   131    27    26    2
   132    38    39    2
