@<TRIPOS>MOLECULE
tmp/3s20A00.pdb
 143 131 0 0 0
SMALL
GASTEIGER

@<TRIPOS>ATOM
      1  N         -8.8800    7.8740  -10.9080 N.3    97  VAL97      -0.1245
      2  CA        -7.5790    8.3580  -11.3570 C.3    97  VAL97       0.1561
      3  C         -7.1970    7.6110  -12.6420 C.2    97  VAL97       0.2260
      4  O         -6.7800    8.2220  -13.6280 O.2    97  VAL97      -0.2867
      5  CB        -6.5090    8.1770  -10.2680 C.3    97  VAL97       0.0252
      6  CG1       -5.1050    8.3770  -10.8460 C.3    97  VAL97       0.0019
      7  CG2       -6.7720    9.1470   -9.1080 C.3    97  VAL97       0.0019
      8  N         -7.6060   13.3550   -7.9330 N.3   128  ALA128     -0.1231
      9  CA        -6.8450   12.4660   -7.0650 C.3   128  ALA128      0.1694
     10  C         -7.8190   11.6670   -6.1910 C.2   128  ALA128      0.2592
     11  O         -8.8630   11.2440   -6.6760 O.2   128  ALA128     -0.2718
     12  CB        -5.8200   13.2560   -6.2320 C.3   128  ALA128      0.0304
     13  N         -7.4800   11.4820   -4.9130 N.am  129  CYS129     -0.1970
     14  CA        -8.2390   10.5850   -4.0360 C.3   129  CYS129      0.1712
     15  C         -9.5540   11.1530   -3.4910 C.2   129  CYS129      0.2296
     16  O        -10.2750   10.4690   -2.7680 O.2   129  CYS129     -0.2864
     17  CB        -7.3670   10.0960   -2.8760 C.3   129  CYS129      0.0983
     18  SG        -5.9280    9.1270   -3.4000 S.3   129  CYS129     -0.0798
     19  N         -0.3440    0.8950   -3.6070 N.3   189  LEU189     -0.1245
     20  CA        -1.6140    1.0740   -4.3050 C.3   189  LEU189      0.1561
     21  C         -2.3030   -0.2750   -4.5160 C.2   189  LEU189      0.2260
     22  O         -1.6590   -1.3170   -4.4530 O.2   189  LEU189     -0.2867
     23  CB        -1.3900    1.7670   -5.6470 C.3   189  LEU189      0.0270
     24  CG        -0.7210    3.1390   -5.5480 C.3   189  LEU189      0.0019
     25  CD1       -0.4260    3.6720   -6.9380 C.3   189  LEU189      0.0001
     26  CD2       -1.6130    4.0890   -4.7640 C.3   189  LEU189      0.0001
     27  N          2.6900   14.8970   -4.7110 N.3   225  CYS225     -0.1235
     28  CA         2.4270   13.5890   -5.2750 C.3   225  CYS225      0.1677
     29  C          2.0100   13.7230   -6.7290 C.2   225  CYS225      0.2270
     30  O          0.9210   14.2260   -7.0290 O.2   225  CYS225     -0.2867
     31  CB         1.3260   12.8780   -4.4930 C.3   225  CYS225      0.0956
     32  SG         0.9820   11.1910   -5.0820 S.3   225  CYS225     -0.0801
     33  N          4.4020    6.8400  -10.2000 N.3   232  MET232     -0.1245
     34  CA         3.9430    7.7750   -9.1790 C.3   232  MET232      0.1570
     35  C          5.0980    8.1490   -8.2600 C.2   232  MET232      0.2261
     36  O          5.7910    7.2850   -7.7280 O.2   232  MET232     -0.2867
     37  CB         2.7840    7.1950   -8.3600 C.3   232  MET232      0.0387
     38  CG         2.2160    8.1850   -7.3360 C.3   232  MET232      0.0595
     39  SD         0.8150    7.5670   -6.3750 S.3   232  MET232     -0.1393
     40  CE         1.6330    6.4410   -5.2480 C.3   232  MET232      0.0692
     41  N          6.1880   10.4410   -4.8690 N.3   234  THR234     -0.1218
     42  CA         5.5070   10.9780   -3.7000 C.3   234  THR234      0.1862
     43  C          6.5140   11.4350   -2.6540 C.2   234  THR234      0.2287
     44  O          7.5130   10.7510   -2.4100 O.2   234  THR234     -0.2866
     45  CB         4.6260    9.8880   -3.0760 C.3   234  THR234      0.1770
     46  OG1        3.7690    9.3300   -4.0820 O.3   234  THR234     -0.2211
     47  CG2        3.7820   10.4490   -1.9530 C.3   234  THR234      0.0375
     48  N          3.6710   15.0600    2.6490 N.3   239  LEU239     -0.1231
     49  CA         2.2580   14.7480    2.4830 C.3   239  LEU239      0.1693
     50  C          1.6400   14.5820    3.8550 C.2   239  LEU239      0.2591
     51  O          0.5650   15.1020    4.1400 O.2   239  LEU239     -0.2718
     52  CB         2.0650   13.4630    1.6780 C.3   239  LEU239      0.0284
     53  CG         1.9650   13.5670    0.1610 C.3   239  LEU239      0.0019
     54  CD1        1.6460   12.1830   -0.4000 C.3   239  LEU239      0.0001
     55  CD2        0.8850   14.5690   -0.2530 C.3   239  LEU239      0.0001
     56  N          2.3380   13.8600    4.7210 N.am  240  LEU240     -0.1980
     57  CA         1.8400   13.6420    6.0720 C.3   240  LEU240      0.1596
     58  C          1.6800   14.9450    6.8530 C.2   240  LEU240      0.2287
     59  O          0.6000   15.2460    7.3710 O.2   240  LEU240     -0.2864
     60  CB         2.7550   12.6710    6.8250 C.3   240  LEU240      0.0297
     61  CG         2.3630   12.3820    8.2740 C.3   240  LEU240      0.0022
     62  CD1        0.9610   11.7980    8.3170 C.3   240  LEU240      0.0001
     63  CD2        3.3580   11.4310    8.9170 C.3   240  LEU240      0.0001
     64  N         -0.6600   17.4810    5.0130 N.3   243  GLY243     -0.1210
     65  CA        -1.9900   16.8970    4.9830 C.3   243  GLY243      0.1956
     66  C         -2.7070   17.0900    6.3030 C.2   243  GLY243      0.2611
     67  O         -3.8720   17.4960    6.3360 O.2   243  GLY243     -0.2717
     68  N         -2.0180   16.7910    7.4020 N.am  244  ILE244     -0.1979
     69  CA        -2.6160   16.9320    8.7270 C.3   244  ILE244      0.1595
     70  C         -2.9510   18.3970    9.0390 C.2   244  ILE244      0.2287
     71  O         -3.9990   18.7020    9.6120 O.2   244  ILE244     -0.2864
     72  CB        -1.6940   16.3630    9.8390 C.3   244  ILE244      0.0276
     73  CG1       -1.4670   14.8650    9.6430 C.3   244  ILE244      0.0022
     74  CG2       -2.2790   16.6420   11.2280 C.3   244  ILE244      0.0022
     75  CD1       -2.7300   14.0380    9.7050 C.3   244  ILE244      0.0001
     76  N         -9.9090    8.2370    3.7850 N.3   271  HIS271     -0.1241
     77  CA        -9.0830    7.7600    2.7110 C.3   271  HIS271      0.1621
     78  C         -7.8400    7.2370    3.4030 C.2   271  HIS271      0.2264
     79  O         -7.3890    7.8180    4.3830 O.2   271  HIS271     -0.2867
     80  CB        -8.7360    8.8530    1.7170 C.3   271  HIS271      0.0745
     81  CG        -7.6840    8.4370    0.7480 C.ar  271  HIS271      0.0817
     82  ND1       -7.8840    7.4340   -0.1770 N.ar  271  HIS271     -0.2268
     83  CD2       -6.4010    8.8400    0.5980 C.ar  271  HIS271      0.1154
     84  CE1       -6.7750    7.2510   -0.8700 C.ar  271  HIS271      0.1986
     85  NE2       -5.8610    8.0990   -0.4250 N.ar  271  HIS271     -0.2212
     86  N         -3.8810    6.1480    3.2360 N.3   273  VAL273     -0.1245
     87  CA        -2.5860    6.2070    2.5760 C.3   273  VAL273      0.1561
     88  C         -1.5920    5.1920    3.1540 C.2   273  VAL273      0.2260
     89  O         -0.7440    4.6710    2.4290 O.2   273  VAL273     -0.2867
     90  CB        -2.0060    7.6230    2.6690 C.3   273  VAL273      0.0252
     91  CG1       -0.6100    7.6750    2.0800 C.3   273  VAL273      0.0019
     92  CG2       -2.9340    8.6010    1.9670 C.3   273  VAL273      0.0019
     93  N          0.0690    7.0880    8.5080 N.3   277  HIS277     -0.1241
     94  CA        -0.6970    8.2830    8.1620 C.3   277  HIS277      0.1621
     95  C         -2.0580    8.2380    8.8470 C.2   277  HIS277      0.2264
     96  O         -2.5600    9.2480    9.3450 O.2   277  HIS277     -0.2867
     97  CB        -0.8660    8.4130    6.6450 C.3   277  HIS277      0.0745
     98  CG         0.3610    8.9100    5.9430 C.ar  277  HIS277      0.0817
     99  ND1        1.5670    8.2420    5.9890 N.ar  277  HIS277     -0.2268
    100  CD2        0.5720   10.0130    5.1860 C.ar  277  HIS277      0.1154
    101  CE1        2.4650    8.9120    5.2890 C.ar  277  HIS277      0.1986
    102  NE2        1.8880    9.9900    4.7910 N.ar  277  HIS277     -0.2212
    103  N         -3.5170   10.7490   11.7790 N.3   281  PHE281     -0.1241
    104  CA        -4.7990   11.4080   11.5760 C.3   281  PHE281      0.1605
    105  C         -5.7140   11.1850   12.7760 C.2   281  PHE281      0.2264
    106  O         -6.3520   12.1150   13.2720 O.2   281  PHE281     -0.2867
    107  CB        -5.4580   10.8670   10.3110 C.3   281  PHE281      0.0534
    108  CG        -6.6670   11.6400    9.8760 C.ar  281  PHE281     -0.0203
    109  CD1       -6.5790   12.5700    8.8480 C.ar  281  PHE281     -0.0042
    110  CD2       -7.8940   11.4330   10.4850 C.ar  281  PHE281     -0.0042
    111  CE1       -7.6970   13.2910    8.4400 C.ar  281  PHE281     -0.0003
    112  CE2       -9.0140   12.1450   10.0880 C.ar  281  PHE281     -0.0003
    113  CZ        -8.9150   13.0790    9.0620 C.ar  281  PHE281     -0.0000
    114  N         -4.0950    1.0140   -1.0960 N.3   301  ASN301     -0.1240
    115  CA        -4.7450    2.3080   -1.3140 C.3   301  ASN301      0.1653
    116  C         -5.4140    2.2980   -2.6810 C.2   301  ASN301      0.2266
    117  O         -4.7230    2.2480   -3.7020 O.2   301  ASN301     -0.2867
    118  CB        -3.6580    3.3890   -1.2330 C.3   301  ASN301      0.1155
    119  CG        -4.1570    4.7800   -1.5710 C.2   301  ASN301      0.2627
    120  OD1       -5.3270    4.9890   -1.8820 O.2   301  ASN301     -0.2716
    121  ND2       -3.2510    5.7440   -1.5090 N.am  301  ASN301     -0.0877
    122  N         -7.0470    4.6450   -4.1420 N.3   303  GLY303     -0.1225
    123  CA        -7.2790    6.0020   -4.6270 C.3   303  GLY303      0.1811
    124  C         -8.6720    6.5010   -4.2680 C.2   303  GLY303      0.2280
    125  O         -9.1530    6.2670   -3.1640 O.2   303  GLY303     -0.2866
    126  N         -7.8110   13.3240    2.5000 N.3   331  ILE331     -0.1231
    127  CA        -6.8130   14.3020    2.0700 C.3   331  ILE331      0.1692
    128  C         -6.3300   13.8150    0.7130 C.2   331  ILE331      0.2593
    129  O         -5.8790   12.6910    0.6030 O.2   331  ILE331     -0.2718
    130  CB        -5.6300   14.3540    3.0410 C.3   331  ILE331      0.0266
    131  CG1       -6.0830   14.8970    4.4000 C.3   331  ILE331      0.0019
    132  CG2       -4.5050   15.2130    2.4790 C.3   331  ILE331      0.0020
    133  CD1       -5.2360   14.4000    5.5590 C.3   331  ILE331      0.0001
    134  N         -6.4490   14.6420   -0.3200 N.am  332  GLY332     -0.1942
    135  CA        -6.0560   14.2400   -1.6600 C.3   332  GLY332      0.2014
    136  C         -4.9630   15.1370   -2.2190 C.2   332  GLY332      0.2639
    137  O         -4.8260   16.2940   -1.8140 O.2   332  GLY332     -0.2714
    138  N         -4.1890   14.6020   -3.1570 N.am  333  SER333     -0.1949
    139  CA        -3.1070   15.3650   -3.7780 C.3   333  SER333      0.1924
    140  C         -3.6690   16.6580   -4.3300 C.2   333  SER333      0.2314
    141  O         -4.7500   16.6670   -4.9290 O.2   333  SER333     -0.2863
    142  CB        -2.4780   14.5630   -4.9140 C.3   333  SER333      0.2116
    143  OG        -1.9780   13.3410   -4.4080 O.3   333  SER333     -0.2180
@<TRIPOS>BOND
     1     4     3    2
     2     3     2    1
     3     2     1    1
     4     2     5    1
     5     6     5    1
     6     5     7    1
     7    33    34    1
     8    34    37    1
     9    34    35    1
    10    37    38    1
    11    35    36    2
    12     8     9    1
    13    38    39    1
    14     9    12    1
    15     9    10    1
    16    30    29    2
    17    25    24    1
    18    29    28    1
    19    11    10    2
    20    39    40    1
    21    10    13   am
    22    23    24    1
    23    23    20    1
    24    24    26    1
    25    28    27    1
    26    28    31    1
    27    32    31    1
    28   141   140    2
    29   142   143    1
    30   142   139    1
    31    13    14    1
    32    41    42    1
    33   123   124    1
    34   123   122    1
    35    21    22    2
    36    21    20    1
    37   140   139    1
    38    20    19    1
    39   124   125    2
    40    46    45    1
    41    14    15    1
    42    14    17    1
    43   139   138    1
    44   117   116    2
    45    42    45    1
    46    42    43    1
    47    15    16    2
    48    18    17    1
    49   138   136   am
    50    45    47    1
    51   116   115    1
    52    43    44    2
    53   136   137    2
    54   136   135    1
    55   120   119    2
    56   135   134    1
    57   119   121   am
    58   119   118    1
    59   115   118    1
    60   115   114    1
    61    84    85   ar
    62    84    82   ar
    63    85    83   ar
    64    54    53    1
    65   134   128   am
    66    55    53    1
    67    82    81   ar
    68    53    52    1
    69    83    81   ar
    70   129   128    2
    71   128   127    1
    72    81    80    1
    73    52    49    1
    74    80    77    1
    75    92    90    1
    76   127   126    1
    77   127   130    1
    78    91    90    1
    79    89    88    2
    80   132   130    1
    81    49    48    1
    82    49    50    1
    83    87    90    1
    84    87    88    1
    85    87    86    1
    86    77    78    1
    87    77    76    1
    88   130   131    1
    89    78    79    2
    90    50    51    2
    91    50    56   am
    92   131   133    1
    93    56    57    1
    94   102   100   ar
    95   102   101   ar
    96    65    64    1
    97    65    66    1
    98   100    98   ar
    99   101    99   ar
   100    98    99   ar
   101    98    97    1
   102    57    60    1
   103    57    58    1
   104    66    67    2
   105    66    68   am
   106    97    94    1
   107    60    61    1
   108    58    59    2
   109    68    69    1
   110    94    93    1
   111    94    95    1
   112    61    62    1
   113    61    63    1
   114   111   109   ar
   115   111   113   ar
   116    69    70    1
   117    69    72    1
   118    95    96    2
   119   109   108   ar
   120    70    71    2
   121   113   112   ar
   122    73    75    1
   123    73    72    1
   124    72    74    1
   125   108   107    1
   126   108   110   ar
   127   112   110   ar
   128   107   104    1
   129   104   103    1
   130   104   105    1
   131   105   106    2
