@<TRIPOS>MOLECULE
tmp/3s22A00.pdb
 153 148 0 0 0
SMALL
GASTEIGER

@<TRIPOS>ATOM
      1  N          7.4230    8.3280   16.8610 N.3    62  SER62      -0.1217
      2  CA         6.9740    7.5090   18.0100 C.3    62  SER62       0.1889
      3  C          6.7410    6.0140   17.7460 C.2    62  SER62       0.2288
      4  O          6.5930    5.2370   18.6920 O.2    62  SER62      -0.2866
      5  CB         5.6960    8.0970   18.6280 C.3    62  SER62       0.2089
      6  OG         5.9420    9.3690   19.2350 O.3    62  SER62      -0.2183
      7  N          3.8920   15.7580   27.1080 N.3   117  LEU117     -0.1231
      8  CA         4.0510   15.1340   25.7930 C.3   117  LEU117      0.1693
      9  C          5.5130   15.0630   25.3900 C.2   117  LEU117      0.2592
     10  O          5.9740   14.0310   24.9270 O.2   117  LEU117     -0.2718
     11  CB         3.2920   15.9390   24.7250 C.3   117  LEU117      0.0284
     12  CG         3.4360   15.4570   23.2810 C.3   117  LEU117      0.0019
     13  CD1        2.7640   14.0940   23.0590 C.3   117  LEU117      0.0001
     14  CD2        2.8310   16.5210   22.3810 C.3   117  LEU117      0.0001
     15  N          6.2130   16.1900   25.5650 N.am  118  GLN118     -0.1966
     16  CA         7.6230   16.3260   25.2170 C.3   118  GLN118      0.1733
     17  C          8.3700   16.9320   26.3740 C.2   118  GLN118      0.2616
     18  O          7.7910   17.6500   27.1740 O.2   118  GLN118     -0.2715
     19  CB         7.8000   17.3290   24.0820 C.3   118  GLN118      0.0408
     20  CG         6.9520   17.1150   22.8680 C.3   118  GLN118      0.0908
     21  CD         7.0700   18.2920   21.9260 C.2   118  GLN118      0.2608
     22  OE1        8.0420   18.4030   21.1750 O.2   118  GLN118     -0.2717
     23  NE2        6.1010   19.1960   21.9830 N.am  118  GLN118     -0.0878
     24  N          9.6760   16.6940   26.4220 N.am  119  PHE119     -0.1960
     25  CA        10.5420   17.4820   27.2870 C.3   119  PHE119      0.1756
     26  C         10.3570   18.9560   26.9360 C.2   119  PHE119      0.2461
     27  O         10.1930   19.2900   25.7660 O.2   119  PHE119     -0.2730
     28  CB        12.0040   17.1410   27.0310 C.3   119  PHE119      0.0574
     29  CG        12.4710   15.8790   27.7000 C.ar  119  PHE119     -0.0200
     30  CD1       12.8200   15.8870   29.0470 C.ar  119  PHE119     -0.0042
     31  CD2       12.5980   14.6960   26.9650 C.ar  119  PHE119     -0.0042
     32  CE1       13.2710   14.7070   29.6770 C.ar  119  PHE119     -0.0003
     33  CE2       13.0590   13.5180   27.5780 C.ar  119  PHE119     -0.0003
     34  CZ        13.3960   13.5360   28.9350 C.ar  119  PHE119     -0.0000
     35  N         10.4220   19.8460   27.9380 N.am  120  PRO120     -0.2716
     36  CA        10.3520   21.2780   27.6460 C.3   120  PRO120      0.1536
     37  C         11.5480   21.7000   26.7930 C.2   120  PRO120      0.2598
     38  O         12.5800   21.0200   26.7950 O.2   120  PRO120     -0.2715
     39  CB        10.4310   21.9440   29.0230 C.3   120  PRO120      0.0310
     40  CG        10.2840   20.8710   30.0210 C.3   120  PRO120      0.0237
     41  CD        10.5780   19.5670   29.3750 C.3   120  PRO120      0.0939
     42  N         11.3960   22.8060   26.0650 N.am  121  ASP121     -0.1972
     43  CA        12.4580   23.3300   25.2080 C.3   121  ASP121      0.1709
     44  C         13.7670   23.5990   25.9660 C.2   121  ASP121      0.2293
     45  O         14.8520   23.5370   25.3790 O.2   121  ASP121     -0.2864
     46  CB        11.9800   24.6160   24.5140 C.3   121  ASP121      0.1436
     47  CG        11.1970   24.4140   23.2640 C.2   121  ASP121      0.3671
     48  OD1       11.0510   23.3060   22.7930 O.co2 121  ASP121     -0.2456
     49  OD2       10.7540   25.5020   22.7130 O.co2 121  ASP121     -0.2456
     50  N         -0.1850   10.7990   27.4440 N.3   149  TYR149     -0.1241
     51  CA         0.7900   10.3230   26.4890 C.3   149  TYR149      0.1605
     52  C          2.0600   11.1960   26.5750 C.2   149  TYR149      0.2264
     53  O          1.9760   12.4270   26.5800 O.2   149  TYR149     -0.2867
     54  CB         0.1600   10.3280   25.0930 C.3   149  TYR149      0.0534
     55  CG         1.0700    9.8120   24.0170 C.ar  149  TYR149     -0.0201
     56  CD1        1.2400    8.4480   23.8070 C.ar  149  TYR149     -0.0009
     57  CD2        1.7560   10.6950   23.2030 C.ar  149  TYR149     -0.0009
     58  CE1        2.1080    7.9700   22.8270 C.ar  149  TYR149      0.0417
     59  CE2        2.6000   10.2470   22.2150 C.ar  149  TYR149      0.0417
     60  CZ         2.7890    8.8970   22.0310 C.ar  149  TYR149      0.1957
     61  OH         3.6300    8.4750   21.0270 O.3   149  TYR149     -0.2866
     62  N          6.5160   11.4000   25.7560 N.3   151  ASN151     -0.1240
     63  CA         7.8790   11.0190   25.3890 C.3   151  ASN151      0.1653
     64  C          8.8240   10.8890   26.5980 C.2   151  ASN151      0.2266
     65  O          9.5430    9.8860   26.7050 O.2   151  ASN151     -0.2867
     66  CB         8.4490   11.9970   24.3510 C.3   151  ASN151      0.1155
     67  CG         7.9770   11.6950   22.9310 C.2   151  ASN151      0.2627
     68  OD1        7.1060   10.8520   22.7120 O.2   151  ASN151     -0.2716
     69  ND2        8.5550   12.3890   21.9570 N.am  151  ASN151     -0.0877
     70  N         14.9630   15.1660   11.4120 N.3   211  VAL211     -0.1245
     71  CA        14.9090   15.2480   12.8640 C.3   211  VAL211      0.1561
     72  C         16.2910   15.5230   13.4720 C.2   211  VAL211      0.2260
     73  O         17.2890   14.9030   13.0920 O.2   211  VAL211     -0.2867
     74  CB        14.2340   13.9920   13.4720 C.3   211  VAL211      0.0252
     75  CG1       15.0940   12.7430   13.2700 C.3   211  VAL211      0.0019
     76  CG2       13.9200   14.2220   14.9710 C.3   211  VAL211      0.0019
     77  N         17.6160   15.4730   20.3360 N.3   214  GLY214     -0.1210
     78  CA        16.7960   15.9030   21.4640 C.3   214  GLY214      0.1940
     79  C         16.9850   14.9450   22.6290 C.2   214  GLY214      0.2453
     80  O         17.4770   13.8240   22.4400 O.2   214  GLY214     -0.2732
     81  N         16.6260   15.3820   23.8470 N.am  215  PRO215     -0.2728
     82  CA        16.7780   14.5000   25.0160 C.3   215  PRO215      0.1401
     83  C         15.9580   13.2080   24.8840 C.2   215  PRO215      0.2269
     84  O         14.7650   13.2430   24.5870 O.2   215  PRO215     -0.2865
     85  CB        16.2710   15.3770   26.1820 C.3   215  PRO215      0.0296
     86  CG        15.3960   16.4190   25.5310 C.3   215  PRO215      0.0237
     87  CD        16.0800   16.7040   24.2200 C.3   215  PRO215      0.0939
     88  N         11.7930    8.5220   19.7110 N.3   221  TYR221     -0.1241
     89  CA        11.4890    8.8090   18.3150 C.3   221  TYR221      0.1605
     90  C         12.6810    8.6810   17.3530 C.2   221  TYR221      0.2264
     91  O         12.6980    9.3210   16.2990 O.2   221  TYR221     -0.2867
     92  CB        10.8080   10.1910   18.2130 C.3   221  TYR221      0.0534
     93  CG        11.6190   11.3500   18.7900 C.ar  221  TYR221     -0.0201
     94  CD1       12.4900   12.0720   17.9890 C.ar  221  TYR221     -0.0009
     95  CD2       11.5030   11.7270   20.1400 C.ar  221  TYR221     -0.0009
     96  CE1       13.2400   13.1420   18.5030 C.ar  221  TYR221      0.0417
     97  CE2       12.2550   12.8140   20.6630 C.ar  221  TYR221      0.0417
     98  CZ        13.1110   13.5070   19.8250 C.ar  221  TYR221      0.1957
     99  OH        13.8650   14.5650   20.2990 O.3   221  TYR221     -0.2866
    100  N         -3.6240   12.0770   22.4930 N.3   291  ALA291     -0.1245
    101  CA        -2.2150   12.3520   22.6450 C.3   291  ALA291      0.1562
    102  C         -2.0040   13.4920   23.6160 C.2   291  ALA291      0.2260
    103  O         -0.9600   13.5820   24.2510 O.2   291  ALA291     -0.2867
    104  CB        -1.5840   12.6810   21.2850 C.3   291  ALA291      0.0290
    105  N          0.4580    1.6500   16.0450 N.3   314  LYS314     -0.1231
    106  CA         1.1130    2.8120   16.6430 C.3   314  LYS314      0.1693
    107  C          1.2640    3.8800   15.5700 C.2   314  LYS314      0.2593
    108  O          1.6560    3.5650   14.4390 O.2   314  LYS314     -0.2718
    109  CB         2.4910    2.4390   17.2340 C.3   314  LYS314      0.0285
    110  CG         3.1840    3.6160   17.9810 C.3   314  LYS314      0.0035
    111  CD         2.4380    3.9850   19.2800 C.3   314  LYS314      0.0206
    112  CE         3.0570    5.1960   20.0230 C.3   314  LYS314      0.1093
    113  NZ         2.5190    6.4880   19.4490 N.3   314  LYS314     -0.1314
    114  N          0.8850    5.1150   15.9120 N.am  315  THR315     -0.1939
    115  CA         1.2150    6.2810   15.0840 C.3   315  THR315      0.2028
    116  C          2.5620    6.8960   15.5100 C.2   315  THR315      0.2643
    117  O          2.9780    6.7980   16.6670 O.2   315  THR315     -0.2714
    118  CB         0.1400    7.3920   15.2500 C.3   315  THR315      0.1808
    119  OG1        0.0180    7.6970   16.6350 O.3   315  THR315     -0.2208
    120  CG2       -1.2050    6.9620   14.7290 C.3   315  THR315      0.0379
    121  N          3.2220    7.5840   14.5950 N.am  316  GLY316     -0.1939
    122  CA         4.4140    8.3360   14.9820 C.3   316  GLY316      0.2014
    123  C          4.7110    9.4030   13.9540 C.2   316  GLY316      0.2640
    124  O          4.4790    9.1810   12.7750 O.2   316  GLY316     -0.2714
    125  N          5.2660   10.5270   14.4120 N.am  317  SER317     -0.1935
    126  CA         5.5850   11.6690   13.5590 C.3   317  SER317      0.2055
    127  C          6.8610   12.3380   13.9880 C.2   317  SER317      0.2644
    128  O          7.2940   12.2450   15.1450 O.2   317  SER317     -0.2714
    129  CB         4.4540   12.7120   13.5930 C.3   317  SER317      0.2130
    130  OG         3.2140   12.0940   13.2990 O.3   317  SER317     -0.2179
    131  N          7.4730   13.0220   13.0390 N.am  318  THR318     -0.1936
    132  CA         8.4650   14.0330   13.3490 C.3   318  THR318      0.2028
    133  C          8.0290   15.2860   12.5970 C.2   318  THR318      0.2642
    134  O          6.9660   15.2850   11.9530 O.2   318  THR318     -0.2714
    135  CB         9.8480   13.6040   12.8650 C.3   318  THR318      0.1808
    136  OG1        9.7690   13.3710   11.4540 O.3   318  THR318     -0.2208
    137  CG2       10.2920   12.3310   13.5810 C.3   318  THR318      0.0379
    138  N          8.8080   16.3670   12.6510 N.am  319  ASN319     -0.1971
    139  CA         8.3220   17.5910   12.0040 C.3   319  ASN319      0.1688
    140  C          8.0740   17.3540   10.5170 C.2   319  ASN319      0.2292
    141  O          7.1870   17.9640    9.9370 O.2   319  ASN319     -0.2864
    142  CB         9.2870   18.7660   12.1950 C.3   319  ASN319      0.1181
    143  CG         9.3500   19.2700   13.6340 C.2   319  ASN319      0.2629
    144  OD1       10.3700   19.8360   14.0590 O.2   319  ASN319     -0.2716
    145  ND2        8.2700   19.1050   14.3710 N.am  319  ASN319     -0.0877
    146  N         -3.1680   12.0590   11.7170 N.3   345  ASN345     -0.1240
    147  CA        -3.3030   10.6390   12.0590 C.3   345  ASN345      0.1653
    148  C         -4.5650   10.0390   11.4530 C.2   345  ASN345      0.2266
    149  O         -4.5570    8.8940   10.9930 O.2   345  ASN345     -0.2867
    150  CB        -3.3780   10.4380   13.5750 C.3   345  ASN345      0.1155
    151  CG        -2.0500   10.6590   14.2870 C.2   345  ASN345      0.2627
    152  OD1       -1.0070   10.8670   13.6640 O.2   345  ASN345     -0.2716
    153  ND2       -2.1040   10.6610   15.6370 N.am  345  ASN345     -0.0877
@<TRIPOS>BOND
     1   141   140    2
     2   140   139    1
     3   149   148    2
     4    70    71    1
     5   148   147    1
     6   136   135    1
     7   146   147    1
     8   134   133    2
     9   139   142    1
    10   139   138    1
    11   147   150    1
    12   142   143    1
    13   133   138   am
    14   133   132    1
    15   124   123    2
    16    71    74    1
    17    71    72    1
    18   135   132    1
    19   135   137    1
    20   131   132    1
    21   131   127   am
    22    73    72    2
    23    75    74    1
    24   130   129    1
    25    74    76    1
    26   126   129    1
    27   126   127    1
    28   126   125    1
    29   150   151    1
    30   143   144    2
    31   143   145   am
    32   152   151    2
    33   123   125   am
    34   123   122    1
    35   127   128    2
    36   151   153   am
    37   108   107    2
    38   121   122    1
    39   121   116   am
    40   120   118    1
    41   115   118    1
    42   115   116    1
    43   115   114    1
    44   118   119    1
    45   116   117    2
    46   107   114   am
    47   107   106    1
    48   105   106    1
    49    91    90    2
    50   106   109    1
    51     1     2    1
    52   109   110    1
    53    90    89    1
    54     3     2    1
    55     3     4    2
    56   110   111    1
    57    94    96   ar
    58    94    93   ar
    59     2     5    1
    60    92    89    1
    61    92    93    1
    62    89    88    1
    63    96    98   ar
    64     5     6    1
    65    93    95   ar
    66   111   112    1
    67   113   112    1
    68    98    99    1
    69    98    97   ar
    70    95    97   ar
    71    77    78    1
    72    61    60    1
    73    22    21    2
    74   104   101    1
    75    78    79    1
    76    21    23   am
    77    21    20    1
    78    69    67   am
    79    60    59   ar
    80    60    58   ar
    81    59    57   ar
    82    14    12    1
    83    80    79    2
    84   100   101    1
    85    79    81   am
    86   101   102    1
    87    68    67    2
    88    49    47   ar
    89    48    47   ar
    90    58    56   ar
    91    20    19    1
    92    67    66    1
    93    13    12    1
    94    57    55   ar
    95    47    46    1
    96    12    11    1
    97   102   103    2
    98    56    55   ar
    99    81    87    1
   100    81    82    1
   101    55    54    1
   102    19    16    1
   103    87    86    1
   104    66    63    1
   105    46    43    1
   106    84    83    2
   107    11     8    1
   108    83    82    1
   109    10     9    2
   110    82    85    1
   111    54    51    1
   112    43    44    1
   113    43    42    1
   114    16    15    1
   115    16    17    1
   116    45    44    2
   117    63    62    1
   118    63    64    1
   119     9    15   am
   120     9     8    1
   121    86    85    1
   122    27    26    2
   123     8     7    1
   124    42    37   am
   125    17    24   am
   126    17    18    2
   127    24    25    1
   128    51    52    1
   129    51    50    1
   130    52    53    2
   131    64    65    2
   132    37    38    2
   133    37    36    1
   134    26    25    1
   135    26    35   am
   136    31    33   ar
   137    31    29   ar
   138    28    25    1
   139    28    29    1
   140    33    34   ar
   141    36    35    1
   142    36    39    1
   143    29    30   ar
   144    35    41    1
   145    34    32   ar
   146    39    40    1
   147    30    32   ar
   148    41    40    1
