@<TRIPOS>MOLECULE
tmp/3s28B01.pdb
 124 119 0 0 0
SMALL
GASTEIGER

@<TRIPOS>ATOM
      1  N        -90.7670  -66.8250   66.4380 N.3   276  GLY276     -0.1210
      2  CA       -91.8640  -67.7670   66.2920 C.3   276  GLY276      0.1956
      3  C        -91.8590  -68.9220   67.2880 C.2   276  GLY276      0.2611
      4  O        -92.9010  -69.4810   67.6230 O.2   276  GLY276     -0.2717
      5  N        -90.6880  -69.3140   67.7490 N.am  277  GLN277     -0.1979
      6  CA       -90.6480  -70.3160   68.7950 C.3   277  GLN277      0.1601
      7  C        -91.4350  -69.8870   70.0560 C.2   277  GLN277      0.2287
      8  O        -92.2190  -70.6670   70.6040 O.2   277  GLN277     -0.2864
      9  CB       -89.2060  -70.6330   69.1240 C.3   277  GLN277      0.0394
     10  CG       -89.0120  -71.8190   70.0040 C.3   277  GLN277      0.0908
     11  CD       -87.5450  -72.1770   70.0810 C.2   277  GLN277      0.2608
     12  OE1      -86.7530  -71.8320   69.1730 O.2   277  GLN277     -0.2717
     13  NE2      -87.1560  -72.8500   71.1750 N.am  277  GLN277     -0.0878
     14  N        -95.1190  -69.7850   69.1290 N.3   280  TYR280     -0.1241
     15  CA       -95.5680  -71.1600   68.9970 C.3   280  TYR280      0.1605
     16  C        -95.9250  -71.7300   70.3640 C.2   280  TYR280      0.2264
     17  O        -97.0560  -72.1970   70.5840 O.2   280  TYR280     -0.2867
     18  CB       -94.4430  -71.9650   68.3550 C.3   280  TYR280      0.0534
     19  CG       -94.7080  -73.4280   68.1000 C.ar  280  TYR280     -0.0201
     20  CD1      -94.8210  -74.3310   69.1540 C.ar  280  TYR280     -0.0009
     21  CD2      -94.7750  -73.9220   66.7960 C.ar  280  TYR280     -0.0009
     22  CE1      -95.0370  -75.6700   68.9180 C.ar  280  TYR280      0.0417
     23  CE2      -94.9860  -75.2570   66.5470 C.ar  280  TYR280      0.0417
     24  CZ       -95.1190  -76.1280   67.6130 C.ar  280  TYR280      0.1957
     25  OH       -95.3260  -77.4620   67.3780 O.3   280  TYR280     -0.2866
     26  N        -86.1430  -76.5790   70.1940 N.3   388  TYR388     -0.1241
     27  CA       -84.8820  -76.2770   69.5370 C.3   388  TYR388      0.1605
     28  C        -83.6980  -77.1040   70.1030 C.2   388  TYR388      0.2264
     29  O        -83.9160  -78.1230   70.7420 O.2   388  TYR388     -0.2867
     30  CB       -84.6470  -74.7550   69.7060 C.3   388  TYR388      0.0534
     31  CG       -83.5150  -74.1600   68.9040 C.ar  388  TYR388     -0.0201
     32  CD1      -83.6360  -73.9690   67.5370 C.ar  388  TYR388     -0.0009
     33  CD2      -82.3300  -73.7660   69.5200 C.ar  388  TYR388     -0.0009
     34  CE1      -82.6040  -73.4340   66.7980 C.ar  388  TYR388      0.0417
     35  CE2      -81.2930  -73.2300   68.7860 C.ar  388  TYR388      0.0417
     36  CZ       -81.4330  -73.0690   67.4200 C.ar  388  TYR388      0.1957
     37  OH       -80.4070  -72.5330   66.6640 O.3   388  TYR388     -0.2866
     38  N        -87.9810  -76.8250   65.4960 N.3   411  HIS411     -0.1226
     39  CA       -88.3330  -75.4440   65.1270 C.3   411  HIS411      0.1752
     40  C        -87.3470  -74.8930   64.0970 C.2   411  HIS411      0.2595
     41  O        -87.6480  -73.9550   63.3540 O.2   411  HIS411     -0.2718
     42  CB       -88.3060  -74.5130   66.3380 C.3   411  HIS411      0.0759
     43  CG       -89.3260  -74.8290   67.3830 C.ar  411  HIS411      0.0818
     44  ND1      -90.6770  -74.6460   67.1850 N.ar  411  HIS411     -0.2268
     45  CD2      -89.1880  -75.2820   68.6500 C.ar  411  HIS411      0.1154
     46  CE1      -91.3310  -74.9920   68.2780 C.ar  411  HIS411      0.1986
     47  NE2      -90.4500  -75.3790   69.1830 N.ar  411  HIS411     -0.2212
     48  N        -86.1980  -75.5390   64.0010 N.am  412  ALA412     -0.1980
     49  CA       -85.2500  -75.2770   62.9490 C.3   412  ALA412      0.1597
     50  C        -84.0460  -76.1230   63.2650 C.2   412  ALA412      0.2287
     51  O        -83.8100  -76.4550   64.4260 O.2   412  ALA412     -0.2864
     52  CB       -84.8670  -73.8180   62.9330 C.3   412  ALA412      0.0319
     53  N        -79.8300  -74.2660   57.6310 N.3   417  LYS417     -0.1245
     54  CA       -79.8270  -72.8140   57.5440 C.3   417  LYS417      0.1561
     55  C        -78.4420  -72.2680   57.2130 C.2   417  LYS417      0.2260
     56  O        -78.3110  -71.2320   56.5680 O.2   417  LYS417     -0.2867
     57  CB       -80.3780  -72.1960   58.8320 C.3   417  LYS417      0.0271
     58  CG       -81.9140  -72.1450   58.8900 C.3   417  LYS417      0.0035
     59  CD       -82.4500  -71.7760   60.2870 C.3   417  LYS417      0.0206
     60  CE       -82.1370  -70.3400   60.6740 C.3   417  LYS417      0.1093
     61  NZ       -82.5860  -70.0170   62.0580 N.3   417  LYS417     -0.1314
     62  N        -93.5710  -79.5930   61.7280 N.3   454  SER454     -0.1217
     63  CA       -94.6700  -78.7460   61.2520 C.3   454  SER454      0.1889
     64  C        -95.0730  -78.9910   59.8010 C.2   454  SER454      0.2288
     65  O        -96.1010  -78.4820   59.3450 O.2   454  SER454     -0.2866
     66  CB       -94.3510  -77.2620   61.4560 C.3   454  SER454      0.2089
     67  OG       -94.3020  -76.9320   62.8290 O.3   454  SER454     -0.2183
     68  N        -87.3490  -61.3300   62.8010 N.3   553  ARG553     -0.1245
     69  CA       -86.0840  -61.1590   63.4810 C.3   553  ARG553      0.1563
     70  C        -85.0900  -60.7510   62.4060 C.2   553  ARG553      0.2260
     71  O        -85.1980  -61.1780   61.2580 O.2   553  ARG553     -0.2867
     72  CB       -85.6400  -62.4680   64.1260 C.3   553  ARG553      0.0307
     73  CG       -86.4830  -62.9590   65.3110 C.3   553  ARG553      0.0489
     74  CD       -86.0970  -64.4000   65.6630 C.3   553  ARG553      0.2205
     75  NE       -84.7850  -64.7260   65.0900 N.pl3 553  ARG553     -0.0865
     76  CZ       -84.5490  -65.6160   64.1230 C.cat 553  ARG553      0.5346
     77  NH1      -85.5280  -66.3420   63.6000 N.pl3 553  ARG553      0.1354
     78  NH2      -83.3090  -65.7970   63.6940 N.pl3 553  ARG553      0.1354
     79  N        -82.4750  -64.6720   57.7100 N.3   558  LYS558     -0.1245
     80  CA       -83.7540  -64.0220   57.4110 C.3   558  LYS558      0.1561
     81  C        -83.6480  -63.1890   56.1370 C.2   558  LYS558      0.2260
     82  O        -84.6370  -62.9450   55.4470 O.2   558  LYS558     -0.2867
     83  CB       -84.2230  -63.1620   58.5790 C.3   558  LYS558      0.0271
     84  CG       -84.7950  -63.9550   59.7290 C.3   558  LYS558      0.0035
     85  CD       -86.0000  -64.7580   59.2900 C.3   558  LYS558      0.0206
     86  CE       -86.5380  -65.6120   60.4230 C.3   558  LYS558      0.1093
     87  NZ       -87.8610  -66.1860   60.0720 N.3   558  LYS558     -0.1314
     88  N        -86.0190  -71.0750   55.4990 N.3   648  GLU648     -0.1231
     89  CA       -87.0120  -70.8870   56.5460 C.3   648  GLU648      0.1699
     90  C        -87.5600  -72.2470   56.9670 C.2   648  GLU648      0.2592
     91  O        -88.1600  -72.9530   56.1570 O.2   648  GLU648     -0.2718
     92  CB       -88.1340  -69.9900   56.0330 C.3   648  GLU648      0.0402
     93  CG       -89.0870  -69.5230   57.1030 C.3   648  GLU648      0.1161
     94  CD       -88.3820  -68.8410   58.2600 C.2   648  GLU648      0.3649
     95  OE1      -88.9960  -68.7730   59.3510 O.co2 648  GLU648     -0.2457
     96  OE2      -87.2230  -68.3810   58.0800 O.co2 648  GLU648     -0.2457
     97  N        -87.3540  -72.6210   58.2270 N.am  649  ALA649     -0.1966
     98  CA       -87.7150  -73.9650   58.6700 C.3   649  ALA649      0.1728
     99  C        -89.2280  -74.1980   58.6050 C.2   649  ALA649      0.2616
    100  O        -89.6830  -75.2490   58.1770 O.2   649  ALA649     -0.2715
    101  CB       -87.1800  -74.2310   60.0500 C.3   649  ALA649      0.0334
    102  N        -90.0040  -73.2300   59.0580 N.am  650  PHE650     -0.1960
    103  CA       -91.4590  -73.3030   58.9620 C.3   650  PHE650      0.1771
    104  C        -92.0950  -72.0430   58.3600 C.2   650  PHE650      0.2620
    105  O        -92.7250  -72.1150   57.3050 O.2   650  PHE650     -0.2715
    106  CB       -92.1460  -73.7330   60.2650 C.3   650  PHE650      0.0574
    107  CG       -93.6330  -73.8480   60.1270 C.ar  650  PHE650     -0.0200
    108  CD1      -94.4740  -72.9230   60.7140 C.ar  650  PHE650     -0.0042
    109  CD2      -94.1880  -74.8460   59.3430 C.ar  650  PHE650     -0.0042
    110  CE1      -95.8460  -73.0180   60.5540 C.ar  650  PHE650     -0.0003
    111  CE2      -95.5570  -74.9430   59.1790 C.ar  650  PHE650     -0.0003
    112  CZ       -96.3840  -74.0300   59.7830 C.ar  650  PHE650     -0.0000
    113  N        -91.8800  -70.8890   59.0010 N.am  651  GLY651     -0.1940
    114  CA       -92.6060  -69.6670   58.6830 C.3   651  GLY651      0.2014
    115  C        -93.9700  -69.2560   59.2280 C.2   651  GLY651      0.2638
    116  O        -94.9070  -68.9970   58.4660 O.2   651  GLY651     -0.2714
    117  N        -94.0950  -69.2170   60.5510 N.am  652  LEU652     -0.1977
    118  CA       -95.3010  -68.6650   61.1870 C.3   652  LEU652      0.1596
    119  C        -95.8150  -67.3310   60.6050 C.2   652  LEU652      0.2287
    120  O        -97.0300  -67.1290   60.5150 O.2   652  LEU652     -0.2864
    121  CB       -95.0870  -68.4990   62.6880 C.3   652  LEU652      0.0297
    122  CG       -95.2280  -69.7910   63.4860 C.3   652  LEU652      0.0022
    123  CD1      -94.7950  -69.5800   64.9300 C.3   652  LEU652      0.0001
    124  CD2      -96.6600  -70.2810   63.3990 C.3   652  LEU652      0.0001
@<TRIPOS>BOND
     1    82    81    2
     2    88    89    1
     3    92    89    1
     4    92    93    1
     5    81    80    1
     6    91    90    2
     7    89    90    1
     8    56    55    2
     9    90    97   am
    10    93    94    1
    11    55    54    1
    12   105   104    2
    13    80    79    1
    14    80    83    1
    15    54    53    1
    16    54    57    1
    17    96    94   ar
    18   100    99    2
    19    97    98    1
    20    94    95   ar
    21   104   103    1
    22   104   113   am
    23   116   115    2
    24    83    84    1
    25    99    98    1
    26    99   102   am
    27    98   101    1
    28   114   113    1
    29   114   115    1
    30    57    58    1
    31    58    59    1
    32   103   102    1
    33   103   106    1
    34   111   109   ar
    35   111   112   ar
    36   115   117   am
    37    85    84    1
    38    85    86    1
    39   109   107   ar
    40    65    64    2
    41   112   110   ar
    42    64    63    1
    43    87    86    1
    44   107   106    1
    45   107   108   ar
    46    59    60    1
    47   120   119    2
    48   117   118    1
    49   110   108   ar
    50   119   118    1
    51    60    61    1
    52   118   121    1
    53    63    66    1
    54    63    62    1
    55    71    70    2
    56    66    67    1
    57    70    69    1
    58   121   122    1
    59    68    69    1
    60    52    49    1
    61    49    50    1
    62    49    48    1
    63    50    51    2
    64    41    40    2
    65   124   122    1
    66    69    72    1
    67   122   123    1
    68    77    76    1
    69    78    76    1
    70    48    40   am
    71    40    39    1
    72    76    75    2
    73    72    73    1
    74    75    74    1
    75    39    38    1
    76    39    42    1
    77    73    74    1
    78     2     1    1
    79     2     3    1
    80    42    43    1
    81    23    21   ar
    82    23    24   ar
    83    37    36    1
    84    21    19   ar
    85    34    36   ar
    86    34    32   ar
    87    44    43   ar
    88    44    46   ar
    89     3     4    2
    90     3     5   am
    91    25    24    1
    92    43    45   ar
    93    36    35   ar
    94    32    31   ar
    95    24    22   ar
    96     5     6    1
    97    19    18    1
    98    19    20   ar
    99    46    47   ar
   100    18    15    1
   101    45    47   ar
   102    35    33   ar
   103     6     9    1
   104     6     7    1
   105    31    33   ar
   106    31    30    1
   107    22    20   ar
   108    15    14    1
   109    15    16    1
   110     9    10    1
   111    12    11    2
   112    27    30    1
   113    27    28    1
   114    27    26    1
   115    10    11    1
   116     7     8    2
   117    11    13   am
   118    28    29    2
   119    16    17    2
