@<TRIPOS>MOLECULE
tmp/3s29D03.pdb
 90 87 0 0 0
SMALL
GASTEIGER

@<TRIPOS>ATOM
      1  N       -104.3250 -151.3660   70.3570 N.3   397  SER397     -0.1202
      2  CA      -104.6440 -149.9780   70.0870 C.3   397  SER397      0.2020
      3  C       -105.8870 -149.5320   70.8530 C.2   397  SER397      0.2618
      4  O       -105.9010 -148.4560   71.4510 O.2   397  SER397     -0.2717
      5  CB      -104.8000 -149.7540   68.5950 C.3   397  SER397      0.2103
      6  OG      -103.5830 -150.0570   67.9500 O.3   397  SER397     -0.2182
      7  N       -106.9210 -150.3680   70.8490 N.am  398  LEU398     -0.1979
      8  CA      -108.1360 -150.0700   71.5920 C.3   398  LEU398      0.1596
      9  C       -107.8750 -149.9390   73.0900 C.2   398  LEU398      0.2287
     10  O       -108.4370 -149.0620   73.7380 O.2   398  LEU398     -0.2864
     11  CB      -109.2080 -151.1200   71.3280 C.3   398  LEU398      0.0297
     12  CG      -109.6860 -151.2370   69.8800 C.3   398  LEU398      0.0022
     13  CD1     -110.8150 -152.2380   69.7780 C.3   398  LEU398      0.0001
     14  CD2     -110.1330 -149.8950   69.3380 C.3   398  LEU398      0.0001
     15  N       -105.9160 -146.6700   74.0730 N.3   401  HIS401     -0.1241
     16  CA      -106.8210 -145.5370   74.0200 C.3   401  HIS401      0.1621
     17  C       -107.7120 -145.5180   75.2630 C.2   401  HIS401      0.2264
     18  O       -107.8390 -144.4960   75.9310 O.2   401  HIS401     -0.2867
     19  CB      -107.6610 -145.6330   72.7460 C.3   401  HIS401      0.0745
     20  CG      -108.8020 -144.6720   72.6880 C.ar  401  HIS401      0.0817
     21  ND1     -108.8010 -143.5610   71.8670 N.ar  401  HIS401     -0.2268
     22  CD2     -109.9940 -144.6720   73.3240 C.ar  401  HIS401      0.1154
     23  CE1     -109.9400 -142.9120   72.0120 C.ar  401  HIS401      0.1986
     24  NE2     -110.6810 -143.5650   72.8910 N.ar  401  HIS401     -0.2212
     25  N       -104.6240 -149.1850   60.4780 N.3   444  PHE444     -0.1241
     26  CA      -105.1100 -148.5730   61.7020 C.3   444  PHE444      0.1605
     27  C       -104.0650 -148.5790   62.8130 C.2   444  PHE444      0.2264
     28  O       -103.6600 -147.5160   63.2910 O.2   444  PHE444     -0.2867
     29  CB      -106.3780 -149.3010   62.1620 C.3   444  PHE444      0.0534
     30  CG      -106.8490 -148.9120   63.5390 C.ar  444  PHE444     -0.0203
     31  CD1     -107.2250 -147.6120   63.8200 C.ar  444  PHE444     -0.0042
     32  CD2     -106.9400 -149.8570   64.5440 C.ar  444  PHE444     -0.0042
     33  CE1     -107.6680 -147.2570   65.0860 C.ar  444  PHE444     -0.0003
     34  CE2     -107.3840 -149.5110   65.8090 C.ar  444  PHE444     -0.0003
     35  CZ      -107.7480 -148.2090   66.0810 C.ar  444  PHE444     -0.0000
     36  N       -101.8890 -145.6180   64.6750 N.3   448  HIS448     -0.1241
     37  CA      -102.4620 -145.3720   65.9860 C.3   448  HIS448      0.1621
     38  C       -101.3940 -145.4490   67.0790 C.2   448  HIS448      0.2264
     39  O       -101.5150 -144.8070   68.1230 O.2   448  HIS448     -0.2867
     40  CB      -103.5910 -146.3680   66.2590 C.3   448  HIS448      0.0745
     41  CG      -104.3290 -146.1200   67.5430 C.ar  448  HIS448      0.0817
     42  ND1     -103.7800 -146.3800   68.7800 N.ar  448  HIS448     -0.2268
     43  CD2     -105.5760 -145.6460   67.7760 C.ar  448  HIS448      0.1154
     44  CE1     -104.6510 -146.0610   69.7210 C.ar  448  HIS448      0.1986
     45  NE2     -105.7500 -145.6180   69.1380 N.ar  448  HIS448     -0.2212
     46  N       -106.0740 -138.5220   66.3650 N.3   758  ARG758     -0.1245
     47  CA      -106.7970 -139.3350   67.3200 C.3   758  ARG758      0.1563
     48  C       -108.2130 -139.5730   66.8160 C.2   758  ARG758      0.2260
     49  O       -108.6970 -140.7080   66.7960 O.2   758  ARG758     -0.2867
     50  CB      -106.8180 -138.6480   68.6890 C.3   758  ARG758      0.0307
     51  CG      -107.6250 -139.3960   69.7410 C.3   758  ARG758      0.0489
     52  CD      -107.4450 -138.8240   71.1450 C.3   758  ARG758      0.2205
     53  NE      -108.0950 -139.6680   72.1490 N.pl3 758  ARG758     -0.0865
     54  CZ      -107.4840 -140.6470   72.8160 C.cat 758  ARG758      0.5346
     55  NH1     -106.1950 -140.9030   72.5980 N.pl3 758  ARG758      0.1354
     56  NH2     -108.1590 -141.3710   73.7070 N.pl3 758  ARG758      0.1354
     57  N       -108.4720 -141.5450   63.2430 N.3   761  LEU761     -0.1231
     58  CA      -108.3510 -142.9630   63.5370 C.3   761  LEU761      0.1693
     59  C       -109.5970 -143.5350   64.2330 C.2   761  LEU761      0.2591
     60  O       -110.0770 -144.6090   63.8660 O.2   761  LEU761     -0.2718
     61  CB      -107.0990 -143.2110   64.3750 C.3   761  LEU761      0.0284
     62  CG      -105.7910 -143.0130   63.6150 C.3   761  LEU761      0.0019
     63  CD1     -104.6180 -143.1120   64.5620 C.3   761  LEU761      0.0001
     64  CD2     -105.6660 -144.0410   62.4930 C.3   761  LEU761      0.0001
     65  N       -110.1200 -142.8260   65.2320 N.am  762  GLU762     -0.1979
     66  CA      -111.3260 -143.2870   65.9140 C.3   762  GLU762      0.1602
     67  C       -112.4110 -143.5790   64.8960 C.2   762  GLU762      0.2287
     68  O       -113.0180 -144.6510   64.9010 O.2   762  GLU762     -0.2864
     69  CB      -111.8190 -142.2490   66.9110 C.3   762  GLU762      0.0415
     70  CG      -110.9130 -142.0750   68.1080 C.3   762  GLU762      0.1163
     71  CD      -111.3910 -140.9940   69.0680 C.2   762  GLU762      0.3649
     72  OE1     -110.5570 -140.4840   69.8520 O.co2 762  GLU762     -0.2457
     73  OE2     -112.5980 -140.6590   69.0470 O.co2 762  GLU762     -0.2457
     74  N       -111.7240 -146.6910   62.6830 N.3   765  TYR765     -0.1227
     75  CA      -112.0470 -147.9200   63.3920 C.3   765  TYR765      0.1736
     76  C       -113.5500 -148.1520   63.4560 C.2   765  TYR765      0.2595
     77  O       -114.0360 -149.2580   63.2150 O.2   765  TYR765     -0.2718
     78  CB      -111.4930 -147.9320   64.8200 C.3   765  TYR765      0.0548
     79  CG      -112.0150 -149.1360   65.5570 C.ar  765  TYR765     -0.0200
     80  CD1     -111.3760 -150.3630   65.4540 C.ar  765  TYR765     -0.0009
     81  CD2     -113.1910 -149.0710   66.2910 C.ar  765  TYR765     -0.0009
     82  CE1     -111.8710 -151.4830   66.0930 C.ar  765  TYR765      0.0417
     83  CE2     -113.6950 -150.1820   66.9320 C.ar  765  TYR765      0.0417
     84  CZ      -113.0310 -151.3880   66.8300 C.ar  765  TYR765      0.1957
     85  OH      -113.5270 -152.5060   67.4640 O.3   765  TYR765     -0.2866
     86  N       -114.2810 -147.0990   63.7940 N.am  766  ALA766     -0.1980
     87  CA      -115.7060 -147.2170   64.0420 C.3   766  ALA766      0.1597
     88  C       -116.5110 -147.4350   62.7710 C.2   766  ALA766      0.2287
     89  O       -117.4010 -148.2820   62.7370 O.2   766  ALA766     -0.2864
     90  CB      -116.2040 -145.9920   64.7750 C.3   766  ALA766      0.0319
@<TRIPOS>BOND
     1    25    26    1
     2    26    29    1
     3    26    27    1
     4    29    30    1
     5    64    62    1
     6    74    75    1
     7    89    88    2
     8    88    87    1
     9    27    28    2
    10    77    76    2
    11    57    58    1
    12    75    76    1
    13    75    78    1
    14    76    86   am
    15    58    59    1
    16    58    61    1
    17    30    31   ar
    18    30    32   ar
    19    62    61    1
    20    62    63    1
    21    86    87    1
    22    31    33   ar
    23    60    59    2
    24    87    90    1
    25    59    65   am
    26    32    34   ar
    27    36    37    1
    28    78    79    1
    29    67    68    2
    30    67    66    1
    31    33    35   ar
    32    65    66    1
    33    80    79   ar
    34    80    82   ar
    35    79    81   ar
    36    34    35   ar
    37    66    69    1
    38    37    40    1
    39    37    38    1
    40    82    84   ar
    41    40    41    1
    42    81    83   ar
    43    46    47    1
    44    49    48    2
    45    48    47    1
    46    84    83   ar
    47    84    85    1
    48    69    70    1
    49    38    39    2
    50    47    50    1
    51    41    43   ar
    52    41    42   ar
    53    43    45   ar
    54     6     5    1
    55    70    71    1
    56     5     2    1
    57    50    51    1
    58    42    44   ar
    59    73    71   ar
    60    71    72   ar
    61    45    44   ar
    62    14    12    1
    63    51    52    1
    64    13    12    1
    65    12    11    1
    66     2     1    1
    67     2     3    1
    68     7     3   am
    69     7     8    1
    70     3     4    2
    71    52    53    1
    72    11     8    1
    73     8     9    1
    74    21    23   ar
    75    21    20   ar
    76    23    24   ar
    77    53    54    2
    78    55    54    1
    79    20    19    1
    80    20    22   ar
    81    19    16    1
    82    54    56    1
    83    24    22   ar
    84     9    10    2
    85    16    15    1
    86    16    17    1
    87    17    18    2
