@<TRIPOS>MOLECULE
tmp/3s29F03.pdb
 87 83 0 0 0
SMALL
GASTEIGER

@<TRIPOS>ATOM
      1  N       -115.3600 -121.0180  -35.6250 N.3   266  GLN266     -0.1231
      2  CA      -115.6500 -119.6210  -35.3680 C.3   266  GLN266      0.1698
      3  C       -117.1440 -119.2990  -35.2860 C.2   266  GLN266      0.2592
      4  O       -117.5180 -118.1660  -34.9880 O.2   266  GLN266     -0.2718
      5  CB      -114.9400 -118.7590  -36.3990 C.3   266  GLN266      0.0381
      6  CG      -113.5590 -119.2690  -36.6920 C.3   266  GLN266      0.0905
      7  CD      -112.7690 -118.3190  -37.5500 C.2   266  GLN266      0.2608
      8  OE1     -112.2430 -117.3200  -37.0620 O.2   266  GLN266     -0.2717
      9  NE2     -112.6800 -118.6210  -38.8410 N.am  266  GLN266     -0.0878
     10  N       -117.9890 -120.2940  -35.5380 N.am  267  ASP267     -0.1974
     11  CA      -119.4250 -120.0880  -35.4870 C.3   267  ASP267      0.1709
     12  C       -120.1470 -121.3980  -35.2480 C.2   267  ASP267      0.2293
     13  O       -119.6290 -122.4610  -35.5660 O.2   267  ASP267     -0.2864
     14  CB      -119.9230 -119.4470  -36.7890 C.3   267  ASP267      0.1436
     15  CG      -119.8430 -117.9240  -36.7630 C.2   267  ASP267      0.3671
     16  OD1     -120.3180 -117.3180  -35.7700 O.co2 267  ASP267     -0.2456
     17  OD2     -119.3040 -117.3300  -37.7320 O.co2 267  ASP267     -0.2456
     18  N       -108.7560 -117.8430  -30.3020 N.3   283  LEU283     -0.1245
     19  CA      -109.1250 -117.0410  -31.4610 C.3   283  LEU283      0.1561
     20  C       -108.7710 -115.5660  -31.2440 C.2   283  LEU283      0.2260
     21  O       -108.3270 -114.8980  -32.1590 O.2   283  LEU283     -0.2867
     22  CB      -110.6020 -117.2180  -31.7870 C.3   283  LEU283      0.0270
     23  CG      -110.9770 -118.5590  -32.4210 C.3   283  LEU283      0.0019
     24  CD1     -112.4730 -118.7640  -32.3600 C.3   283  LEU283      0.0001
     25  CD2     -110.4820 -118.6610  -33.8620 C.3   283  LEU283      0.0001
     26  N       -111.2990 -115.3630  -38.7760 N.3   331  TYR331     -0.1227
     27  CA      -111.9500 -114.0960  -39.0500 C.3   331  TYR331      0.1736
     28  C       -111.0030 -112.9620  -38.6900 C.2   331  TYR331      0.2595
     29  O       -110.3920 -112.9790  -37.6220 O.2   331  TYR331     -0.2718
     30  CB      -113.2360 -113.9610  -38.2390 C.3   331  TYR331      0.0548
     31  CG      -114.3680 -114.8790  -38.6660 C.ar  331  TYR331     -0.0200
     32  CD1     -114.4080 -115.4390  -39.9430 C.ar  331  TYR331     -0.0009
     33  CD2     -115.4060 -115.1780  -37.7850 C.ar  331  TYR331     -0.0009
     34  CE1     -115.4530 -116.2770  -40.3240 C.ar  331  TYR331      0.0417
     35  CE2     -116.4520 -116.0060  -38.1510 C.ar  331  TYR331      0.0417
     36  CZ      -116.4730 -116.5540  -39.4150 C.ar  331  TYR331      0.1957
     37  OH      -117.5230 -117.3760  -39.7630 O.3   331  TYR331     -0.2866
     38  N       -110.8770 -111.9830  -39.5780 N.am  332  ASP332     -0.1974
     39  CA      -110.0650 -110.7960  -39.3110 C.3   332  ASP332      0.1709
     40  C       -108.5490 -110.9840  -39.2200 C.2   332  ASP332      0.2293
     41  O       -107.8870 -110.3040  -38.4340 O.2   332  ASP332     -0.2864
     42  CB      -110.5570 -110.1060  -38.0380 C.3   332  ASP332      0.1436
     43  CG      -111.6950 -109.1540  -38.3070 C.2   332  ASP332      0.3671
     44  OD1     -111.4920 -108.2050  -39.1020 O.co2 332  ASP332     -0.2456
     45  OD2     -112.7930 -109.3690  -37.7440 O.co2 332  ASP332     -0.2456
     46  N       -116.2260 -106.3990  -29.6180 N.3   506  ILE506     -0.1245
     47  CA      -117.3630 -107.2270  -29.2430 C.3   506  ILE506      0.1561
     48  C       -118.0180 -106.8330  -27.9190 C.2   506  ILE506      0.2260
     49  O       -119.2440 -106.7620  -27.8130 O.2   506  ILE506     -0.2867
     50  CB      -116.9230 -108.6880  -29.1440 C.3   506  ILE506      0.0252
     51  CG1     -116.3100 -109.1190  -30.4700 C.3   506  ILE506      0.0019
     52  CG2     -118.1030 -109.5800  -28.7840 C.3   506  ILE506      0.0019
     53  CD1     -117.2760 -108.9770  -31.6270 C.3   506  ILE506      0.0001
     54  N       -124.3220 -118.9820  -29.8090 N.3   623  MET623     -0.1230
     55  CA      -123.0820 -119.3430  -30.4760 C.3   623  MET623      0.1702
     56  C       -122.4380 -118.1910  -31.2220 C.2   623  MET623      0.2592
     57  O       -121.3420 -118.3210  -31.7680 O.2   623  MET623     -0.2718
     58  CB      -123.3710 -120.4840  -31.4310 C.3   623  MET623      0.0401
     59  CG      -124.2940 -121.5060  -30.8180 C.3   623  MET623      0.0596
     60  SD      -124.4260 -123.0030  -31.7970 S.3   623  MET623     -0.1393
     61  CE      -124.7050 -124.2100  -30.5050 C.3   623  MET623      0.0692
     62  N       -123.1100 -117.0510  -31.2240 N.am  624  ASP624     -0.1960
     63  CA      -122.6190 -115.9050  -31.9550 C.3   624  ASP624      0.1840
     64  C       -122.1700 -114.8120  -30.9840 C.2   624  ASP624      0.2622
     65  O       -122.9850 -114.1340  -30.3750 O.2   624  ASP624     -0.2715
     66  CB      -123.7150 -115.4130  -32.8970 C.3   624  ASP624      0.1450
     67  CG      -123.4420 -114.0460  -33.4450 C.2   624  ASP624      0.3671
     68  OD1     -122.2610 -113.7340  -33.6920 O.co2 624  ASP624     -0.2456
     69  OD2     -124.4110 -113.2800  -33.6240 O.co2 624  ASP624     -0.2456
     70  N       -120.8610 -114.6310  -30.8700 N.am  625  ARG625     -0.1963
     71  CA      -120.3090 -113.6790  -29.9230 C.3   625  ARG625      0.1729
     72  C       -120.8030 -112.2610  -30.1950 C.2   625  ARG625      0.2616
     73  O       -120.9030 -111.4460  -29.2830 O.2   625  ARG625     -0.2715
     74  CB      -118.7790 -113.7150  -29.9610 C.3   625  ARG625      0.0348
     75  CG      -118.1760 -113.2450  -31.2760 C.3   625  ARG625      0.0492
     76  CD      -116.6530 -113.2900  -31.2400 C.3   625  ARG625      0.2205
     77  NE      -116.0420 -112.4720  -32.2880 N.pl3 625  ARG625     -0.0865
     78  CZ      -114.8500 -111.8850  -32.1760 C.cat 625  ARG625      0.5346
     79  NH1     -114.1380 -112.0260  -31.0620 N.pl3 625  ARG625      0.1354
     80  NH2     -114.3690 -111.1490  -33.1730 N.pl3 625  ARG625      0.1354
     81  N       -121.1120 -111.9530  -31.4470 N.am  626  VAL626     -0.1977
     82  CA      -121.4630 -110.5780  -31.7580 C.3   626  VAL626      0.1596
     83  C       -122.7720 -110.2470  -31.0630 C.2   626  VAL626      0.2287
     84  O       -122.8600 -109.2490  -30.3450 O.2   626  VAL626     -0.2864
     85  CB      -121.5290 -110.2760  -33.2770 C.3   626  VAL626      0.0276
     86  CG1     -121.7410 -108.7890  -33.5020 C.3   626  VAL626      0.0022
     87  CG2     -120.2540 -110.6970  -33.9440 C.3   626  VAL626      0.0022
@<TRIPOS>BOND
     1    34    32   ar
     2    34    36   ar
     3    32    31   ar
     4    37    36    1
     5    38    39    1
     6    38    28   am
     7    36    35   ar
     8    39    40    1
     9    39    42    1
    10    40    41    2
    11    44    43   ar
    12    27    26    1
    13    27    28    1
    14    27    30    1
    15     9     7   am
    16    28    29    2
    17    31    30    1
    18    31    33   ar
    19    43    42    1
    20    43    45   ar
    21    35    33   ar
    22    17    15   ar
    23     7     8    2
    24     7     6    1
    25    14    15    1
    26    14    11    1
    27    15    16   ar
    28     6     5    1
    29     5     2    1
    30     1     2    1
    31    13    12    2
    32    10    11    1
    33    10     3   am
    34    11    12    1
    35     2     3    1
    36     3     4    2
    37    87    85    1
    38    25    23    1
    39    68    67   ar
    40    69    67   ar
    41    86    85    1
    42    67    66    1
    43    85    82    1
    44    80    78    1
    45    66    63    1
    46    23    24    1
    47    23    22    1
    48    77    78    2
    49    77    76    1
    50    78    79    1
    51    21    20    2
    52    63    62    1
    53    63    64    1
    54    60    59    1
    55    60    61    1
    56    22    19    1
    57    57    56    2
    58    82    81    1
    59    82    83    1
    60    53    51    1
    61    19    20    1
    62    19    18    1
    63    81    72   am
    64    58    59    1
    65    58    55    1
    66    75    76    1
    67    75    74    1
    68    62    56   am
    69    56    55    1
    70    83    84    2
    71    64    70   am
    72    64    65    2
    73    70    71    1
    74    55    54    1
    75    51    50    1
    76    72    71    1
    77    72    73    2
    78    74    71    1
    79    46    47    1
    80    47    50    1
    81    47    48    1
    82    50    52    1
    83    48    49    2
