@<TRIPOS>MOLECULE
tmp/3s29H00.pdb
 188 175 0 0 0
SMALL
GASTEIGER

@<TRIPOS>ATOM
      1  N         -8.9890 -118.3250    3.4850 N.3   286  LEU286     -0.1231
      2  CA        -9.8570 -118.7000    4.5970 C.3   286  LEU286      0.1693
      3  C         -9.3550 -118.1960    5.9520 C.2   286  LEU286      0.2592
      4  O         -8.2200 -118.4560    6.3410 O.2   286  LEU286     -0.2718
      5  CB        -9.9630 -120.2220    4.6660 C.3   286  LEU286      0.0284
      6  CG       -10.6770 -120.8640    3.4910 C.3   286  LEU286      0.0019
      7  CD1      -10.8490 -122.3430    3.7320 C.3   286  LEU286      0.0001
      8  CD2      -12.0200 -120.1870    3.2730 C.3   286  LEU286      0.0001
      9  N        -10.2340 -117.5090    6.6840 N.am  287  GLY287     -0.1957
     10  CA        -9.8860 -116.9260    7.9650 C.3   287  GLY287      0.1869
     11  C         -9.7080 -115.4150    7.9120 C.2   287  GLY287      0.2309
     12  O         -9.7690 -114.7460    8.9450 O.2   287  GLY287     -0.2863
     13  N        -14.7080 -117.0250    4.8560 N.3   292  GLY292     -0.1210
     14  CA       -15.1170 -118.0790    5.7700 C.3   292  GLY292      0.1956
     15  C        -16.0450 -119.1120    5.1440 C.2   292  GLY292      0.2612
     16  O        -15.9400 -119.4170    3.9420 O.2   292  GLY292     -0.2717
     17  N        -16.8970 -119.7010    5.9890 N.am  293  GLY293     -0.1942
     18  CA       -17.8440 -120.7360    5.6030 C.3   293  GLY293      0.2014
     19  C        -18.7230 -120.5250    4.3710 C.2   293  GLY293      0.2638
     20  O        -19.1340 -121.5010    3.7350 O.2   293  GLY293     -0.2714
     21  N        -19.0500 -119.2800    4.0380 N.am  294  GLN294     -0.1977
     22  CA       -19.8010 -119.0130    2.8120 C.3   294  GLN294      0.1601
     23  C        -19.0080 -119.4100    1.5600 C.2   294  GLN294      0.2287
     24  O        -19.5780 -119.8870    0.5690 O.2   294  GLN294     -0.2864
     25  CB       -20.2050 -117.5420    2.7330 C.3   294  GLN294      0.0394
     26  CG       -20.8940 -117.1400    1.4370 C.3   294  GLN294      0.0908
     27  CD       -21.4180 -115.7240    1.5020 C.2   294  GLN294      0.2608
     28  OE1      -21.5540 -115.1600    2.5790 O.2   294  GLN294     -0.2717
     29  NE2      -21.7040 -115.1370    0.3520 N.am  294  GLN294     -0.0878
     30  N        -16.4770 -121.6680    1.5360 N.3   296  VAL296     -0.1245
     31  CA       -16.3410 -123.1140    1.6040 C.3   296  VAL296      0.1561
     32  C        -17.6120 -123.7820    1.0830 C.2   296  VAL296      0.2260
     33  O        -17.5590 -124.7710    0.3420 O.2   296  VAL296     -0.2867
     34  CB       -16.0810 -123.5680    3.0440 C.3   296  VAL296      0.0252
     35  CG1      -16.0750 -125.0840    3.1310 C.3   296  VAL296      0.0019
     36  CG2      -14.7690 -122.9860    3.5490 C.3   296  VAL296      0.0019
     37  N        -27.3820 -112.0320   15.1630 N.3   434  LYS434     -0.1245
     38  CA       -26.0240 -112.0190   15.6920 C.3   434  LYS434      0.1561
     39  C        -25.7720 -110.7790   16.5500 C.2   434  LYS434      0.2260
     40  O        -24.9080 -110.7820   17.4280 O.2   434  LYS434     -0.2867
     41  CB       -24.9960 -112.1210   14.5530 C.3   434  LYS434      0.0271
     42  CG       -24.9520 -113.4940   13.8830 C.3   434  LYS434      0.0035
     43  CD       -24.3180 -113.4540   12.4910 C.3   434  LYS434      0.0206
     44  CE       -22.8100 -113.6270   12.5240 C.3   434  LYS434      0.1093
     45  NZ       -22.0700 -112.3370   12.3280 N.3   434  LYS434     -0.1314
     46  N        -12.4790 -134.1920    4.5540 N.3   523  TYR523     -0.1241
     47  CA       -12.7370 -134.5330    5.9430 C.3   523  TYR523      0.1605
     48  C        -13.2840 -135.9380    6.0270 C.2   523  TYR523      0.2264
     49  O        -14.2610 -136.2780    5.3630 O.2   523  TYR523     -0.2867
     50  CB       -13.7130 -133.5530    6.5780 C.3   523  TYR523      0.0534
     51  CG       -13.3490 -132.1190    6.3210 C.ar  523  TYR523     -0.0201
     52  CD1      -12.4320 -131.4550    7.1260 C.ar  523  TYR523     -0.0009
     53  CD2      -13.9110 -131.4270    5.2610 C.ar  523  TYR523     -0.0009
     54  CE1      -12.0920 -130.1340    6.8810 C.ar  523  TYR523      0.0417
     55  CE2      -13.5720 -130.1110    5.0060 C.ar  523  TYR523      0.0417
     56  CZ       -12.6650 -129.4720    5.8130 C.ar  523  TYR523      0.1957
     57  OH       -12.3420 -128.1640    5.5440 O.3   523  TYR523     -0.2866
     58  N        -11.3420 -123.2830   15.6290 N.3   568  MET568     -0.1230
     59  CA       -10.8980 -122.5380   14.4630 C.3   568  MET568      0.1702
     60  C        -12.0830 -121.7500   13.8780 C.2   568  MET568      0.2592
     61  O        -13.2100 -122.2600   13.7980 O.2   568  MET568     -0.2718
     62  CB       -10.3060 -123.5120   13.4370 C.3   568  MET568      0.0401
     63  CG        -9.9020 -122.9130   12.1130 C.3   568  MET568      0.0596
     64  SD        -9.0840 -124.1470   11.0900 S.3   568  MET568     -0.1393
     65  CE       -10.3860 -125.3410   10.7880 C.3   568  MET568      0.0692
     66  N        -11.8320 -120.5110   13.4670 N.am  569  ALA569     -0.1966
     67  CA       -12.8980 -119.6460   12.9670 C.3   569  ALA569      0.1728
     68  C        -12.3280 -118.3060   12.5410 C.2   569  ALA569      0.2616
     69  O        -11.1640 -118.0160   12.7890 O.2   569  ALA569     -0.2715
     70  CB       -13.9920 -119.4430   14.0370 C.3   569  ALA569      0.0334
     71  N        -13.1420 -117.4880   11.8900 N.am  570  ARG570     -0.1977
     72  CA       -12.7200 -116.1260   11.6470 C.3   570  ARG570      0.1597
     73  C        -12.7220 -115.4650   13.0020 C.2   570  ARG570      0.2287
     74  O        -13.3830 -115.9450   13.9180 O.2   570  ARG570     -0.2864
     75  CB       -13.6860 -115.4230   10.7120 C.3   570  ARG570      0.0334
     76  CG       -14.1250 -116.2740    9.5500 C.3   570  ARG570      0.0492
     77  CD       -15.0670 -115.4880    8.6760 C.3   570  ARG570      0.2205
     78  NE       -15.7400 -114.4780    9.4820 N.pl3 570  ARG570     -0.0865
     79  CZ       -16.9440 -114.6220   10.0160 C.cat 570  ARG570      0.5346
     80  NH1      -17.6370 -115.7330    9.8150 N.pl3 570  ARG570      0.1354
     81  NH2      -17.4510 -113.6410   10.7400 N.pl3 570  ARG570      0.1354
     82  N        -17.9740 -114.5610   17.1250 N.3   575  LYS575     -0.1245
     83  CA       -17.3710 -115.8820   17.2600 C.3   575  LYS575      0.1561
     84  C        -16.9440 -116.0900   18.7100 C.2   575  LYS575      0.2260
     85  O        -16.8530 -117.2220   19.1980 O.2   575  LYS575     -0.2867
     86  CB       -16.2030 -116.0700   16.3000 C.3   575  LYS575      0.0271
     87  CG       -16.6140 -116.1780   14.8460 C.3   575  LYS575      0.0035
     88  CD       -17.4170 -117.4370   14.5500 C.3   575  LYS575      0.0206
     89  CE       -17.8550 -117.4440   13.0840 C.3   575  LYS575      0.1093
     90  NZ       -18.4890 -118.7200   12.6590 N.3   575  LYS575     -0.1314
     91  N         -7.3870 -121.4070   16.7780 N.3   599  VAL599     -0.1245
     92  CA        -6.9790 -120.8840   15.4790 C.3   599  VAL599      0.1561
     93  C         -7.9320 -119.7740   15.0700 C.2   599  VAL599      0.2260
     94  O         -9.0910 -120.0440   14.7690 O.2   599  VAL599     -0.2867
     95  CB        -7.0540 -121.9590   14.3690 C.3   599  VAL599      0.0252
     96  CG1       -6.9640 -121.2970   13.0030 C.3   599  VAL599      0.0019
     97  CG2       -5.9620 -123.0010   14.5350 C.3   599  VAL599      0.0019
     98  N         -4.6170 -117.7780   11.0150 N.3   637  SER637     -0.1202
     99  CA        -5.5160 -118.4290   10.0820 C.3   637  SER637      0.2020
    100  C         -4.8670 -119.5590    9.2900 C.2   637  SER637      0.2618
    101  O         -3.7740 -119.4110    8.7560 O.2   637  SER637     -0.2717
    102  CB        -6.0990 -117.3870    9.1340 C.3   637  SER637      0.2103
    103  OG        -7.0430 -116.5970    9.8300 O.3   637  SER637     -0.2182
    104  N         -5.5500 -120.6980    9.2520 N.am  638  GLN638     -0.1979
    105  CA        -5.1420 -121.8490    8.4550 C.3   638  GLN638      0.1601
    106  C         -5.8890 -121.8390    7.1300 C.2   638  GLN638      0.2287
    107  O         -7.0990 -122.0640    7.1010 O.2   638  GLN638     -0.2864
    108  CB        -5.4590 -123.1410    9.2020 C.3   638  GLN638      0.0394
    109  CG        -4.7490 -123.2560   10.5210 C.3   638  GLN638      0.0908
    110  CD        -3.2670 -123.0780   10.3600 C.2   638  GLN638      0.2608
    111  OE1       -2.5920 -123.9050    9.7460 O.2   638  GLN638     -0.2717
    112  NE2       -2.7460 -121.9850   10.8950 N.am  638  GLN638     -0.0878
    113  N         -7.5090 -126.0550    3.2350 N.3   641  ARG641     -0.1245
    114  CA        -8.4530 -127.0420    3.7420 C.3   641  ARG641      0.1563
    115  C         -7.8270 -128.4380    3.8490 C.2   641  ARG641      0.2260
    116  O         -8.0520 -129.1600    4.8310 O.2   641  ARG641     -0.2867
    117  CB        -9.7310 -127.0770    2.9010 C.3   641  ARG641      0.0307
    118  CG        -9.5730 -127.7100    1.5490 C.3   641  ARG641      0.0489
    119  CD       -10.9000 -127.7550    0.8080 C.3   641  ARG641      0.2205
    120  NE       -10.7600 -128.3190   -0.5370 N.pl3 641  ARG641     -0.0865
    121  CZ       -11.7170 -128.9990   -1.1590 C.cat 641  ARG641      0.5346
    122  NH1      -12.8830 -129.2130   -0.5530 N.pl3 641  ARG641      0.1354
    123  NH2      -11.5040 -129.4760   -2.3800 N.pl3 641  ARG641      0.1354
    124  N         -5.9020 -128.6700    6.8240 N.3   644  ASN644     -0.1240
    125  CA        -6.8690 -128.4820    7.8990 C.3   644  ASN644      0.1653
    126  C         -7.5280 -129.7970    8.2820 C.2   644  ASN644      0.2266
    127  O         -7.6350 -130.1290    9.4560 O.2   644  ASN644     -0.2867
    128  CB        -7.9350 -127.4560    7.5190 C.3   644  ASN644      0.1155
    129  CG        -7.3990 -126.0490    7.4980 C.2   644  ASN644      0.2627
    130  OD1       -6.2790 -125.7960    7.9340 O.2   644  ASN644     -0.2716
    131  ND2       -8.1970 -125.1170    6.9930 N.am  644  ASN644     -0.0877
    132  N        -17.0530 -124.7760   19.9940 N.3   660  GLN660     -0.1245
    133  CA       -17.4990 -123.6610   19.1750 C.3   660  GLN660      0.1566
    134  C        -18.3750 -122.7190   20.0090 C.2   660  GLN660      0.2260
    135  O        -19.5700 -122.9230   20.1370 O.2   660  GLN660     -0.2867
    136  CB       -18.1940 -124.2020   17.9200 C.3   660  GLN660      0.0367
    137  CG       -19.3090 -123.3590   17.3890 C.3   660  GLN660      0.0905
    138  CD       -18.8390 -122.0570   16.8140 C.2   660  GLN660      0.2608
    139  OE1      -18.4570 -121.1410   17.5440 O.2   660  GLN660     -0.2717
    140  NE2      -18.8780 -121.9550   15.4920 N.am  660  GLN660     -0.0878
    141  N        -24.3860 -118.5940   16.0970 N.3   665  GLU665     -0.1245
    142  CA       -23.8090 -119.2080   14.9100 C.3   665  GLU665      0.1567
    143  C        -24.9290 -119.5840   13.9470 C.2   665  GLU665      0.2260
    144  O        -25.7680 -120.4250   14.2670 O.2   665  GLU665     -0.2867
    145  CB       -23.0060 -120.4470   15.2980 C.3   665  GLU665      0.0388
    146  CG       -22.2920 -121.1090   14.1410 C.3   665  GLU665      0.1160
    147  CD       -21.2570 -120.1990   13.5140 C.2   665  GLU665      0.3649
    148  OE1      -21.2220 -120.1080   12.2640 O.co2 665  GLU665     -0.2457
    149  OE2      -20.4820 -119.5790   14.2760 O.co2 665  GLU665     -0.2457
    150  N        -25.0830 -121.2500   11.0330 N.3   667  PHE667     -0.1227
    151  CA       -25.0700 -122.6830   10.7380 C.3   667  PHE667      0.1736
    152  C        -23.9750 -123.4610   11.4750 C.2   667  PHE667      0.2596
    153  O        -24.2800 -124.3580   12.2570 O.2   667  PHE667     -0.2718
    154  CB       -25.0360 -122.9830    9.2390 C.3   667  PHE667      0.0547
    155  CG       -25.0620 -124.4520    8.9310 C.ar  667  PHE667     -0.0202
    156  CD1      -23.9660 -125.0770    8.3630 C.ar  667  PHE667     -0.0042
    157  CD2      -26.1750 -125.2180    9.2570 C.ar  667  PHE667     -0.0042
    158  CE1      -23.9910 -126.4370    8.0910 C.ar  667  PHE667     -0.0003
    159  CE2      -26.2050 -126.5770    9.0020 C.ar  667  PHE667     -0.0003
    160  CZ       -25.1120 -127.1890    8.4140 C.ar  667  PHE667     -0.0000
    161  N        -22.7110 -123.0890   11.2600 N.am  668  GLY668     -0.1942
    162  CA       -21.5730 -123.8370   11.7920 C.3   668  GLY668      0.2014
    163  C        -20.9160 -125.0080   11.0550 C.2   668  GLY668      0.2639
    164  O        -20.8060 -126.1170   11.5840 O.2   668  GLY668     -0.2714
    165  N        -20.4820 -124.7630    9.8230 N.am  669  LEU669     -0.1963
    166  CA       -19.6740 -125.7390    9.0920 C.3   669  LEU669      0.1728
    167  C        -18.5200 -126.3690    9.8870 C.2   669  LEU669      0.2616
    168  O        -18.2810 -127.5690    9.7580 O.2   669  LEU669     -0.2715
    169  CB       -19.1320 -125.1310    7.7990 C.3   669  LEU669      0.0311
    170  CG       -20.0810 -125.2750    6.6130 C.3   669  LEU669      0.0022
    171  CD1      -19.4860 -124.6180    5.3850 C.3   669  LEU669      0.0001
    172  CD2      -20.3840 -126.7400    6.3530 C.3   669  LEU669      0.0001
    173  N        -17.7970 -125.5960   10.6970 N.am  670  THR670     -0.1951
    174  CA       -16.7090 -126.2020   11.4770 C.3   670  THR670      0.1897
    175  C        -17.2370 -127.2940   12.3850 C.2   670  THR670      0.2313
    176  O        -16.5680 -128.2930   12.6050 O.2   670  THR670     -0.2863
    177  CB       -15.9170 -125.2040   12.3280 C.3   670  THR670      0.1794
    178  OG1      -16.7900 -124.5580   13.2620 O.3   670  THR670     -0.2208
    179  CG2      -15.2640 -124.1860   11.4430 C.3   670  THR670      0.0378
    180  N        -17.6280 -130.1600   10.1870 N.3   673  GLU673     -0.1245
    181  CA       -16.3190 -130.6670    9.8000 C.3   673  GLU673      0.1567
    182  C        -15.7370 -131.5380   10.9040 C.2   673  GLU673      0.2260
    183  O        -15.3460 -132.6810   10.6690 O.2   673  GLU673     -0.2867
    184  CB       -15.3780 -129.5120    9.4320 C.3   673  GLU673      0.0388
    185  CG       -15.6020 -129.0000    8.0110 C.3   673  GLU673      0.1160
    186  CD       -15.0150 -127.6160    7.7420 C.2   673  GLU673      0.3649
    187  OE1      -14.3200 -127.0560    8.6280 O.co2 673  GLU673     -0.2457
    188  OE2      -15.2690 -127.1000    6.6230 O.co2 673  GLU673     -0.2457
@<TRIPOS>BOND
     1   123   121    1
     2   121   122    1
     3   121   120    2
     4   120   119    1
     5    33    32    2
     6    29    27   am
     7    24    23    2
     8   119   118    1
     9    32    31    1
    10    26    27    1
    11    26    25    1
    12    27    28    2
    13    30    31    1
    14   118   117    1
    15    23    22    1
    16    31    34    1
    17    25    22    1
    18    22    21    1
    19   117   114    1
    20    34    35    1
    21    34    36    1
    22   113   114    1
    23     8     6    1
    24     1     2    1
    25     6     7    1
    26     6     5    1
    27    20    19    2
    28   114   115    1
    29   115   116    2
    30    16    15    2
    31    21    19   am
    32    19    18    1
    33    46    47    1
    34     2     5    1
    35     2     3    1
    36    13    14    1
    37    55    53   ar
    38    55    56   ar
    39    15    14    1
    40    15    17   am
    41    53    51   ar
    42    49    48    2
    43   171   170    1
    44    57    56    1
    45    18    17    1
    46    56    54   ar
    47    47    48    1
    48    47    50    1
    49     3     4    2
    50     3     9   am
    51    51    50    1
    52    51    52   ar
    53   172   170    1
    54   170   169    1
    55   188   186   ar
    56     9    10    1
    57   124   125    1
    58    54    52   ar
    59   131   129   am
    60   107   106    2
    61   106   105    1
    62   129   128    1
    63   129   130    2
    64   128   125    1
    65   186   185    1
    66   186   187   ar
    67   169   166    1
    68   125   126    1
    69    11    10    1
    70    11    12    2
    71   185   184    1
    72   158   156   ar
    73   158   160   ar
    74   126   127    2
    75   156   155   ar
    76   160   159   ar
    77   105   108    1
    78   105   104    1
    79    77    78    1
    80    77    76    1
    81   101   100    2
    82   155   154    1
    83   155   157   ar
    84   159   157   ar
    85   166   165    1
    86   166   167    1
    87   102   103    1
    88   102    99    1
    89   108   109    1
    90   154   151    1
    91   104   100   am
    92   100    99    1
    93   184   181    1
    94    78    79    2
    95    76    75    1
    96   111   110    2
    97   168   167    2
    98   181   180    1
    99   181   182    1
   100    80    79    1
   101   165   163   am
   102   167   173   am
   103    79    81    1
   104    99    98    1
   105   110   109    1
   106   110   112   am
   107   183   182    2
   108   173   174    1
   109    75    72    1
   110   151   150    1
   111   151   152    1
   112    65    64    1
   113   163   164    2
   114   163   162    1
   115    64    63    1
   116   161   152   am
   117   161   162    1
   118   179   177    1
   119   152   153    2
   120   174   177    1
   121   174   175    1
   122    72    71    1
   123    72    73    1
   124    71    68   am
   125    63    62    1
   126   148   147   ar
   127   177   178    1
   128    45    44    1
   129   175   176    2
   130    43    44    1
   131    43    42    1
   132    68    69    2
   133    68    67    1
   134    90    89    1
   135    67    66    1
   136    67    70    1
   137    73    74    2
   138    96    95    1
   139    89    88    1
   140    62    59    1
   141    66    60   am
   142   147   146    1
   143   147   149   ar
   144    61    60    2
   145    60    59    1
   146    42    41    1
   147   143   144    2
   148   143   142    1
   149   146   145    1
   150    95    97    1
   151    95    92    1
   152    59    58    1
   153    88    87    1
   154    41    38    1
   155    94    93    2
   156    87    86    1
   157   142   145    1
   158   142   141    1
   159    93    92    1
   160    37    38    1
   161    92    91    1
   162   140   138   am
   163    38    39    1
   164    86    83    1
   165    39    40    2
   166   138   137    1
   167   138   139    2
   168    82    83    1
   169    83    84    1
   170   137   136    1
   171   136   133    1
   172    84    85    2
   173   133   132    1
   174   133   134    1
   175   134   135    2
