@<TRIPOS>MOLECULE
tmp/3s29H01.pdb
 109 103 0 0 0
SMALL
GASTEIGER

@<TRIPOS>ATOM
      1  N        -18.7890 -109.9430   -1.3830 N.3   277  HIS277     -0.1241
      2  CA       -17.8680 -109.5080   -0.3170 C.3   277  HIS277      0.1621
      3  C        -16.7950 -110.5380    0.0150 C.2   277  HIS277      0.2264
      4  O        -16.8290 -111.6590   -0.4830 O.2   277  HIS277     -0.2867
      5  CB       -18.6390 -109.1860    0.9700 C.3   277  HIS277      0.0745
      6  CG       -19.1340 -110.4040    1.6850 C.ar  277  HIS277      0.0817
      7  ND1      -20.4260 -110.8670    1.5640 N.ar  277  HIS277     -0.2268
      8  CD2      -18.4980 -111.2770    2.5010 C.ar  277  HIS277      0.1154
      9  CE1      -20.5700 -111.9640    2.2850 C.ar  277  HIS277      0.1986
     10  NE2      -19.4140 -112.2370    2.8620 N.ar  277  HIS277     -0.2212
     11  N        -14.4600 -111.5400    6.8140 N.3   290  ASP290     -0.1239
     12  CA       -15.5240 -111.6810    5.8340 C.3   290  ASP290      0.1674
     13  C        -15.3230 -112.9180    4.9670 C.2   290  ASP290      0.2266
     14  O        -16.1290 -113.2050    4.0830 O.2   290  ASP290     -0.2867
     15  CB       -15.6210 -110.4200    4.9730 C.3   290  ASP290      0.1410
     16  CG       -16.0600 -109.2000    5.7730 C.2   290  ASP290      0.3668
     17  OD1      -16.5710 -109.3940    6.8930 O.co2 290  ASP290     -0.2456
     18  OD2      -15.9050 -108.0560    5.2860 O.co2 290  ASP290     -0.2456
     19  N        -14.7080 -117.0250    4.8560 N.3   292  GLY292     -0.1210
     20  CA       -15.1170 -118.0790    5.7700 C.3   292  GLY292      0.1956
     21  C        -16.0450 -119.1120    5.1440 C.2   292  GLY292      0.2612
     22  O        -15.9400 -119.4170    3.9420 O.2   292  GLY292     -0.2717
     23  N        -16.8970 -119.7010    5.9890 N.am  293  GLY293     -0.1942
     24  CA       -17.8440 -120.7360    5.6030 C.3   293  GLY293      0.2014
     25  C        -18.7230 -120.5250    4.3710 C.2   293  GLY293      0.2639
     26  O        -19.1340 -121.5010    3.7350 O.2   293  GLY293     -0.2714
     27  N        -19.0500 -119.2800    4.0380 N.am  294  GLN294     -0.1963
     28  CA       -19.8010 -119.0130    2.8120 C.3   294  GLN294      0.1733
     29  C        -19.0080 -119.4100    1.5600 C.2   294  GLN294      0.2616
     30  O        -19.5780 -119.8870    0.5690 O.2   294  GLN294     -0.2715
     31  CB       -20.2050 -117.5420    2.7330 C.3   294  GLN294      0.0408
     32  CG       -20.8940 -117.1400    1.4370 C.3   294  GLN294      0.0908
     33  CD       -21.4180 -115.7240    1.5020 C.2   294  GLN294      0.2608
     34  OE1      -21.5540 -115.1600    2.5790 O.2   294  GLN294     -0.2717
     35  NE2      -21.7040 -115.1370    0.3520 N.am  294  GLN294     -0.0878
     36  N        -17.6940 -119.2160    1.6070 N.am  295  VAL295     -0.1977
     37  CA       -16.8580 -119.5390    0.4700 C.3   295  VAL295      0.1596
     38  C        -16.7080 -121.0470    0.3830 C.2   295  VAL295      0.2287
     39  O        -16.7940 -121.6370   -0.7040 O.2   295  VAL295     -0.2864
     40  CB       -15.4660 -118.9120    0.5940 C.3   295  VAL295      0.0276
     41  CG1      -14.6610 -119.1590   -0.6870 C.3   295  VAL295      0.0022
     42  CG2      -15.5730 -117.4290    0.8940 C.3   295  VAL295      0.0022
     43  N        -17.6780 -106.0980    4.6960 N.3   372  ARG372     -0.1245
     44  CA       -18.9990 -106.4560    4.1880 C.3   372  ARG372      0.1563
     45  C        -20.0840 -105.4780    4.6500 C.2   372  ARG372      0.2260
     46  O        -21.0790 -105.2760    3.9550 O.2   372  ARG372     -0.2867
     47  CB       -19.3570 -107.9000    4.5460 C.3   372  ARG372      0.0307
     48  CG       -19.7570 -108.1650    5.9830 C.3   372  ARG372      0.0489
     49  CD       -19.8690 -109.6600    6.1410 C.3   372  ARG372      0.2205
     50  NE       -20.4680 -110.0880    7.3960 N.pl3 372  ARG372     -0.0865
     51  CZ       -19.7720 -110.3620    8.4900 C.cat 372  ARG372      0.5346
     52  NH1      -18.4550 -110.2310    8.4770 N.pl3 372  ARG372      0.1354
     53  NH2      -20.3820 -110.7610    9.5990 N.pl3 372  ARG372      0.1354
     54  N        -25.8900 -114.3810    1.0530 N.3   405  TYR405     -0.1241
     55  CA       -25.8620 -113.3590    2.1040 C.3   405  TYR405      0.1605
     56  C        -26.6040 -112.0910    1.6840 C.2   405  TYR405      0.2264
     57  O        -27.4100 -112.1350    0.7600 O.2   405  TYR405     -0.2867
     58  CB       -24.3940 -113.0520    2.4260 C.3   405  TYR405      0.0534
     59  CG       -24.1200 -112.1640    3.6180 C.ar  405  TYR405     -0.0201
     60  CD1      -24.3920 -112.5950    4.9060 C.ar  405  TYR405     -0.0009
     61  CD2      -23.5320 -110.9130    3.4560 C.ar  405  TYR405     -0.0009
     62  CE1      -24.1180 -111.7960    5.9930 C.ar  405  TYR405      0.0417
     63  CE2      -23.2560 -110.1040    4.5370 C.ar  405  TYR405      0.0417
     64  CZ       -23.5520 -110.5550    5.8030 C.ar  405  TYR405      0.1957
     65  OH       -23.2860 -109.7700    6.8960 O.3   405  TYR405     -0.2866
     66  N        -27.0330 -117.5880    4.7130 N.3   428  HIS428     -0.1226
     67  CA       -25.7660 -117.9000    5.3770 C.3   428  HIS428      0.1752
     68  C        -25.6640 -117.2470    6.7640 C.2   428  HIS428      0.2595
     69  O        -24.9540 -117.7320    7.6490 O.2   428  HIS428     -0.2718
     70  CB       -24.5900 -117.4680    4.5020 C.3   428  HIS428      0.0759
     71  CG       -24.4670 -118.2540    3.2370 C.ar  428  HIS428      0.0818
     72  ND1      -24.1000 -119.5830    3.2200 N.ar  428  HIS428     -0.2268
     73  CD2      -24.6690 -117.9030    1.9460 C.ar  428  HIS428      0.1154
     74  CE1      -24.0820 -120.0180    1.9730 C.ar  428  HIS428      0.1986
     75  NE2      -24.4210 -119.0180    1.1790 N.ar  428  HIS428     -0.2212
     76  N        -26.4450 -116.1950    6.9740 N.am  429  ALA429     -0.1980
     77  CA       -26.5730 -115.5860    8.2850 C.3   429  ALA429      0.1597
     78  C        -27.4330 -114.3430    8.1720 C.2   429  ALA429      0.2287
     79  O        -27.5280 -113.7440    7.1020 O.2   429  ALA429     -0.2864
     80  CB       -25.2110 -115.2360    8.8490 C.3   429  ALA429      0.0319
     81  N        -27.7060 -110.7700   10.2220 N.3   431  GLU431     -0.1245
     82  CA       -26.9850 -110.0560   11.2600 C.3   431  GLU431      0.1567
     83  C        -27.8660 -109.7250   12.4420 C.2   431  GLU431      0.2260
     84  O        -27.3990 -109.7150   13.5790 O.2   431  GLU431     -0.2867
     85  CB       -26.3080 -108.8080   10.7030 C.3   431  GLU431      0.0388
     86  CG       -25.2720 -109.1350    9.6530 C.3   431  GLU431      0.1160
     87  CD       -24.3210 -110.2480   10.0890 C.2   431  GLU431      0.3649
     88  OE1      -24.3780 -110.6900   11.2610 O.co2 431  GLU431     -0.2457
     89  OE2      -23.5060 -110.6810    9.2480 O.co2 431  GLU431     -0.2457
     90  N        -27.3820 -112.0320   15.1630 N.3   434  LYS434     -0.1245
     91  CA       -26.0240 -112.0190   15.6920 C.3   434  LYS434      0.1561
     92  C        -25.7720 -110.7790   16.5500 C.2   434  LYS434      0.2260
     93  O        -24.9080 -110.7820   17.4280 O.2   434  LYS434     -0.2867
     94  CB       -24.9960 -112.1210   14.5530 C.3   434  LYS434      0.0271
     95  CG       -24.9520 -113.4940   13.8830 C.3   434  LYS434      0.0035
     96  CD       -24.3180 -113.4540   12.4910 C.3   434  LYS434      0.0206
     97  CE       -22.8100 -113.6270   12.5240 C.3   434  LYS434      0.1093
     98  NZ       -22.0700 -112.3370   12.3280 N.3   434  LYS434     -0.1314
     99  N        -13.1420 -117.4880   11.8900 N.3   570  ARG570     -0.1245
    100  CA       -12.7200 -116.1260   11.6470 C.3   570  ARG570      0.1563
    101  C        -12.7220 -115.4650   13.0020 C.2   570  ARG570      0.2260
    102  O        -13.3830 -115.9450   13.9180 O.2   570  ARG570     -0.2867
    103  CB       -13.6860 -115.4230   10.7120 C.3   570  ARG570      0.0307
    104  CG       -14.1250 -116.2740    9.5500 C.3   570  ARG570      0.0489
    105  CD       -15.0670 -115.4880    8.6760 C.3   570  ARG570      0.2205
    106  NE       -15.7400 -114.4780    9.4820 N.pl3 570  ARG570     -0.0865
    107  CZ       -16.9440 -114.6220   10.0160 C.cat 570  ARG570      0.5346
    108  NH1      -17.6370 -115.7330    9.8150 N.pl3 570  ARG570      0.1354
    109  NH2      -17.4510 -113.6410   10.7400 N.pl3 570  ARG570      0.1354
@<TRIPOS>BOND
     1     1     2    1
     2    39    38    2
     3    41    40    1
     4     4     3    2
     5     2     3    1
     6     2     5    1
     7    35    33   am
     8    38    37    1
     9    37    40    1
    10    37    36    1
    11    30    29    2
    12    40    42    1
    13    57    56    2
    14     5     6    1
    15    54    55    1
    16    75    73   ar
    17    75    74   ar
    18    32    33    1
    19    32    31    1
    20    33    34    2
    21    29    36   am
    22    29    28    1
    23     7     6   ar
    24     7     9   ar
    25    56    55    1
    26     6     8   ar
    27    73    71   ar
    28    74    72   ar
    29    55    58    1
    30     9    10   ar
    31    58    59    1
    32     8    10   ar
    33    31    28    1
    34    28    27    1
    35    72    71   ar
    36    71    70    1
    37    61    59   ar
    38    61    63   ar
    39    59    60   ar
    40    26    25    2
    41    22    21    2
    42    46    45    2
    43    27    25   am
    44    14    13    2
    45    44    47    1
    46    44    45    1
    47    44    43    1
    48    25    24    1
    49    70    67    1
    50    63    64   ar
    51    47    48    1
    52    66    67    1
    53    19    20    1
    54    60    62   ar
    55    13    12    1
    56    15    16    1
    57    15    12    1
    58    21    20    1
    59    21    23   am
    60    18    16   ar
    61    67    68    1
    62    24    23    1
    63    16    17   ar
    64    64    62   ar
    65    64    65    1
    66    12    11    1
    67    48    49    1
    68    49    50    1
    69    68    76   am
    70    68    69    2
    71    76    77    1
    72    79    78    2
    73    50    51    2
    74    78    77    1
    75    77    80    1
    76    52    51    1
    77    51    53    1
    78   105   106    1
    79   105   104    1
    80    89    87   ar
    81   106   107    2
    82   104   103    1
    83    86    87    1
    84    86    85    1
    85   108   107    1
    86   107   109    1
    87    87    88   ar
    88    81    82    1
    89    85    82    1
    90   103   100    1
    91    82    83    1
    92   100    99    1
    93   100   101    1
    94    98    97    1
    95    83    84    2
    96    96    97    1
    97    96    95    1
    98   101   102    2
    99    95    94    1
   100    94    91    1
   101    90    91    1
   102    91    92    1
   103    92    93    2
