@<TRIPOS>MOLECULE
tmp/3s2aA00.pdb
 199 187 0 0 0
SMALL
GASTEIGER

@<TRIPOS>ATOM
      1  N         19.6790   16.6430   12.3550 N.3   561  MET561     -0.1245
      2  CA        19.9790   17.6000   13.4260 C.3   561  MET561      0.1570
      3  C         20.7410   18.8290   12.9380 C.2   561  MET561      0.2261
      4  O         21.4180   18.7900   11.9090 O.2   561  MET561     -0.2867
      5  CB        20.7250   16.9210   14.5810 C.3   561  MET561      0.0387
      6  CG        19.8120   16.4540   15.7200 C.3   561  MET561      0.0595
      7  SD        20.5690   15.2560   16.8570 S.3   561  MET561     -0.1393
      8  CE        20.4810   13.7750   15.8580 C.3   561  MET561      0.0692
      9  N         23.2960   20.0090   14.1120 N.3   563  SER563     -0.1217
     10  CA        24.7330   19.8200   14.3050 C.3   563  SER563      0.1889
     11  C         25.4540   19.7170   12.9700 C.2   563  SER563      0.2288
     12  O         24.9320   19.1290   12.0200 O.2   563  SER563     -0.2866
     13  CB        25.0010   18.5620   15.1210 C.3   563  SER563      0.2089
     14  OG        26.3130   18.0820   14.8830 O.3   563  SER563     -0.2183
     15  N         23.9150   14.5390   12.1910 N.3   567  PRO567     -0.2116
     16  CA        23.4250   13.2210   12.5680 C.3   567  PRO567      0.1372
     17  C         21.9210   13.0790   12.3630 C.2   567  PRO567      0.2244
     18  O         21.1900   14.0720   12.3900 O.2   567  PRO567     -0.2868
     19  CB        23.7760   13.1240   14.0550 C.3   567  PRO567      0.0268
     20  CG        23.8610   14.5320   14.5230 C.3   567  PRO567      0.0207
     21  CD        24.3240   15.3390   13.3630 C.3   567  PRO567      0.0892
     22  N         18.2580   12.0850   13.5230 N.3   569  TRP569     -0.1241
     23  CA        17.3740   11.9000   14.6630 C.3   569  TRP569      0.1605
     24  C         16.2500   10.9810   14.2010 C.2   569  TRP569      0.2264
     25  O         15.4200   11.3670   13.3850 O.2   569  TRP569     -0.2867
     26  CB        16.8580   13.2540   15.1370 C.3   569  TRP569      0.0550
     27  CG        15.7660   13.2300   16.1680 C.ar  569  TRP569      0.0003
     28  CD1       14.4610   12.8570   15.9790 C.ar  569  TRP569      0.0946
     29  CD2       15.8660   13.6500   17.5320 C.ar  569  TRP569      0.0152
     30  NE1       13.7530   12.9960   17.1450 N.ar  569  TRP569     -0.2442
     31  CE2       14.5880   13.4830   18.1160 C.ar  569  TRP569      0.0810
     32  CE3       16.9110   14.1460   18.3210 C.ar  569  TRP569      0.0012
     33  CZ2       14.3250   13.7960   19.4560 C.ar  569  TRP569      0.0191
     34  CZ3       16.6520   14.4550   19.6580 C.ar  569  TRP569      0.0001
     35  CH2       15.3640   14.2810   20.2090 C.ar  569  TRP569      0.0015
     36  N         19.9010    8.3490   17.9150 N.3   588  ILE588     -0.1245
     37  CA        20.7180    9.2670   17.1220 C.3   588  ILE588      0.1561
     38  C         21.7000    8.4570   16.2870 C.2   588  ILE588      0.2260
     39  O         22.5190    7.7040   16.8260 O.2   588  ILE588     -0.2867
     40  CB        21.4780   10.3020   17.9850 C.3   588  ILE588      0.0252
     41  CG1       20.5110   11.3520   18.5430 C.3   588  ILE588      0.0019
     42  CG2       22.5770   10.9780   17.1710 C.3   588  ILE588      0.0019
     43  CD1       21.1270   12.2860   19.5670 C.3   588  ILE588      0.0001
     44  N         24.8230    8.6280   13.9350 N.3   590  LYS590     -0.1245
     45  CA        25.8870    9.5940   13.6770 C.3   590  LYS590      0.1561
     46  C         27.0200    9.0330   12.8300 C.2   590  LYS590      0.2260
     47  O         27.4480    7.8940   13.0260 O.2   590  LYS590     -0.2867
     48  CB        26.4430   10.1480   14.9960 C.3   590  LYS590      0.0271
     49  CG        27.1280   11.5020   14.8460 C.3   590  LYS590      0.0035
     50  CD        27.8730   11.9250   16.1100 C.3   590  LYS590      0.0206
     51  CE        28.6820   13.2000   15.8430 C.3   590  LYS590      0.1093
     52  NZ        29.3510   13.7620   17.0550 N.3   590  LYS590     -0.1314
     53  N         32.3090   10.9530   13.5900 N.3   593  ASP593     -0.1239
     54  CA        33.0720   10.6830   14.8060 C.3   593  ASP593      0.1674
     55  C         33.2550    9.1810   15.0420 C.2   593  ASP593      0.2266
     56  O         32.4570    8.3510   14.5740 O.2   593  ASP593     -0.2867
     57  CB        32.4110   11.3490   16.0290 C.3   593  ASP593      0.1410
     58  CG        32.5990   12.8760   16.0620 C.2   593  ASP593      0.3668
     59  OD1       33.0670   13.4700   15.0610 O.co2 593  ASP593     -0.2456
     60  OD2       32.2700   13.4910   17.1060 O.co2 593  ASP593     -0.2456
     61  N         33.0290    6.6830   17.8740 N.3   595  LEU595     -0.1245
     62  CA        32.3010    6.6780   19.1540 C.3   595  LEU595      0.1561
     63  C         32.9570    5.9020   20.2950 C.2   595  LEU595      0.2260
     64  O         32.4140    5.8320   21.3810 O.2   595  LEU595     -0.2867
     65  CB        30.8660    6.1780   18.9380 C.3   595  LEU595      0.0270
     66  CG        29.9790    7.0290   18.0150 C.3   595  LEU595      0.0019
     67  CD1       28.6020    6.4290   17.9430 C.3   595  LEU595      0.0001
     68  CD2       29.9000    8.4880   18.4680 C.3   595  LEU595      0.0001
     69  N         33.7520    7.6320   23.4720 N.3   598  ASP598     -0.1239
     70  CA        32.5010    7.8700   24.1780 C.3   598  ASP598      0.1674
     71  C         32.0500    6.6520   24.9540 C.2   598  ASP598      0.2266
     72  O         31.6380    6.7790   26.1160 O.2   598  ASP598     -0.2867
     73  CB        31.3980    8.2870   23.2210 C.3   598  ASP598      0.1410
     74  CG        31.6530    9.6300   22.6040 C.2   598  ASP598      0.3668
     75  OD1       32.4750    9.6960   21.6560 O.co2 598  ASP598     -0.2456
     76  OD2       31.0260   10.6130   23.0610 O.co2 598  ASP598     -0.2456
     77  N         23.8500    7.3490   29.0750 N.3   624  TYR624     -0.1241
     78  CA        22.9500    6.9310   27.9940 C.3   624  TYR624      0.1605
     79  C         23.6280    5.9160   27.0760 C.2   624  TYR624      0.2264
     80  O         24.8530    5.8880   26.9780 O.2   624  TYR624     -0.2867
     81  CB        22.5100    8.1660   27.1850 C.3   624  TYR624      0.0534
     82  CG        23.6850    9.0060   26.7480 C.ar  624  TYR624     -0.0201
     83  CD1       24.4060    8.6890   25.5910 C.ar  624  TYR624     -0.0009
     84  CD2       24.1060   10.0970   27.5120 C.ar  624  TYR624     -0.0009
     85  CE1       25.5100    9.4460   25.2040 C.ar  624  TYR624      0.0417
     86  CE2       25.2020   10.8620   27.1270 C.ar  624  TYR624      0.0417
     87  CZ        25.8970   10.5330   25.9730 C.ar  624  TYR624      0.1957
     88  OH        26.9820   11.2880   25.5970 O.3   624  TYR624     -0.2866
     89  N         23.2320    6.3740   19.3100 N.3   636  ILE636     -0.1231
     90  CA        23.1840    6.9920   20.6180 C.3   636  ILE636      0.1692
     91  C         21.7310    7.0290   21.0700 C.2   636  ILE636      0.2592
     92  O         20.8450    7.3880   20.3000 O.2   636  ILE636     -0.2718
     93  CB        23.7980    8.4080   20.5760 C.3   636  ILE636      0.0266
     94  CG1       25.2420    8.3410   20.0560 C.3   636  ILE636      0.0019
     95  CG2       23.7410    9.0600   21.9430 C.3   636  ILE636      0.0020
     96  CD1       25.8990    9.6850   19.8380 C.3   636  ILE636      0.0001
     97  N         21.4860    6.6160   22.3060 N.am  637  GLU637     -0.1966
     98  CA        20.1600    6.6800   22.8900 C.3   637  GLU637      0.1733
     99  C         19.7580    8.1420   23.0340 C.2   637  GLU637      0.2616
    100  O         20.5340    8.9610   23.5470 O.2   637  GLU637     -0.2715
    101  CB        20.1670    5.9990   24.2580 C.3   637  GLU637      0.0429
    102  CG        18.8830    6.1070   25.0810 C.3   637  GLU637      0.1163
    103  CD        19.0430    5.5050   26.4710 C.2   637  GLU637      0.3649
    104  OE1       18.0800    5.5520   27.2650 O.co2 637  GLU637     -0.2457
    105  OE2       20.1390    4.9870   26.7850 O.co2 637  GLU637     -0.2457
    106  N         18.5610    8.4550   22.5390 N.am  638  ILE638     -0.1963
    107  CA        17.9290    9.7360   22.7780 C.3   638  ILE638      0.1727
    108  C         17.2920    9.6600   24.1560 C.2   638  ILE638      0.2616
    109  O         16.4590    8.7860   24.4160 O.2   638  ILE638     -0.2715
    110  CB        16.8340   10.0490   21.7210 C.3   638  ILE638      0.0290
    111  CG1       17.4730   10.3780   20.3640 C.3   638  ILE638      0.0022
    112  CG2       15.9170   11.1800   22.2010 C.3   638  ILE638      0.0023
    113  CD1       16.4750   10.6120   19.2390 C.3   638  ILE638      0.0001
    114  N         17.7030   10.5590   25.0420 N.am  639  VAL639     -0.1977
    115  CA        17.0880   10.6630   26.3520 C.3   639  VAL639      0.1596
    116  C         15.8290   11.4990   26.2120 C.2   639  VAL639      0.2287
    117  O         15.8860   12.6430   25.7690 O.2   639  VAL639     -0.2864
    118  CB        18.0430   11.2930   27.3970 C.3   639  VAL639      0.0276
    119  CG1       17.3030   11.5940   28.7170 C.3   639  VAL639      0.0022
    120  CG2       19.2440   10.3850   27.6320 C.3   639  VAL639      0.0022
    121  N         14.4890   15.8250   27.5310 N.3   642  ALA642     -0.1231
    122  CA        15.7220   16.5310   27.8800 C.3   642  ALA642      0.1694
    123  C         16.0440   17.6880   26.9300 C.2   642  ALA642      0.2593
    124  O         15.6590   17.6670   25.7600 O.2   642  ALA642     -0.2718
    125  CB        16.8860   15.5520   27.9360 C.3   642  ALA642      0.0304
    126  N         16.7530   18.6910   27.4390 N.am  643  THR643     -0.1939
    127  CA        17.2220   19.8100   26.6170 C.3   643  THR643      0.2028
    128  C         18.5910   20.2850   27.1120 C.2   643  THR643      0.2642
    129  O         18.9750   19.9960   28.2460 O.2   643  THR643     -0.2714
    130  CB        16.1980   20.9880   26.5780 C.3   643  THR643      0.1808
    131  OG1       16.6520   22.0000   25.6710 O.3   643  THR643     -0.2208
    132  CG2       16.0170   21.6040   27.9480 C.3   643  THR643      0.0379
    133  N         19.3270   20.9940   26.2580 N.am  644  THR644     -0.1950
    134  CA        20.6560   21.4800   26.6260 C.3   644  THR644      0.1897
    135  C         20.5560   22.7740   27.4070 C.2   644  THR644      0.2313
    136  O         19.7360   23.6360   27.0840 O.2   644  THR644     -0.2863
    137  CB        21.5610   21.7170   25.4020 C.3   644  THR644      0.1794
    138  OG1       21.0320   22.7850   24.6040 O.3   644  THR644     -0.2208
    139  CG2       21.6930   20.4480   24.5590 C.3   644  THR644      0.0378
    140  N         20.4630   25.9350   25.3340 N.3   647  LYS647     -0.1245
    141  CA        19.1790   26.2320   24.6900 C.3   647  LYS647      0.1561
    142  C         18.1740   26.8620   25.6540 C.2   647  LYS647      0.2260
    143  O         17.3310   27.6620   25.2430 O.2   647  LYS647     -0.2867
    144  CB        18.5950   24.9860   24.0190 C.3   647  LYS647      0.0271
    145  CG        19.1000   24.7750   22.5960 C.3   647  LYS647      0.0035
    146  CD        18.8080   23.3690   22.0780 C.3   647  LYS647      0.0206
    147  CE        18.9480   23.3040   20.5520 C.3   647  LYS647      0.1093
    148  NZ        18.7310   21.9270   20.0020 N.3   647  LYS647     -0.1314
    149  N         26.4430   23.8640   25.9720 N.3   707  ASP707     -0.1225
    150  CA        25.6110   23.1530   25.0010 C.3   707  ASP707      0.1805
    151  C         25.8730   21.6500   25.0630 C.2   707  ASP707      0.2597
    152  O         25.0480   20.8590   24.6060 O.2   707  ASP707     -0.2718
    153  CB        25.8140   23.6820   23.5760 C.3   707  ASP707      0.1424
    154  CG        27.2670   23.9670   23.2520 C.2   707  ASP707      0.3668
    155  OD1       28.1320   23.7460   24.1220 O.co2 707  ASP707     -0.2456
    156  OD2       27.5440   24.4260   22.1220 O.co2 707  ASP707     -0.2456
    157  N         27.0180   21.2730   25.6380 N.am  708  ASN708     -0.1974
    158  CA        27.3830   19.8660   25.8490 C.3   708  ASN708      0.1688
    159  C         26.9110   19.3130   27.2040 C.2   708  ASN708      0.2292
    160  O         27.3320   18.2330   27.6120 O.2   708  ASN708     -0.2864
    161  CB        28.9050   19.6580   25.6770 C.3   708  ASN708      0.1181
    162  CG        29.3730   19.7980   24.2170 C.2   708  ASN708      0.2629
    163  OD1       28.6390   19.4820   23.2780 O.2   708  ASN708     -0.2716
    164  ND2       30.6080   20.2630   24.0320 N.am  708  ASN708     -0.0877
    165  N         23.2850   18.6050   29.5800 N.3   710  MET710     -0.1245
    166  CA        21.8300   18.5170   29.4640 C.3   710  MET710      0.1570
    167  C         21.1200   18.3070   30.8030 C.2   710  MET710      0.2261
    168  O         21.7350   17.8630   31.7840 O.2   710  MET710     -0.2867
    169  CB        21.4360   17.4010   28.4940 C.3   710  MET710      0.0387
    170  CG        21.9510   17.5590   27.0690 C.3   710  MET710      0.0595
    171  SD        21.1610   16.3910   25.9370 S.3   710  MET710     -0.1393
    172  CE        19.5570   17.1590   25.7760 C.3   710  MET710      0.0692
    173  N         22.9880   15.8140   33.1640 N.3   718  PHE718     -0.1241
    174  CA        23.9370   14.8720   32.5650 C.3   718  PHE718      0.1605
    175  C         24.7300   15.4740   31.4080 C.2   718  PHE718      0.2264
    176  O         24.1780   16.2220   30.6060 O.2   718  PHE718     -0.2867
    177  CB        23.2360   13.5740   32.1300 C.3   718  PHE718      0.0534
    178  CG        22.3310   13.7160   30.9260 C.ar  718  PHE718     -0.0203
    179  CD1       22.7580   13.2990   29.6720 C.ar  718  PHE718     -0.0042
    180  CD2       21.0410   14.2250   31.0550 C.ar  718  PHE718     -0.0042
    181  CE1       21.9200   13.4110   28.5580 C.ar  718  PHE718     -0.0003
    182  CE2       20.2010   14.3390   29.9540 C.ar  718  PHE718     -0.0003
    183  CZ        20.6420   13.9330   28.7000 C.ar  718  PHE718     -0.0000
    184  N         27.1040   15.3450   27.8290 N.3   720  ILE720     -0.1231
    185  CA        27.1420   14.6180   26.5540 C.3   720  ILE720      0.1692
    186  C         28.4510   14.8330   25.7730 C.2   720  ILE720      0.2592
    187  O         29.3450   15.5520   26.2270 O.2   720  ILE720     -0.2718
    188  CB        25.9090   14.9120   25.6330 C.3   720  ILE720      0.0266
    189  CG1       25.8450   16.3890   25.2340 C.3   720  ILE720      0.0019
    190  CG2       24.6100   14.4230   26.2710 C.3   720  ILE720      0.0020
    191  CD1       24.9370   16.6720   24.0460 C.3   720  ILE720      0.0001
    192  N         28.5390   14.1930   24.6070 N.am  721  ASP721     -0.1974
    193  CA        29.6870   14.2640   23.6900 C.3   721  ASP721      0.1709
    194  C         31.0930   14.1340   24.3170 C.2   721  ASP721      0.2293
    195  O         31.9210   15.0410   24.2210 O.2   721  ASP721     -0.2864
    196  CB        29.5920   15.4960   22.7820 C.3   721  ASP721      0.1436
    197  CG        30.3780   15.3260   21.4940 C.2   721  ASP721      0.3671
    198  OD1       31.1410   14.3400   21.3990 O.co2 721  ASP721     -0.2456
    199  OD2       30.2330   16.1660   20.5720 O.co2 721  ASP721     -0.2456
@<TRIPOS>BOND
     1     4     3    2
     2    12    11    2
     3    15    16    1
     4    15    21    1
     5     1     2    1
     6    17    18    2
     7    17    16    1
     8    16    19    1
     9    46    47    2
    10    46    45    1
    11     3     2    1
    12    11    10    1
    13    21    20    1
    14    25    24    2
    15     2     5    1
    16    22    23    1
    17    53    54    1
    18    45    44    1
    19    45    48    1
    20    19    20    1
    21     9    10    1
    22    24    23    1
    23    10    13    1
    24    56    55    2
    25     5     6    1
    26    23    26    1
    27    54    55    1
    28    54    57    1
    29    49    48    1
    30    49    50    1
    31    14    13    1
    32    59    58   ar
    33    26    27    1
    34     6     7    1
    35    51    50    1
    36    51    52    1
    37     8     7    1
    38    28    27   ar
    39    28    30   ar
    40    57    58    1
    41    58    60   ar
    42    27    29   ar
    43    38    39    2
    44    38    37    1
    45    37    36    1
    46    37    40    1
    47    30    31   ar
    48    42    40    1
    49    29    31   ar
    50    29    32   ar
    51    61    62    1
    52    67    66    1
    53    40    41    1
    54    66    68    1
    55    66    65    1
    56    31    33   ar
    57    32    34   ar
    58    41    43    1
    59    65    62    1
    60    62    63    1
    61   113   111    1
    62    89    90    1
    63    33    35   ar
    64    34    35   ar
    65    96    94    1
    66   148   147    1
    67    94    93    1
    68    63    64    2
    69    92    91    2
    70   111   110    1
    71   147   146    1
    72   199   197   ar
    73    93    90    1
    74    93    95    1
    75    90    91    1
    76    91    97   am
    77   198   197   ar
    78   197   196    1
    79    75    74   ar
    80   110   112    1
    81   110   107    1
    82   146   145    1
    83   156   154   ar
    84    97    98    1
    85   106   107    1
    86   106    99   am
    87   145   144    1
    88    74    76   ar
    89    74    73    1
    90   107   108    1
    91   196   193    1
    92    98    99    1
    93    98   101    1
    94    99   100    2
    95    73    70    1
    96   154   153    1
    97   154   155   ar
    98   163   162    2
    99    69    70    1
   100   153   150    1
   101   193   194    1
   102   193   192    1
   103   144   141    1
   104   164   162   am
   105   191   189    1
   106   108   109    2
   107   108   114   am
   108    70    71    1
   109   162   161    1
   110   195   194    2
   111   101   102    1
   112   139   137    1
   113   138   137    1
   114   152   151    2
   115   192   186   am
   116   141   140    1
   117   141   142    1
   118    71    72    2
   119   150   151    1
   120   150   149    1
   121   114   115    1
   122   151   157   am
   123   102   103    1
   124    85    83   ar
   125    85    87   ar
   126   189   188    1
   127   143   142    2
   128   137   134    1
   129    83    82   ar
   130    88    87    1
   131   188   190    1
   132   188   185    1
   133   157   158    1
   134   131   130    1
   135   161   158    1
   136   124   123    2
   137   117   116    2
   138   186   187    2
   139   186   185    1
   140   172   171    1
   141   158   159    1
   142   171   170    1
   143    87    86   ar
   144   116   115    1
   145   133   134    1
   146   133   128   am
   147   115   118    1
   148   103   105   ar
   149   103   104   ar
   150   185   184    1
   151   130   127    1
   152   130   132    1
   153   127   128    1
   154   127   126    1
   155   134   135    1
   156    82    81    1
   157    82    84   ar
   158   123   126   am
   159   123   122    1
   160    80    79    2
   161   170   169    1
   162    79    78    1
   163   136   135    2
   164   128   129    2
   165    86    84   ar
   166    81    78    1
   167   159   160    2
   168   118   120    1
   169   118   119    1
   170   121   122    1
   171   122   125    1
   172    78    77    1
   173   169   166    1
   174   181   183   ar
   175   181   179   ar
   176   183   182   ar
   177   166   165    1
   178   166   167    1
   179   179   178   ar
   180   182   180   ar
   181   176   175    2
   182   167   168    2
   183   178   180   ar
   184   178   177    1
   185   175   174    1
   186   177   174    1
   187   174   173    1
