@<TRIPOS>MOLECULE
tmp/3s2fF01.pdb
 87 83 0 0 0
SMALL
GASTEIGER

@<TRIPOS>ATOM
      1  N         41.1190   29.0240   20.7250 N.3    40  CYS40      -0.1235
      2  CA        41.5060   27.6240   20.6180 C.3    40  CYS40       0.1677
      3  C         42.9650   27.4940   20.2050 C.2    40  CYS40       0.2270
      4  O         43.4810   28.3110   19.4440 O.2    40  CYS40      -0.2867
      5  CB        40.6130   26.8750   19.6300 C.3    40  CYS40       0.0956
      6  SG        41.0490   25.1230   19.4880 S.3    40  CYS40      -0.0801
      7  N         44.1070   25.6580   18.2010 N.3    42  THR42      -0.1218
      8  CA        44.0910   25.5500   16.7490 C.3    42  THR42       0.1862
      9  C         44.3690   26.9010   16.1050 C.2    42  THR42       0.2287
     10  O         45.0260   26.9840   15.0660 O.2    42  THR42      -0.2866
     11  CB        42.7360   25.0330   16.2460 C.3    42  THR42       0.1770
     12  OG1       42.6840   23.6080   16.3930 O.3    42  THR42      -0.2211
     13  CG2       42.5390   25.3950   14.7830 C.3    42  THR42       0.0375
     14  N         49.9120   24.4480    9.0070 N.3    51  TRP51      -0.1241
     15  CA        49.3800   23.1530    8.5810 C.3    51  TRP51       0.1605
     16  C         49.4610   22.8610    7.0810 C.2    51  TRP51       0.2264
     17  O         49.5730   23.7790    6.2680 O.2    51  TRP51      -0.2867
     18  CB        47.9360   23.0050    9.0650 C.3    51  TRP51       0.0550
     19  CG        47.8300   22.7900   10.5400 C.ar   51  TRP51       0.0003
     20  CD1       48.8470   22.4860   11.3970 C.ar   51  TRP51       0.0946
     21  CD2       46.6420   22.8640   11.3360 C.ar   51  TRP51       0.0152
     22  NE1       48.3650   22.3620   12.6790 N.ar   51  TRP51      -0.2442
     23  CE2       47.0140   22.5900   12.6670 C.ar   51  TRP51       0.0810
     24  CE3       45.2990   23.1330   11.0520 C.ar   51  TRP51       0.0012
     25  CZ2       46.0920   22.5800   13.7120 C.ar   51  TRP51       0.0191
     26  CZ3       44.3860   23.1220   12.0920 C.ar   51  TRP51       0.0001
     27  CH2       44.7860   22.8460   13.4040 C.ar   51  TRP51       0.0015
     28  N         36.6830   30.2880   16.0960 N.3    63  HIS63      -0.1241
     29  CA        35.5330   29.4100   15.9040 C.3    63  HIS63       0.1621
     30  C         34.9100   29.0220   17.2440 C.2    63  HIS63       0.2264
     31  O         34.3510   27.9350   17.3920 O.2    63  HIS63      -0.2867
     32  CB        35.9350   28.1610   15.1220 C.3    63  HIS63       0.0745
     33  CG        37.1460   27.4670   15.6790 C.ar   63  HIS63       0.0817
     34  ND1       38.4200   27.8180   15.3160 N.ar   63  HIS63      -0.2268
     35  CD2       37.2530   26.4630   16.5740 C.ar   63  HIS63       0.1154
     36  CE1       39.2840   27.0420   15.9680 C.ar   63  HIS63       0.1986
     37  NE2       38.6010   26.2200   16.7310 N.ar   63  HIS63      -0.2212
     38  N         33.7580   25.4920   14.5050 N.3    89  TRP89      -0.1241
     39  CA        34.6980   25.0980   13.4620 C.3    89  TRP89       0.1605
     40  C         33.9740   24.6980   12.1780 C.2    89  TRP89       0.2264
     41  O         34.3070   25.1720   11.0930 O.2    89  TRP89      -0.2867
     42  CB        35.5720   23.9490   13.9690 C.3    89  TRP89       0.0550
     43  CG        36.5090   23.3760   12.9540 C.ar   89  TRP89       0.0003
     44  CD1       36.4080   22.1570   12.3460 C.ar   89  TRP89       0.0946
     45  CD2       37.6960   23.9840   12.4350 C.ar   89  TRP89       0.0152
     46  NE1       37.4550   21.9700   11.4810 N.ar   89  TRP89      -0.2442
     47  CE2       38.2620   23.0800   11.5150 C.ar   89  TRP89       0.0810
     48  CE3       38.3370   25.2080   12.6560 C.ar   89  TRP89       0.0012
     49  CZ2       39.4350   23.3570   10.8160 C.ar   89  TRP89       0.0191
     50  CZ3       39.5020   25.4820   11.9610 C.ar   89  TRP89       0.0001
     51  CH2       40.0380   24.5630   11.0530 C.ar   89  TRP89       0.0015
     52  N         33.8390   24.5380   20.6920 N.3   150  CYS150     -0.1235
     53  CA        34.8620   23.6670   20.1230 C.3   150  CYS150      0.1677
     54  C         35.4820   22.7340   21.1550 C.2   150  CYS150      0.2270
     55  O         35.4820   21.5210   20.9760 O.2   150  CYS150     -0.2867
     56  CB        35.9560   24.4690   19.4210 C.3   150  CYS150      0.0956
     57  SG        37.0050   23.4160   18.3980 S.3   150  CYS150     -0.0801
     58  N         33.9830   18.9320   20.9640 N.3   154  THR154     -0.1218
     59  CA        35.0370   18.0450   20.4810 C.3   154  THR154      0.1862
     60  C         35.2970   16.8720   21.4260 C.2   154  THR154      0.2287
     61  O         35.2500   15.7140   21.0110 O.2   154  THR154     -0.2866
     62  CB        36.3560   18.8040   20.2330 C.3   154  THR154      0.1770
     63  OG1       36.1640   19.7730   19.1950 O.3   154  THR154     -0.2211
     64  CG2       37.4550   17.8370   19.8150 C.3   154  THR154      0.0375
     65  N         46.4390   17.9350   17.6520 N.3   264  LEU264     -0.1245
     66  CA        46.9630   18.1300   16.3080 C.3   264  LEU264      0.1561
     67  C         48.3720   18.7230   16.2670 C.2   264  LEU264      0.2260
     68  O         48.6170   19.7010   15.5590 O.2   264  LEU264     -0.2867
     69  CB        46.0010   18.9850   15.4800 C.3   264  LEU264      0.0270
     70  CG        44.6750   18.3160   15.1180 C.3   264  LEU264      0.0019
     71  CD1       43.6470   19.3520   14.7000 C.3   264  LEU264      0.0001
     72  CD2       44.8880   17.2880   14.0200 C.3   264  LEU264      0.0001
     73  N         36.9380   14.1510   15.0780 N.3   287  ILE287     -0.1231
     74  CA        36.9990   15.5020   14.5380 C.3   287  ILE287      0.1692
     75  C         35.7960   16.3490   14.9380 C.2   287  ILE287      0.2591
     76  O         34.6790   16.1200   14.4780 O.2   287  ILE287     -0.2718
     77  CB        37.1420   15.4750   13.0020 C.3   287  ILE287      0.0266
     78  CG1       37.0560   16.8920   12.4300 C.3   287  ILE287      0.0019
     79  CG2       36.1050   14.5430   12.3800 C.3   287  ILE287      0.0020
     80  CD1       38.2770   17.7270   12.7110 C.3   287  ILE287      0.0001
     81  N         36.0540   17.3480   15.7770 N.am  288  VAL288     -0.1980
     82  CA        35.0110   18.1410   16.4260 C.3   288  VAL288      0.1595
     83  C         33.7500   17.3260   16.6910 C.2   288  VAL288      0.2287
     84  O         33.8160   16.2310   17.2500 O.2   288  VAL288     -0.2864
     85  CB        34.6560   19.4300   15.6420 C.3   288  VAL288      0.0276
     86  CG1       35.7930   20.4400   15.7440 C.3   288  VAL288      0.0022
     87  CG2       34.3210   19.1200   14.1890 C.3   288  VAL288      0.0022
@<TRIPOS>BOND
     1    17    16    2
     2    16    15    1
     3    15    14    1
     4    15    18    1
     5    18    19    1
     6    19    21   ar
     7    19    20   ar
     8    49    51   ar
     9    49    47   ar
    10    24    21   ar
    11    24    26   ar
    12    51    50   ar
    13    41    40    2
    14    21    23   ar
    15    20    22   ar
    16    46    47   ar
    17    46    44   ar
    18    47    45   ar
    19    50    48   ar
    20    26    27   ar
    21    40    39    1
    22    44    43   ar
    23    79    77    1
    24    78    80    1
    25    78    77    1
    26    45    48   ar
    27    45    43   ar
    28    23    22   ar
    29    23    25   ar
    30    43    42    1
    31    77    74    1
    32    27    25   ar
    33    39    42    1
    34    39    38    1
    35    72    70    1
    36    87    85    1
    37    76    75    2
    38    74    75    1
    39    74    73    1
    40    71    70    1
    41    13    11    1
    42    75    81   am
    43    10     9    2
    44    70    69    1
    45    32    33    1
    46    32    29    1
    47    34    33   ar
    48    34    36   ar
    49    69    66    1
    50    68    67    2
    51    85    86    1
    52    85    82    1
    53    33    35   ar
    54    81    82    1
    55    29    28    1
    56    29    30    1
    57    36    37   ar
    58     9     8    1
    59    11    12    1
    60    11     8    1
    61    67    66    1
    62    66    65    1
    63    82    83    1
    64    35    37   ar
    65    83    84    2
    66     8     7    1
    67    30    31    2
    68    57    56    1
    69    63    62    1
    70    56    53    1
    71     4     3    2
    72     6     5    1
    73     5     2    1
    74    64    62    1
    75    53    52    1
    76    53    54    1
    77     3     2    1
    78    62    59    1
    79    59    58    1
    80    59    60    1
    81     2     1    1
    82    55    54    2
    83    61    60    2
