@<TRIPOS>MOLECULE
tmp/3s2jA00.pdb
 167 161 0 0 0
SMALL
GASTEIGER

@<TRIPOS>ATOM
      1  N        -21.9390   20.3920  -15.1850 N.3    20  HIS20      -0.1241
      2  CA       -21.8990   21.8110  -15.5320 C.3    20  HIS20       0.1621
      3  C        -21.0870   22.6340  -14.5550 C.2    20  HIS20       0.2264
      4  O        -21.5130   22.8550  -13.4220 O.2    20  HIS20      -0.2867
      5  CB       -23.3250   22.3630  -15.5830 C.3    20  HIS20       0.0745
      6  CG       -23.4370   23.7120  -16.2350 C.ar   20  HIS20       0.0817
      7  ND1      -23.5620   23.8690  -17.6010 N.ar   20  HIS20      -0.2268
      8  CD2      -23.4520   24.9640  -15.7120 C.ar   20  HIS20       0.1154
      9  CE1      -23.6470   25.1580  -17.8900 C.ar   20  HIS20       0.1986
     10  NE2      -23.5870   25.8430  -16.7620 N.ar   20  HIS20      -0.2212
     11  N        -18.9130   26.3520  -14.6060 N.3    22  ASP22      -0.1239
     12  CA       -18.7440   27.5990  -15.3730 C.3    22  ASP22       0.1674
     13  C        -17.3850   28.2850  -15.1880 C.2    22  ASP22       0.2266
     14  O        -17.2630   29.5050  -15.3500 O.2    22  ASP22      -0.2867
     15  CB       -19.8800   28.5870  -15.0600 C.3    22  ASP22       0.1410
     16  CG       -21.1160   28.3390  -15.8990 C.2    22  ASP22       0.3668
     17  OD1      -21.0150   28.3720  -17.1520 O.co2  22  ASP22      -0.2456
     18  OD2      -22.1830   28.1200  -15.2960 O.co2  22  ASP22      -0.2456
     19  N        -16.4240   30.8250  -17.9680 N.3    25  TRP25      -0.1241
     20  CA       -17.0610   32.1310  -17.8570 C.3    25  TRP25       0.1605
     21  C        -16.4450   32.9430  -16.7200 C.2    25  TRP25       0.2264
     22  O        -16.2170   34.1510  -16.8570 O.2    25  TRP25      -0.2867
     23  CB       -18.5770   31.9790  -17.6740 C.3    25  TRP25       0.0550
     24  CG       -19.2800   33.2940  -17.5700 C.ar   25  TRP25       0.0003
     25  CD1      -19.7240   33.8900  -16.4270 C.ar   25  TRP25       0.0946
     26  CD2      -19.6100   34.1810  -18.6440 C.ar   25  TRP25       0.0152
     27  NE1      -20.3090   35.0950  -16.7230 N.ar   25  TRP25      -0.2442
     28  CE2      -20.2510   35.3020  -18.0750 C.ar   25  TRP25       0.0810
     29  CE3      -19.4210   34.1430  -20.0290 C.ar   25  TRP25       0.0012
     30  CZ2      -20.7070   36.3750  -18.8470 C.ar   25  TRP25       0.0191
     31  CZ3      -19.8660   35.2150  -20.7960 C.ar   25  TRP25       0.0001
     32  CH2      -20.5100   36.3120  -20.1990 C.ar   25  TRP25       0.0015
     33  N        -20.7820   28.4630  -21.8720 N.3    68  TYR68      -0.1241
     34  CA       -21.7660   29.5440  -21.7580 C.3    68  TYR68       0.1605
     35  C        -21.2760   30.8980  -22.2680 C.2    68  TYR68       0.2264
     36  O        -20.1550   31.3160  -21.9890 O.2    68  TYR68      -0.2867
     37  CB       -22.1990   29.6940  -20.2850 C.3    68  TYR68       0.0534
     38  CG       -23.0250   30.9290  -20.0440 C.ar   68  TYR68      -0.0201
     39  CD1      -24.3760   30.9550  -20.3720 C.ar   68  TYR68      -0.0009
     40  CD2      -22.4460   32.0850  -19.5310 C.ar   68  TYR68      -0.0009
     41  CE1      -25.1380   32.0990  -20.1770 C.ar   68  TYR68       0.0417
     42  CE2      -23.1950   33.2240  -19.3370 C.ar   68  TYR68       0.0417
     43  CZ       -24.5410   33.2290  -19.6640 C.ar   68  TYR68       0.1957
     44  OH       -25.2940   34.3710  -19.4870 O.3    68  TYR68      -0.2866
     45  N        -23.3250   35.0240  -22.9870 N.3    70  ARG70      -0.1245
     46  CA       -24.5790   35.7410  -22.7950 C.3    70  ARG70       0.1563
     47  C        -25.4370   35.7730  -24.0500 C.2    70  ARG70       0.2260
     48  O        -24.9390   36.0360  -25.1440 O.2    70  ARG70      -0.2867
     49  CB       -24.3080   37.1670  -22.3110 C.3    70  ARG70       0.0307
     50  CG       -23.9270   37.2210  -20.8470 C.3    70  ARG70       0.0489
     51  CD       -23.4900   38.6060  -20.4200 C.3    70  ARG70       0.2205
     52  NE       -24.5770   39.5760  -20.5220 N.pl3  70  ARG70      -0.0865
     53  CZ       -24.4760   40.8340  -20.1100 C.cat  70  ARG70       0.5346
     54  NH1      -23.3370   41.2660  -19.5810 N.pl3  70  ARG70       0.1354
     55  NH2      -25.5110   41.6570  -20.2310 N.pl3  70  ARG70       0.1354
     56  N        -24.0760   26.3250  -23.4890 N.3   123  GLU123     -0.1245
     57  CA       -25.2260   26.6390  -22.6580 C.3   123  GLU123      0.1567
     58  C        -26.1440   27.6660  -23.3100 C.2   123  GLU123      0.2260
     59  O        -26.0910   28.8630  -23.0040 O.2   123  GLU123     -0.2867
     60  CB       -24.7840   27.0850  -21.2620 C.3   123  GLU123      0.0388
     61  CG       -25.9670   27.1970  -20.3130 C.3   123  GLU123      0.1160
     62  CD       -25.6020   27.4840  -18.8660 C.2   123  GLU123      0.3649
     63  OE1      -24.4660   27.9280  -18.5800 O.co2 123  GLU123     -0.2457
     64  OE2      -26.4760   27.2570  -18.0000 O.co2 123  GLU123     -0.2457
     65  N        -30.8530   29.4540  -22.7500 N.3   150  HIS150     -0.1226
     66  CA       -30.4220   29.9060  -21.4410 C.3   150  HIS150      0.1752
     67  C        -31.6450   30.5340  -20.7500 C.2   150  HIS150      0.2596
     68  O        -32.7290   29.9410  -20.7880 O.2   150  HIS150     -0.2718
     69  CB       -29.1800   30.8130  -21.5050 C.3   150  HIS150      0.0759
     70  CG       -28.6160   31.1180  -20.1570 C.ar  150  HIS150      0.0818
     71  ND1      -28.5910   32.3930  -19.6270 N.ar  150  HIS150     -0.2268
     72  CD2      -28.0950   30.3020  -19.2090 C.ar  150  HIS150      0.1154
     73  CE1      -28.0730   32.3450  -18.4120 C.ar  150  HIS150      0.1986
     74  NE2      -27.7650   31.0900  -18.1330 N.ar  150  HIS150     -0.2212
     75  N        -31.5030   31.7130  -20.1420 N.am  151  ASN151     -0.1974
     76  CA       -32.6010   32.2980  -19.3650 C.3   151  ASN151      0.1688
     77  C        -33.6870   32.9740  -20.1900 C.2   151  ASN151      0.2292
     78  O        -34.7580   33.2850  -19.6580 O.2   151  ASN151     -0.2864
     79  CB       -32.0690   33.3160  -18.3610 C.3   151  ASN151      0.1181
     80  CG       -31.3430   32.6790  -17.2010 C.2   151  ASN151      0.2629
     81  OD1      -31.4470   31.4730  -16.9680 O.2   151  ASN151     -0.2716
     82  ND2      -30.6140   33.4920  -16.4460 N.am  151  ASN151     -0.0877
     83  N        -32.6420   24.7510  -18.0070 N.3   191  HIS191     -0.1241
     84  CA       -33.0970   26.0850  -18.4480 C.3   191  HIS191      0.1621
     85  C        -34.3660   26.1820  -19.2800 C.2   191  HIS191      0.2264
     86  O        -34.9970   27.2420  -19.2910 O.2   191  HIS191     -0.2867
     87  CB       -31.9780   26.8430  -19.1780 C.3   191  HIS191      0.0745
     88  CG       -30.9230   27.3750  -18.2630 C.ar  191  HIS191      0.0817
     89  ND1      -31.0570   28.5770  -17.6010 N.ar  191  HIS191     -0.2268
     90  CD2      -29.7340   26.8610  -17.8730 C.ar  191  HIS191      0.1154
     91  CE1      -29.9850   28.7900  -16.8600 C.ar  191  HIS191      0.1986
     92  NE2      -29.1690   27.7600  -17.0010 N.ar  191  HIS191     -0.2212
     93  N        -27.8240   20.6120  -15.2680 N.3   212  HIS212     -0.1241
     94  CA       -27.8900   21.2150  -13.9370 C.3   212  HIS212      0.1621
     95  C        -29.3260   21.6510  -13.6150 C.2   212  HIS212      0.2264
     96  O        -29.6790   22.8200  -13.7380 O.2   212  HIS212     -0.2867
     97  CB       -26.8480   22.3560  -13.7340 C.3   212  HIS212      0.0745
     98  CG       -26.9270   23.4940  -14.7230 C.ar  212  HIS212      0.0817
     99  ND1      -26.8330   23.3190  -16.0900 N.ar  212  HIS212     -0.2268
    100  CD2      -27.0220   24.8320  -14.5250 C.ar  212  HIS212      0.1154
    101  CE1      -26.9110   24.4940  -16.6900 C.ar  212  HIS212      0.1986
    102  NE2      -27.0160   25.4310  -15.7630 N.ar  212  HIS212     -0.2212
    103  N        -36.8480   26.4730  -13.0270 N.3   223  ARG223     -0.1245
    104  CA       -35.5650   25.8760  -13.4020 C.3   223  ARG223      0.1563
    105  C        -35.4550   24.4050  -13.0340 C.2   223  ARG223      0.2260
    106  O        -34.5200   23.7270  -13.4660 O.2   223  ARG223     -0.2867
    107  CB       -34.4050   26.6610  -12.7950 C.3   223  ARG223      0.0307
    108  CG       -33.9610   27.8300  -13.6500 C.3   223  ARG223      0.0489
    109  CD       -33.2070   27.3320  -14.8800 C.3   223  ARG223      0.2205
    110  NE       -31.8160   26.9770  -14.5750 N.pl3 223  ARG223     -0.0865
    111  CZ       -31.3180   25.7380  -14.5400 C.cat 223  ARG223      0.5346
    112  NH1      -32.0920   24.6780  -14.7690 N.pl3 223  ARG223      0.1354
    113  NH2      -30.0270   25.5640  -14.2680 N.pl3 223  ARG223      0.1354
    114  N        -27.6690   24.9160   -6.7230 N.3   245  VAL245     -0.1245
    115  CA       -28.0210   26.3350   -6.6090 C.3   245  VAL245      0.1561
    116  C        -29.0750   26.5460   -5.5190 C.2   245  VAL245      0.2260
    117  O        -30.1850   26.0480   -5.6430 O.2   245  VAL245     -0.2867
    118  CB       -28.5770   26.8440   -7.9440 C.3   245  VAL245      0.0252
    119  CG1      -28.9570   28.3120   -7.8380 C.3   245  VAL245      0.0019
    120  CG2      -27.5830   26.6090   -9.0770 C.3   245  VAL245      0.0019
    121  N        -31.0850   28.9460   -4.5220 N.3   247  LYS247     -0.1231
    122  CA       -32.3450   29.5790   -4.8940 C.3   247  LYS247      0.1693
    123  C        -33.1970   28.6980   -5.8100 C.2   247  LYS247      0.2592
    124  O        -34.2900   29.1070   -6.2080 O.2   247  LYS247     -0.2718
    125  CB       -32.0970   30.9580   -5.5200 C.3   247  LYS247      0.0285
    126  CG       -31.3700   30.9140   -6.8620 C.3   247  LYS247      0.0035
    127  CD       -31.2090   32.3000   -7.4770 C.3   247  LYS247      0.0206
    128  CE       -30.6920   32.1840   -8.9050 C.3   247  LYS247      0.1093
    129  NZ       -30.4060   33.5190   -9.5080 N.3   247  LYS247     -0.1314
    130  N        -32.6910   27.5100   -6.1620 N.am  248  PHE248     -0.1976
    131  CA       -33.4790   26.4980   -6.8660 C.3   248  PHE248      0.1639
    132  C        -33.8490   25.3400   -5.9450 C.2   248  PHE248      0.2290
    133  O        -34.9500   24.8070   -6.0460 O.2   248  PHE248     -0.2864
    134  CB       -32.7530   25.9200   -8.0930 C.3   248  PHE248      0.0560
    135  CG       -32.3940   26.9370   -9.1390 C.ar  248  PHE248     -0.0200
    136  CD1      -33.0450   28.1580   -9.2090 C.ar  248  PHE248     -0.0042
    137  CD2      -31.3910   26.6600  -10.0660 C.ar  248  PHE248     -0.0042
    138  CE1      -32.7020   29.0920  -10.1760 C.ar  248  PHE248     -0.0003
    139  CE2      -31.0480   27.5870  -11.0380 C.ar  248  PHE248     -0.0003
    140  CZ       -31.7030   28.8030  -11.0960 C.ar  248  PHE248     -0.0000
    141  N        -22.9690   23.2770  -10.8950 N.3   320  ASP320     -0.1239
    142  CA       -23.0050   24.6890  -11.2790 C.3   320  ASP320      0.1674
    143  C        -21.8960   25.5000  -10.6100 C.2   320  ASP320      0.2266
    144  O        -22.0080   26.7170  -10.4500 O.2   320  ASP320     -0.2867
    145  CB       -24.3700   25.3270  -11.0030 C.3   320  ASP320      0.1410
    146  CG       -24.5720   26.5890  -11.8130 C.2   320  ASP320      0.3668
    147  OD1      -24.2660   26.5450  -13.0270 O.co2 320  ASP320     -0.2456
    148  OD2      -24.9760   27.6380  -11.2530 O.co2 320  ASP320     -0.2456
    149  N        -18.8280   27.7850   -9.9730 N.3   322  ASP322     -0.1225
    150  CA       -18.3850   28.9860  -10.6830 C.3   322  ASP322      0.1805
    151  C        -19.4340   29.6140  -11.5950 C.2   322  ASP322      0.2598
    152  O        -19.1420   30.5600  -12.3320 O.2   322  ASP322     -0.2718
    153  CB       -17.0330   28.7720  -11.3710 C.3   322  ASP322      0.1424
    154  CG       -15.8940   28.7730  -10.3750 C.2   322  ASP322      0.3668
    155  OD1      -15.8800   29.6860   -9.5130 O.co2 322  ASP322     -0.2456
    156  OD2      -15.0410   27.8780  -10.4270 O.co2 322  ASP322     -0.2456
    157  N        -20.6720   29.1360  -11.4810 N.am  323  GLY323     -0.1942
    158  CA       -21.7850   29.7220  -12.2090 C.3   323  GLY323      0.2014
    159  C        -22.7760   30.4330  -11.3160 C.2   323  GLY323      0.2639
    160  O        -23.6680   31.1180  -11.8070 O.2   323  GLY323     -0.2714
    161  N        -22.6080   30.2590  -10.0080 N.am  324  THR324     -0.1950
    162  CA       -23.5050   30.8100   -8.9920 C.3   324  THR324      0.1897
    163  C        -22.6570   31.3360   -7.8380 C.2   324  THR324      0.2313
    164  O        -21.6890   30.7010   -7.4570 O.2   324  THR324     -0.2863
    165  CB       -24.4810   29.7200   -8.4580 C.3   324  THR324      0.1794
    166  OG1      -25.1250   30.1910   -7.2670 O.3   324  THR324     -0.2208
    167  CG2      -23.7510   28.4110   -8.1350 C.3   324  THR324      0.0378
@<TRIPOS>BOND
     1    48    47    2
     2    47    46    1
     3    56    57    1
     4    58    59    2
     5    58    57    1
     6    45    46    1
     7    46    49    1
     8    65    66    1
     9    57    60    1
    10    49    50    1
    11    35    36    2
    12    35    34    1
    13    33    34    1
    14    34    37    1
    15    69    66    1
    16    69    70    1
    17    66    67    1
    18    60    61    1
    19    50    51    1
    20    31    32   ar
    21    31    29   ar
    22    68    67    2
    23    67    75   am
    24    52    51    1
    25    52    53    2
    26    39    41   ar
    27    39    38   ar
    28    61    62    1
    29    37    38    1
    30    55    53    1
    31    32    30   ar
    32    77    78    2
    33    77    76    1
    34    41    43   ar
    35    70    71   ar
    36    70    72   ar
    37    75    76    1
    38    53    54    1
    39    38    40   ar
    40    29    26   ar
    41    43    44    1
    42    43    42   ar
    43    71    73   ar
    44    40    42   ar
    45    76    79    1
    46    86    85    2
    47    85    84    1
    48    72    74   ar
    49    87    84    1
    50    87    88    1
    51    62    63   ar
    52    62    64   ar
    53    30    28   ar
    54    26    28   ar
    55    26    24   ar
    56    84    83    1
    57    73    74   ar
    58    79    80    1
    59    88    90   ar
    60    88    89   ar
    61    28    27   ar
    62    19    20    1
    63     9     7   ar
    64     9    10   ar
    65    90    92   ar
    66    20    23    1
    67    20    21    1
    68    23    24    1
    69     7     6   ar
    70    89    91   ar
    71    24    25   ar
    72    80    81    2
    73    80    82   am
    74    17    16   ar
    75    92    91   ar
    76    22    21    2
    77    10     8   ar
    78    27    25   ar
    79   101    99   ar
    80   101   102   ar
    81     6     8   ar
    82     6     5    1
    83    99    98   ar
    84    16    18   ar
    85    16    15    1
    86   102   100   ar
    87     5     2    1
    88     2     1    1
    89     2     3    1
    90    12    13    1
    91    12    15    1
    92    12    11    1
    93    14    13    2
    94    93    94    1
    95   109   110    1
    96   109   108    1
    97   112   111    1
    98    98   100   ar
    99    98    97    1
   100   110   111    2
   101     3     4    2
   102   111   113    1
   103    94    97    1
   104    94    95    1
   105    96    95    2
   106   108   107    1
   107   106   105    2
   108   104   105    1
   109   104   103    1
   110   104   107    1
   111   147   146   ar
   112   152   151    2
   113   158   157    1
   114   158   159    1
   115   146   148   ar
   116   146   145    1
   117   160   159    2
   118   151   157   am
   119   151   150    1
   120   153   150    1
   121   153   154    1
   122   159   161   am
   123   142   145    1
   124   142   141    1
   125   142   143    1
   126   140   139   ar
   127   140   138   ar
   128   139   137   ar
   129   150   149    1
   130   143   144    2
   131   156   154   ar
   132   154   155   ar
   133   138   136   ar
   134   137   135   ar
   135   161   162    1
   136   129   128    1
   137   136   135   ar
   138   135   134    1
   139   120   118    1
   140   162   165    1
   141   162   163    1
   142   128   127    1
   143   165   167    1
   144   165   166    1
   145   134   131    1
   146   118   119    1
   147   118   115    1
   148   163   164    2
   149   127   126    1
   150   131   130    1
   151   131   132    1
   152   126   125    1
   153   114   115    1
   154   115   116    1
   155   124   123    2
   156   130   123   am
   157   133   132    2
   158   123   122    1
   159   117   116    2
   160   125   122    1
   161   122   121    1
