@<TRIPOS>MOLECULE
tmp/3s2kB02.pdb
 113 105 0 0 0
SMALL
GASTEIGER

@<TRIPOS>ATOM
      1  N         32.3310   52.2980   11.4110 N.3   375  VAL375     -0.1231
      2  CA        32.0120   53.4920   12.1900 C.3   375  VAL375      0.1692
      3  C         31.7110   53.1870   13.6630 C.2   375  VAL375      0.2592
      4  O         31.7160   54.0880   14.5040 O.2   375  VAL375     -0.2718
      5  CB        30.8740   54.3240   11.5240 C.3   375  VAL375      0.0266
      6  CG1       30.2810   53.5710   10.3400 C.3   375  VAL375      0.0020
      7  CG2       29.7980   54.6940   12.5320 C.3   375  VAL375      0.0020
      8  N         31.4730   51.9140   13.9740 N.am  376  VAL376     -0.1966
      9  CA        31.3070   51.4730   15.3610 C.3   376  VAL376      0.1727
     10  C         31.8720   50.0660   15.5890 C.2   376  VAL376      0.2616
     11  O         31.4660   49.1170   14.9210 O.2   376  VAL376     -0.2715
     12  CB        29.8240   51.4910   15.7950 C.3   376  VAL376      0.0290
     13  CG1       29.6730   50.9260   17.2040 C.3   376  VAL376      0.0023
     14  CG2       29.2540   52.9000   15.7200 C.3   376  VAL376      0.0023
     15  N         32.8100   49.9390   16.5280 N.am  377  VAL377     -0.1977
     16  CA        33.3920   48.6410   16.8840 C.3   377  VAL377      0.1596
     17  C         33.5930   48.5210   18.3870 C.2   377  VAL377      0.2287
     18  O         33.5600   49.5170   19.1080 O.2   377  VAL377     -0.2864
     19  CB        34.7750   48.4100   16.2300 C.3   377  VAL377      0.0276
     20  CG1       34.8190   47.0540   15.5340 C.3   377  VAL377      0.0022
     21  CG2       35.1210   49.5300   15.2670 C.3   377  VAL377      0.0022
     22  N         29.7670   45.6620   23.1460 N.3   380  ILE380     -0.1245
     23  CA        28.8080   46.3720   22.3050 C.3   380  ILE380      0.1561
     24  C         28.0850   45.3950   21.3820 C.2   380  ILE380      0.2260
     25  O         28.7040   44.5010   20.8040 O.2   380  ILE380     -0.2867
     26  CB        29.5000   47.4670   21.4640 C.3   380  ILE380      0.0252
     27  CG1       29.7830   48.6990   22.3250 C.3   380  ILE380      0.0019
     28  CG2       28.6480   47.8540   20.2710 C.3   380  ILE380      0.0019
     29  CD1       30.3570   49.8660   21.5520 C.3   380  ILE380      0.0001
     30  N         21.5890   54.6890   17.3410 N.3   396  TRP396     -0.1241
     31  CA        21.5030   53.2330   17.3850 C.3   396  TRP396      0.1605
     32  C         21.1980   52.6870   18.7780 C.2   396  TRP396      0.2264
     33  O         21.3450   53.3820   19.7820 O.2   396  TRP396     -0.2867
     34  CB        22.7650   52.5840   16.7990 C.3   396  TRP396      0.0550
     35  CG        24.0600   53.0170   17.4260 C.ar  396  TRP396      0.0003
     36  CD1       24.7400   54.1770   17.1900 C.ar  396  TRP396      0.0946
     37  CD2       24.8470   52.2790   18.3700 C.ar  396  TRP396      0.0152
     38  NE1       25.8930   54.2120   17.9370 N.ar  396  TRP396     -0.2442
     39  CE2       25.9800   53.0580   18.6710 C.ar  396  TRP396      0.0810
     40  CE3       24.6970   51.0360   18.9970 C.ar  396  TRP396      0.0012
     41  CZ2       26.9590   52.6360   19.5680 C.ar  396  TRP396      0.0191
     42  CZ3       25.6690   50.6200   19.8880 C.ar  396  TRP396      0.0001
     43  CH2       26.7850   51.4170   20.1660 C.ar  396  TRP396      0.0015
     44  N         24.0170   46.7700   26.4500 N.3   401  THR401     -0.1218
     45  CA        23.9290   47.7580   27.5210 C.3   401  THR401      0.1862
     46  C         22.5660   48.4600   27.5610 C.2   401  THR401      0.2287
     47  O         22.3410   49.3530   28.3810 O.2   401  THR401     -0.2866
     48  CB        25.0670   48.8000   27.4320 C.3   401  THR401      0.1770
     49  OG1       24.8350   49.8510   28.3780 O.3   401  THR401     -0.2211
     50  CG2       25.1470   49.3940   26.0400 C.3   401  THR401      0.0375
     51  N         20.8890   50.7360   25.7160 N.3   403  VAL403     -0.1245
     52  CA        20.8850   52.1930   25.6480 C.3   403  VAL403      0.1561
     53  C         20.6640   52.6810   24.2250 C.2   403  VAL403      0.2260
     54  O         20.8330   51.9260   23.2710 O.2   403  VAL403     -0.2867
     55  CB        22.2140   52.7830   26.1540 C.3   403  VAL403      0.0252
     56  CG1       22.4640   52.3770   27.5970 C.3   403  VAL403      0.0019
     57  CG2       23.3650   52.3400   25.2550 C.3   403  VAL403      0.0019
     58  N         22.4360   55.0130   21.7890 N.3   405  ASN405     -0.1240
     59  CA        23.7360   55.6350   21.5990 C.3   405  ASN405      0.1653
     60  C         23.7080   56.4160   20.2880 C.2   405  ASN405      0.2266
     61  O         23.0710   55.9870   19.3260 O.2   405  ASN405     -0.2867
     62  CB        24.7910   54.5260   21.5370 C.3   405  ASN405      0.1155
     63  CG        26.1870   54.9970   21.9170 C.2   405  ASN405      0.2627
     64  OD1       26.4910   56.1890   21.8950 O.2   405  ASN405     -0.2716
     65  ND2       27.0490   54.0380   22.2620 N.am  405  ASN405     -0.0877
     66  N         26.2220   58.3180   17.3420 N.3   407  THR407     -0.1218
     67  CA        27.5890   58.4090   16.8440 C.3   407  THR407      0.1862
     68  C         27.6650   59.2010   15.5410 C.2   407  THR407      0.2287
     69  O         26.7950   59.0790   14.6800 O.2   407  THR407     -0.2866
     70  CB        28.1730   57.0020   16.6010 C.3   407  THR407      0.1770
     71  OG1       28.2270   56.2850   17.8410 O.3   407  THR407     -0.2211
     72  CG2       29.5690   57.0860   16.0020 C.3   407  THR407      0.0375
     73  N         32.9670   58.3670   12.9520 N.3   411  GLY411     -0.1210
     74  CA        33.4020   57.3750   13.9130 C.3   411  GLY411      0.1956
     75  C         33.4070   57.8250   15.3590 C.2   411  GLY411      0.2612
     76  O         33.2680   56.9980   16.2600 O.2   411  GLY411     -0.2717
     77  N         33.5660   59.1250   15.5940 N.am  412  ARG412     -0.1965
     78  CA        33.6450   59.6220   16.9670 C.3   412  ARG412      0.1729
     79  C         32.2680   59.7860   17.6050 C.2   412  ARG412      0.2616
     80  O         31.3150   60.2200   16.9590 O.2   412  ARG412     -0.2715
     81  CB        34.4530   60.9220   17.0600 C.3   412  ARG412      0.0348
     82  CG        33.7800   62.1360   16.4620 C.3   412  ARG412      0.0492
     83  CD        34.5890   63.3940   16.7400 C.3   412  ARG412      0.2205
     84  NE        34.0780   64.5430   16.0010 N.pl3 412  ARG412     -0.0865
     85  CZ        34.5010   64.9010   14.7920 C.cat 412  ARG412      0.5346
     86  NH1       35.4500   64.2000   14.1860 N.pl3 412  ARG412      0.1354
     87  NH2       33.9770   65.9610   14.1910 N.pl3 412  ARG412      0.1354
     88  N         32.1910   59.4310   18.8830 N.am  413  SER413     -0.1950
     89  CA        30.9370   59.3770   19.6240 C.3   413  SER413      0.1924
     90  C         30.3830   60.7490   19.9910 C.2   413  SER413      0.2314
     91  O         31.1390   61.6920   20.2220 O.2   413  SER413     -0.2863
     92  CB        31.1410   58.5640   20.9060 C.3   413  SER413      0.2116
     93  OG        29.9550   58.5130   21.6790 O.3   413  SER413     -0.2180
     94  N         27.4750   60.4420   22.2630 N.3   415  GLY415     -0.1210
     95  CA        27.1140   59.9600   23.5840 C.3   415  GLY415      0.1956
     96  C         25.7460   59.3070   23.6720 C.2   415  GLY415      0.2611
     97  O         24.9820   59.2990   22.7110 O.2   415  GLY415     -0.2717
     98  N         25.4410   58.7510   24.8400 N.am  416  VAL416     -0.1979
     99  CA        24.1400   58.1460   25.0910 C.3   416  VAL416      0.1595
    100  C         23.0840   59.2280   25.2920 C.2   416  VAL416      0.2287
    101  O         23.3670   60.2760   25.8670 O.2   416  VAL416     -0.2864
    102  CB        24.1840   57.2310   26.3330 C.3   416  VAL416      0.0276
    103  CG1       22.7810   56.8740   26.7950 C.3   416  VAL416      0.0022
    104  CG2       24.9960   55.9760   26.0370 C.3   416  VAL416      0.0022
    105  N         19.1160   55.9510   28.6480 N.3   419  LYS419     -0.1245
    106  CA        19.4960   54.7680   29.4090 C.3   419  LYS419      0.1561
    107  C         18.5690   54.6210   30.6070 C.2   419  LYS419      0.2260
    108  O         18.1870   55.6090   31.2320 O.2   419  LYS419     -0.2867
    109  CB        20.9500   54.8620   29.8750 C.3   419  LYS419      0.0271
    110  CG        21.4310   53.6430   30.6470 C.3   419  LYS419      0.0035
    111  CD        22.9180   53.7380   30.9640 C.3   419  LYS419      0.0206
    112  CE        23.4230   52.4640   31.6280 C.3   419  LYS419      0.1093
    113  NZ        23.1750   51.2620   30.7840 N.3   419  LYS419     -0.1314
@<TRIPOS>BOND
     1     6     5    1
     2     1     2    1
     3     5     2    1
     4     5     7    1
     5     2     3    1
     6    73    74    1
     7     3     8   am
     8     3     4    2
     9    74    75    1
    10     8     9    1
    11    86    85    1
    12    87    85    1
    13    69    68    2
    14    85    84    2
    15    11    10    2
    16    21    19    1
    17    75    77   am
    18    75    76    2
    19     9    10    1
    20     9    12    1
    21    20    19    1
    22    68    67    1
    23    10    15   am
    24    77    78    1
    25    14    12    1
    26    12    13    1
    27    84    83    1
    28    72    70    1
    29    19    16    1
    30    82    83    1
    31    82    81    1
    32    15    16    1
    33    70    67    1
    34    70    71    1
    35    34    31    1
    36    34    35    1
    37    67    66    1
    38    16    17    1
    39    80    79    2
    40    78    81    1
    41    78    79    1
    42    36    35   ar
    43    36    38   ar
    44    30    31    1
    45    31    32    1
    46    35    37   ar
    47    79    88   am
    48    38    39   ar
    49    37    39   ar
    50    37    40   ar
    51    17    18    2
    52    39    41   ar
    53    32    33    2
    54    88    89    1
    55    40    42   ar
    56    61    60    2
    57    41    43   ar
    58    89    90    1
    59    89    92    1
    60    42    43   ar
    61    90    91    2
    62    28    26    1
    63    60    59    1
    64    25    24    2
    65    92    93    1
    66    24    23    1
    67    26    23    1
    68    26    27    1
    69    62    59    1
    70    62    63    1
    71    29    27    1
    72    59    58    1
    73    64    63    2
    74    63    65   am
    75    94    95    1
    76    23    22    1
    77    97    96    2
    78    54    53    2
    79    95    96    1
    80    96    98   am
    81    53    52    1
    82    98    99    1
    83    99   100    1
    84    99   102    1
    85    57    55    1
    86   100   101    2
    87    52    51    1
    88    52    55    1
    89   104   102    1
    90    50    48    1
    91    55    56    1
    92   102   103    1
    93    44    45    1
    94    48    45    1
    95    48    49    1
    96    45    46    1
    97    46    47    2
    98   105   106    1
    99   106   109    1
   100   106   107    1
   101   109   110    1
   102   107   108    2
   103   110   111    1
   104   113   112    1
   105   111   112    1
