@<TRIPOS>MOLECULE
tmp/3s2lA00.pdb
 174 169 0 0 0
SMALL
GASTEIGER

@<TRIPOS>ATOM
      1  N        -28.5770   -8.6950    2.3660 N.3    20  HIS20      -0.1241
      2  CA       -29.7910   -7.9610    2.0200 C.3    20  HIS20       0.1621
      3  C        -30.0920   -6.8410    3.0020 C.2    20  HIS20       0.2264
      4  O        -30.4980   -7.1010    4.1390 O.2    20  HIS20      -0.2867
      5  CB       -30.9720   -8.9320    1.9780 C.3    20  HIS20       0.0745
      6  CG       -32.1980   -8.3680    1.3240 C.ar   20  HIS20       0.0817
      7  ND1      -32.3900   -8.4000   -0.0430 N.ar   20  HIS20      -0.2268
      8  CD2      -33.2830   -7.7470    1.8450 C.ar   20  HIS20       0.1154
      9  CE1      -33.5420   -7.8130   -0.3350 C.ar   20  HIS20       0.1986
     10  NE2      -34.1000   -7.4060    0.7920 N.ar   20  HIS20      -0.2212
     11  N        -32.2910   -3.1080    2.9690 N.3    22  ASP22      -0.1239
     12  CA       -33.2730   -2.3300    2.1970 C.3    22  ASP22       0.1674
     13  C        -33.1890   -0.8170    2.4070 C.2    22  ASP22       0.2266
     14  O        -34.1870   -0.1000    2.2380 O.2    22  ASP22      -0.2867
     15  CB       -34.7030   -2.8190    2.4870 C.3    22  ASP22       0.1410
     16  CG       -35.0940   -4.0190    1.6470 C.2    22  ASP22       0.3668
     17  OD1      -35.0650   -3.9110    0.4010 O.co2  22  ASP22      -0.2456
     18  OD2      -35.4320   -5.0700    2.2400 O.co2  22  ASP22      -0.2456
     19  N        -34.8980    1.2840   -0.4230 N.3    25  TRP25      -0.1241
     20  CA       -36.3490    1.3830   -0.3200 C.3    25  TRP25       0.1605
     21  C        -36.7480    2.3070    0.8220 C.2    25  TRP25       0.2264
     22  O        -37.6850    3.0950    0.6910 O.2    25  TRP25      -0.2867
     23  CB       -36.9790   -0.0010   -0.1320 C.3    25  TRP25       0.0550
     24  CG       -38.4700    0.0460   -0.0290 C.ar   25  TRP25       0.0003
     25  CD1      -39.2110   -0.0300    1.1120 C.ar   25  TRP25       0.0946
     26  CD2      -39.4030    0.2030   -1.1070 C.ar   25  TRP25       0.0152
     27  NE1      -40.5510    0.0620    0.8130 N.ar   25  TRP25      -0.2442
     28  CE2      -40.6970    0.2070   -0.5410 C.ar   25  TRP25       0.0810
     29  CE3      -39.2740    0.3300   -2.4920 C.ar   25  TRP25       0.0012
     30  CZ2      -41.8560    0.3420   -1.3200 C.ar   25  TRP25       0.0191
     31  CZ3      -40.4260    0.4650   -3.2660 C.ar   25  TRP25       0.0001
     32  CH2      -41.6990    0.4600   -2.6740 C.ar   25  TRP25       0.0015
     33  N        -35.0300   -3.7030   -4.3090 N.3    68  TYR68      -0.1241
     34  CA       -36.4500   -4.0250   -4.1960 C.3    68  TYR68       0.1605
     35  C        -37.3860   -2.9270   -4.6890 C.2    68  TYR68       0.2264
     36  O        -37.1910   -1.7490   -4.4000 O.2    68  TYR68      -0.2867
     37  CB       -36.7960   -4.3090   -2.7260 C.3    68  TYR68       0.0534
     38  CG       -38.2870   -4.3960   -2.4880 C.ar   68  TYR68      -0.0201
     39  CD1      -38.9880   -5.5620   -2.7790 C.ar   68  TYR68      -0.0009
     40  CD2      -38.9950   -3.3130   -1.9720 C.ar   68  TYR68      -0.0009
     41  CE1      -40.3640   -5.6520   -2.5640 C.ar   68  TYR68       0.0417
     42  CE2      -40.3650   -3.3820   -1.7640 C.ar   68  TYR68       0.0417
     43  CZ       -41.0440   -4.5560   -2.0660 C.ar   68  TYR68       0.1957
     44  OH       -42.4070   -4.6450   -1.8730 O.3    68  TYR68      -0.2866
     45  N        -41.9910   -2.6460   -5.3920 N.3    70  ARG70      -0.1245
     46  CA       -43.2400   -3.3840   -5.2040 C.3    70  ARG70       0.1563
     47  C        -43.6780   -4.1270   -6.4600 C.2    70  ARG70       0.2260
     48  O        -43.6180   -3.5890   -7.5660 O.2    70  ARG70      -0.2867
     49  CB       -44.3460   -2.4370   -4.7340 C.3    70  ARG70       0.0307
     50  CG       -44.1960   -2.0520   -3.2880 C.3    70  ARG70       0.0489
     51  CD       -45.1590   -0.9610   -2.8980 C.3    70  ARG70       0.2205
     52  NE       -46.5410   -1.4240   -2.9450 N.pl3  70  ARG70      -0.0865
     53  CZ       -47.5690   -0.7090   -2.5050 C.cat  70  ARG70       0.5346
     54  NH1      -47.3560    0.4960   -1.9860 N.pl3  70  ARG70       0.1354
     55  NH2      -48.8010   -1.2000   -2.5780 N.pl3  70  ARG70       0.1354
     56  N        -34.8250   -7.6290   -5.9020 N.3   123  GLU123     -0.1245
     57  CA       -35.6610   -8.4790   -5.0670 C.3   123  GLU123      0.1567
     58  C        -37.0060   -8.7610   -5.7190 C.2   123  GLU123      0.2260
     59  O        -38.0220   -8.1170   -5.4090 O.2   123  GLU123     -0.2867
     60  CB       -35.8380   -7.8750   -3.6680 C.3   123  GLU123      0.0388
     61  CG       -36.5300   -8.8460   -2.7180 C.3   123  GLU123      0.1160
     62  CD       -36.5820   -8.3760   -1.2730 C.2   123  GLU123      0.3649
     63  OE1      -36.3470   -7.1640   -1.0040 O.co2 123  GLU123     -0.2457
     64  OE2      -36.8570   -9.2380   -0.3990 O.co2 123  GLU123     -0.2457
     65  N        -40.8960  -11.9200   -5.1420 N.3   150  HIS150     -0.1226
     66  CA       -41.0660  -11.3440   -3.8220 C.3   150  HIS150      0.1752
     67  C        -42.2340  -12.0890   -3.1400 C.2   150  HIS150      0.2596
     68  O        -42.2820  -13.3230   -3.1930 O.2   150  HIS150     -0.2718
     69  CB       -41.2310   -9.8160   -3.8820 C.3   150  HIS150      0.0759
     70  CG       -41.2100   -9.1700   -2.5370 C.ar  150  HIS150      0.0818
     71  ND1      -42.2940   -8.4920   -2.0180 N.ar  150  HIS150     -0.2268
     72  CD2      -40.2580   -9.1600   -1.5720 C.ar  150  HIS150      0.1154
     73  CE1      -41.9990   -8.0680   -0.8010 C.ar  150  HIS150      0.1986
     74  NE2      -40.7710   -8.4610   -0.5050 N.ar  150  HIS150     -0.2212
     75  N        -43.1750  -11.3740   -2.5240 N.am  151  ASN151     -0.1974
     76  CA       -44.2410  -12.0260   -1.7470 C.3   151  ASN151      0.1688
     77  C        -45.3740  -12.6390   -2.5660 C.2   151  ASN151      0.2292
     78  O        -46.1880  -13.4040   -2.0340 O.2   151  ASN151     -0.2864
     79  CB       -44.8530  -11.0400   -0.7540 C.3   151  ASN151      0.1181
     80  CG       -43.9560  -10.7630    0.4250 C.2   151  ASN151      0.2629
     81  OD1      -42.9780  -11.4740    0.6620 O.2   151  ASN151     -0.2716
     82  ND2      -44.2910   -9.7250    1.1880 N.am  151  ASN151     -0.0877
     83  N        -37.7220  -15.8470   -0.3970 N.3   191  HIS191     -0.1241
     84  CA       -39.1020  -15.5780   -0.8380 C.3   191  HIS191      0.1621
     85  C        -39.8090  -16.6440   -1.6760 C.2   191  HIS191      0.2264
     86  O        -41.0430  -16.6760   -1.6940 O.2   191  HIS191     -0.2867
     87  CB       -39.2020  -14.2380   -1.5770 C.3   191  HIS191      0.0745
     88  CG       -39.1460  -13.0580   -0.6670 C.ar  191  HIS191      0.0817
     89  ND1      -40.2560  -12.5710   -0.0100 N.ar  191  HIS191     -0.2268
     90  CD2      -38.1060  -12.2910   -0.2730 C.ar  191  HIS191      0.1154
     91  CE1      -39.9010  -11.5470    0.7440 C.ar  191  HIS191      0.1986
     92  NE2      -38.6020  -11.3570    0.6010 N.ar  191  HIS191     -0.2212
     93  N        -31.7160  -13.6870    2.3280 N.3   212  HIS212     -0.1241
     94  CA       -32.2820  -13.4470    3.6580 C.3   212  HIS212      0.1621
     95  C        -33.3690  -14.4790    3.9980 C.2   212  HIS212      0.2264
     96  O        -34.5620  -14.2130    3.8700 O.2   212  HIS212     -0.2867
     97  CB       -32.7360  -11.9740    3.8620 C.3   212  HIS212      0.0745
     98  CG       -33.7720  -11.4770    2.8890 C.ar  212  HIS212      0.0817
     99  ND1      -33.5920  -11.4810    1.5190 N.ar  212  HIS212     -0.2268
    100  CD2      -34.9760  -10.8990    3.1070 C.ar  212  HIS212      0.1154
    101  CE1      -34.6640  -10.9660    0.9380 C.ar  212  HIS212      0.1986
    102  NE2      -35.5140  -10.6020    1.8800 N.ar  212  HIS212     -0.2212
    103  N        -41.3040  -18.5480    4.5840 N.3   223  ARG223     -0.1245
    104  CA       -40.1330  -17.7490    4.2140 C.3   223  ARG223      0.1563
    105  C        -38.8000  -18.4110    4.5580 C.2   223  ARG223      0.2260
    106  O        -37.7430  -17.9410    4.1230 O.2   223  ARG223     -0.2867
    107  CB       -40.2090  -16.3600    4.8410 C.3   223  ARG223      0.0307
    108  CG       -41.0180  -15.3850    4.0110 C.3   223  ARG223      0.0489
    109  CD       -40.2230  -14.9850    2.7720 C.3   223  ARG223      0.2205
    110  NE       -39.2280  -13.9420    3.0650 N.pl3 223  ARG223     -0.0865
    111  CZ       -37.9060  -14.1270    3.0980 C.cat 223  ARG223      0.5346
    112  NH1      -37.3630  -15.3220    2.8570 N.pl3 223  ARG223      0.1354
    113  NH2      -37.1180  -13.0970    3.3540 N.pl3 223  ARG223      0.1354
    114  N        -35.3470  -11.3560   10.8790 N.3   245  VAL245     -0.1245
    115  CA       -36.7610  -10.9790   11.0060 C.3   245  VAL245      0.1561
    116  C        -37.4370  -11.7950   12.1110 C.2   245  VAL245      0.2260
    117  O        -37.5260  -13.0110   11.9990 O.2   245  VAL245     -0.2867
    118  CB       -37.5050  -11.2330    9.6830 C.3   245  VAL245      0.0252
    119  CG1      -38.9730  -10.8410    9.8130 C.3   245  VAL245      0.0019
    120  CG2      -36.8470  -10.4800    8.5380 C.3   245  VAL245      0.0019
    121  N        -40.4770  -12.4820   13.1780 N.3   247  LYS247     -0.1231
    122  CA       -41.6100  -13.3360   12.8510 C.3   247  LYS247      0.1693
    123  C        -41.2280  -14.4920   11.9240 C.2   247  LYS247      0.2592
    124  O        -42.0900  -15.2930   11.5580 O.2   247  LYS247     -0.2718
    125  CB       -42.7460  -12.5100   12.2470 C.3   247  LYS247      0.0285
    126  CG       -42.3900  -11.8570   10.9270 C.3   247  LYS247      0.0035
    127  CD       -43.5680  -11.0930   10.3470 C.3   247  LYS247      0.0206
    128  CE       -43.2010  -10.5160    8.9860 C.3   247  LYS247      0.1093
    129  NZ       -44.3250   -9.7440    8.3880 N.3   247  LYS247     -0.1314
    130  N        -39.9560  -14.5590   11.5230 N.am  248  PHE248     -0.1976
    131  CA       -39.4250  -15.7220   10.8080 C.3   248  PHE248      0.1639
    132  C        -38.6050  -16.6230   11.7310 C.2   248  PHE248      0.2290
    133  O        -38.6540  -17.8420   11.5930 O.2   248  PHE248     -0.2864
    134  CB       -38.5670  -15.3330    9.5880 C.3   248  PHE248      0.0560
    135  CG       -39.3080  -14.5560    8.5260 C.ar  248  PHE248     -0.0200
    136  CD1      -40.6920  -14.5660    8.4600 C.ar  248  PHE248     -0.0042
    137  CD2      -38.6000  -13.8080    7.5900 C.ar  248  PHE248     -0.0042
    138  CE1      -41.3640  -13.8310    7.4900 C.ar  248  PHE248     -0.0003
    139  CE2      -39.2600  -13.0730    6.6120 C.ar  248  PHE248     -0.0003
    140  CZ       -40.6390  -13.0860    6.5540 C.ar  248  PHE248     -0.0000
    141  N        -31.5940   -8.1760    6.6940 N.3   320  ASP320     -0.1239
    142  CA       -32.8420   -7.5120    6.3100 C.3   320  ASP320      0.1674
    143  C        -33.0120   -6.1570    6.9950 C.2   320  ASP320      0.2266
    144  O        -34.1340   -5.6780    7.1480 O.2   320  ASP320     -0.2867
    145  CB       -34.0680   -8.4050    6.5640 C.3   320  ASP320      0.1410
    146  CG       -35.2640   -7.9750    5.7390 C.2   320  ASP320      0.3668
    147  OD1      -35.0620   -7.7100    4.5310 O.co2 320  ASP320     -0.2456
    148  OD2      -36.3900   -7.8740    6.2850 O.co2 320  ASP320     -0.2456
    149  N        -33.4940   -2.3440    7.6500 N.3   322  ASP322     -0.1225
    150  CA       -34.3120   -1.3660    6.9370 C.3   322  ASP322      0.1805
    151  C        -35.3620   -1.9870    6.0220 C.2   322  ASP322      0.2598
    152  O        -36.0310   -1.2790    5.2690 O.2   322  ASP322     -0.2718
    153  CB       -33.4420   -0.3150    6.2340 C.3   322  ASP322      0.1424
    154  CG       -32.8690    0.6900    7.2150 C.2   322  ASP322      0.3668
    155  OD1      -33.6470    1.1520    8.0890 O.co2 322  ASP322     -0.2456
    156  OD2      -31.6660    0.9900    7.1490 O.co2 322  ASP322     -0.2456
    157  N        -35.5530   -3.3010    6.1430 N.am  323  GLY323     -0.1942
    158  CA       -36.5940   -3.9950    5.4030 C.3   323  GLY323      0.2014
    159  C        -37.7290   -4.4660    6.2840 C.2   323  GLY323      0.2640
    160  O        -38.8100   -4.7930    5.7990 O.2   323  GLY323     -0.2714
    161  N        -37.4630   -4.4920    7.5830 N.am  324  THR324     -0.1937
    162  CA       -38.4200   -4.9440    8.5820 C.3   324  THR324      0.2013
    163  C        -38.4770   -3.9180    9.7100 C.2   324  THR324      0.2484
    164  O        -37.4670   -3.3340   10.0580 O.2   324  THR324     -0.2729
    165  CB       -38.0230   -6.3370    9.1430 C.3   324  THR324      0.1807
    166  OG1      -38.7410   -6.5860   10.3550 O.3   324  THR324     -0.2208
    167  CG2      -36.5050   -6.4460    9.4140 C.3   324  THR324      0.0379
    168  N        -39.6640   -3.6760   10.2800 N.am  325  PRO325     -0.2726
    169  CA       -39.6800   -2.6950   11.3680 C.3   325  PRO325      0.1402
    170  C        -39.2260   -3.2790   12.7030 C.2   325  PRO325      0.2269
    171  O        -38.8940   -2.5210   13.6170 O.2   325  PRO325     -0.2865
    172  CB       -41.1500   -2.2570   11.4320 C.3   325  PRO325      0.0296
    173  CG       -41.9100   -3.3700   10.8140 C.3   325  PRO325      0.0237
    174  CD       -41.0150   -4.0470    9.8240 C.3   325  PRO325      0.0939
@<TRIPOS>BOND
     1    48    47    2
     2    47    46    1
     3    56    57    1
     4    58    59    2
     5    58    57    1
     6    45    46    1
     7    46    49    1
     8    65    66    1
     9    57    60    1
    10    49    50    1
    11    35    36    2
    12    35    34    1
    13    33    34    1
    14    34    37    1
    15    69    66    1
    16    69    70    1
    17    66    67    1
    18    60    61    1
    19    50    51    1
    20    31    32   ar
    21    31    29   ar
    22    68    67    2
    23    67    75   am
    24    52    51    1
    25    52    53    2
    26    39    41   ar
    27    39    38   ar
    28    37    38    1
    29    61    62    1
    30    32    30   ar
    31    55    53    1
    32    77    78    2
    33    77    76    1
    34    41    43   ar
    35    70    71   ar
    36    70    72   ar
    37    75    76    1
    38    53    54    1
    39    29    26   ar
    40    38    40   ar
    41    43    44    1
    42    43    42   ar
    43    71    73   ar
    44    40    42   ar
    45    76    79    1
    46    86    85    2
    47    85    84    1
    48    87    84    1
    49    87    88    1
    50    72    74   ar
    51    30    28   ar
    52    62    63   ar
    53    62    64   ar
    54    26    28   ar
    55    26    24   ar
    56    84    83    1
    57    73    74   ar
    58    79    80    1
    59    88    90   ar
    60    88    89   ar
    61    28    27   ar
    62    19    20    1
    63     9     7   ar
    64     9    10   ar
    65    20    23    1
    66    20    21    1
    67    90    92   ar
    68    23    24    1
    69     7     6   ar
    70    24    25   ar
    71    89    91   ar
    72    17    16   ar
    73    80    81    2
    74    80    82   am
    75    92    91   ar
    76    22    21    2
    77    10     8   ar
    78    27    25   ar
    79   101    99   ar
    80   101   102   ar
    81     6     8   ar
    82     6     5    1
    83    99    98   ar
    84    16    18   ar
    85    16    15    1
    86   102   100   ar
    87     5     2    1
    88     2     1    1
    89     2     3    1
    90    12    13    1
    91    12    15    1
    92    12    11    1
    93    14    13    2
    94    93    94    1
    95   109   110    1
    96   109   108    1
    97   112   111    1
    98    98   100   ar
    99    98    97    1
   100     3     4    2
   101   110   111    2
   102   111   113    1
   103    94    97    1
   104    94    95    1
   105    96    95    2
   106   108   107    1
   107   106   105    2
   108   104   105    1
   109   104   103    1
   110   104   107    1
   111   147   146   ar
   112   152   151    2
   113   158   157    1
   114   158   159    1
   115   146   148   ar
   116   146   145    1
   117   160   159    2
   118   151   157   am
   119   151   150    1
   120   153   150    1
   121   153   154    1
   122   159   161   am
   123   142   145    1
   124   142   141    1
   125   142   143    1
   126   140   139   ar
   127   140   138   ar
   128   139   137   ar
   129   150   149    1
   130   143   144    2
   131   156   154   ar
   132   154   155   ar
   133   138   136   ar
   134   161   162    1
   135   137   135   ar
   136   129   128    1
   137   136   135   ar
   138   135   134    1
   139   120   118    1
   140   162   165    1
   141   162   163    1
   142   128   127    1
   143   165   167    1
   144   165   166    1
   145   134   131    1
   146   118   119    1
   147   118   115    1
   148   163   164    2
   149   163   168   am
   150   174   168    1
   151   174   173    1
   152   168   169    1
   153   127   126    1
   154   131   130    1
   155   131   132    1
   156   173   172    1
   157   114   115    1
   158   126   125    1
   159   115   116    1
   160   169   172    1
   161   169   170    1
   162   130   123   am
   163   124   123    2
   164   133   132    2
   165   123   122    1
   166   117   116    2
   167   125   122    1
   168   170   171    2
   169   122   121    1
