@<TRIPOS>MOLECULE
tmp/3s2mA00.pdb
 183 177 0 0 0
SMALL
GASTEIGER

@<TRIPOS>ATOM
      1  N        -21.7790   20.4340  -14.9750 N.3    20  HIS20      -0.1241
      2  CA       -21.7370   21.8500  -15.3510 C.3    20  HIS20       0.1621
      3  C        -20.9220   22.6870  -14.3720 C.2    20  HIS20       0.2264
      4  O        -21.3440   22.9060  -13.2420 O.2    20  HIS20      -0.2867
      5  CB       -23.1690   22.3950  -15.4100 C.3    20  HIS20       0.0745
      6  CG       -23.2860   23.7430  -16.0590 C.ar   20  HIS20       0.0817
      7  ND1      -23.4130   23.9070  -17.4240 N.ar   20  HIS20      -0.2268
      8  CD2      -23.3130   24.9880  -15.5260 C.ar   20  HIS20       0.1154
      9  CE1      -23.5010   25.1970  -17.7040 C.ar   20  HIS20       0.1986
     10  NE2      -23.4440   25.8740  -16.5700 N.ar   20  HIS20      -0.2212
     11  N        -18.7560   26.4510  -14.4050 N.3    22  ASP22      -0.1239
     12  CA       -18.5790   27.6630  -15.2160 C.3    22  ASP22       0.1674
     13  C        -17.2190   28.3520  -15.0360 C.2    22  ASP22       0.2266
     14  O        -17.0960   29.5670  -15.2360 O.2    22  ASP22      -0.2867
     15  CB       -19.7030   28.6760  -14.9460 C.3    22  ASP22       0.1410
     16  CG       -20.9630   28.3940  -15.7580 C.2    22  ASP22       0.3668
     17  OD1      -20.8920   28.4310  -17.0100 O.co2  22  ASP22      -0.2456
     18  OD2      -22.0350   28.1890  -15.1470 O.co2  22  ASP22      -0.2456
     19  N        -16.2620   30.9160  -17.8390 N.3    25  TRP25      -0.1241
     20  CA       -16.8620   32.2470  -17.7520 C.3    25  TRP25       0.1605
     21  C        -16.2530   33.0360  -16.5980 C.2    25  TRP25       0.2264
     22  O        -16.0170   34.2360  -16.7160 O.2    25  TRP25      -0.2867
     23  CB       -18.3920   32.1910  -17.6340 C.3    25  TRP25       0.0550
     24  CG       -18.9930   33.5620  -17.7220 C.ar   25  TRP25       0.0003
     25  CD1      -19.3420   34.3680  -16.6770 C.ar   25  TRP25       0.0946
     26  CD2      -19.2570   34.3140  -18.9160 C.ar   25  TRP25       0.0152
     27  NE1      -19.8250   35.5620  -17.1460 N.ar   25  TRP25      -0.2442
     28  CE2      -19.7840   35.5570  -18.5150 C.ar   25  TRP25       0.0810
     29  CE3      -19.1090   34.0530  -20.2820 C.ar   25  TRP25       0.0012
     30  CZ2      -20.1640   36.5400  -19.4290 C.ar   25  TRP25       0.0191
     31  CZ3      -19.4920   35.0330  -21.1900 C.ar   25  TRP25       0.0001
     32  CH2      -20.0100   36.2600  -20.7570 C.ar   25  TRP25       0.0015
     33  N        -14.5180   36.6520  -16.9330 N.3    29  GLU29      -0.1245
     34  CA       -14.9990   37.8250  -16.1980 C.3    29  GLU29       0.1567
     35  C        -14.0210   38.3890  -15.1660 C.2    29  GLU29       0.2260
     36  O        -13.9600   39.6080  -14.9720 O.2    29  GLU29      -0.2867
     37  CB       -16.3380   37.5100  -15.5340 C.3    29  GLU29       0.0388
     38  CG       -17.4370   37.1920  -16.5290 C.3    29  GLU29       0.1160
     39  CD       -17.6350   38.2980  -17.5490 C.2    29  GLU29       0.3649
     40  OE1      -18.4220   39.2250  -17.2710 O.co2  29  GLU29      -0.2457
     41  OE2      -17.0030   38.2430  -18.6240 O.co2  29  GLU29      -0.2457
     42  N        -20.6650   28.4590  -21.6960 N.3    68  TYR68      -0.1241
     43  CA       -21.6600   29.5230  -21.5810 C.3    68  TYR68       0.1605
     44  C        -21.1780   30.8800  -22.1030 C.2    68  TYR68       0.2264
     45  O        -20.0440   31.2980  -21.8430 O.2    68  TYR68      -0.2867
     46  CB       -22.0560   29.6990  -20.1090 C.3    68  TYR68       0.0534
     47  CG       -22.8710   30.9480  -19.8630 C.ar   68  TYR68      -0.0201
     48  CD1      -24.2340   30.9720  -20.1270 C.ar   68  TYR68      -0.0009
     49  CD2      -22.2710   32.1090  -19.3990 C.ar   68  TYR68      -0.0009
     50  CE1      -24.9910   32.1170  -19.9160 C.ar   68  TYR68       0.0417
     51  CE2      -23.0100   33.2570  -19.1940 C.ar   68  TYR68       0.0417
     52  CZ       -24.3660   33.2600  -19.4510 C.ar   68  TYR68       0.1957
     53  OH       -25.1050   34.4170  -19.2490 O.3    68  TYR68      -0.2866
     54  N        -23.2200   35.0200  -22.7680 N.3    70  ARG70      -0.1245
     55  CA       -24.4550   35.7660  -22.5380 C.3    70  ARG70       0.1563
     56  C        -25.3590   35.8100  -23.7670 C.2    70  ARG70       0.2260
     57  O        -24.8960   36.0570  -24.8790 O.2    70  ARG70      -0.2867
     58  CB       -24.1200   37.1810  -22.0680 C.3    70  ARG70       0.0307
     59  CG       -23.6850   37.2190  -20.6210 C.3    70  ARG70       0.0489
     60  CD       -23.2510   38.6010  -20.2020 C.3    70  ARG70       0.2205
     61  NE       -24.3490   39.5610  -20.2760 N.pl3  70  ARG70      -0.0865
     62  CZ       -24.2450   40.8250  -19.8820 C.cat  70  ARG70       0.5346
     63  NH1      -23.0950   41.2670  -19.3870 N.pl3  70  ARG70       0.1354
     64  NH2      -25.2870   41.6440  -19.9780 N.pl3  70  ARG70       0.1354
     65  N        -24.0000   26.3430  -23.2190 N.3   123  GLU123     -0.1245
     66  CA       -25.1450   26.6570  -22.3740 C.3   123  GLU123      0.1567
     67  C        -26.0670   27.6810  -23.0290 C.2   123  GLU123      0.2260
     68  O        -26.0120   28.8800  -22.7340 O.2   123  GLU123     -0.2867
     69  CB       -24.6910   27.1040  -20.9810 C.3   123  GLU123      0.0388
     70  CG       -25.8750   27.2510  -20.0390 C.3   123  GLU123      0.1160
     71  CD       -25.5130   27.5300  -18.5980 C.2   123  GLU123      0.3649
     72  OE1      -24.3810   27.9820  -18.2990 O.co2 123  GLU123     -0.2457
     73  OE2      -26.3940   27.3060  -17.7440 O.co2 123  GLU123     -0.2457
     74  N        -30.7360   29.4600  -22.4660 N.3   150  HIS150     -0.1226
     75  CA       -30.3230   29.8910  -21.1450 C.3   150  HIS150      0.1752
     76  C        -31.5560   30.5330  -20.4720 C.2   150  HIS150      0.2596
     77  O        -32.6540   29.9640  -20.5410 O.2   150  HIS150     -0.2718
     78  CB       -29.0730   30.7870  -21.1860 C.3   150  HIS150      0.0759
     79  CG       -28.5170   31.0780  -19.8310 C.ar  150  HIS150      0.0818
     80  ND1      -28.4860   32.3480  -19.2950 N.ar  150  HIS150     -0.2268
     81  CD2      -28.0300   30.2510  -18.8760 C.ar  150  HIS150      0.1154
     82  CE1      -27.9820   32.2920  -18.0740 C.ar  150  HIS150      0.1986
     83  NE2      -27.7020   31.0300  -17.7940 N.ar  150  HIS150     -0.2212
     84  N        -31.4000   31.6960  -19.8410 N.am  151  ASN151     -0.1974
     85  CA       -32.4990   32.2880  -19.0700 C.3   151  ASN151      0.1688
     86  C        -33.5880   32.9720  -19.8990 C.2   151  ASN151      0.2292
     87  O        -34.6460   33.3250  -19.3600 O.2   151  ASN151     -0.2864
     88  CB       -31.9610   33.3100  -18.0690 C.3   151  ASN151      0.1181
     89  CG       -31.2520   32.6780  -16.8910 C.2   151  ASN151      0.2629
     90  OD1      -31.3780   31.4800  -16.6360 O.2   151  ASN151     -0.2716
     91  ND2      -30.5030   33.4990  -16.1450 N.am  151  ASN151     -0.0877
     92  N        -32.5840   24.7470  -17.7350 N.3   191  HIS191     -0.1241
     93  CA       -33.0210   26.0830  -18.1800 C.3   191  HIS191      0.1621
     94  C        -34.2940   26.1580  -19.0130 C.2   191  HIS191      0.2264
     95  O        -34.9500   27.2060  -19.0140 O.2   191  HIS191     -0.2867
     96  CB       -31.9030   26.8250  -18.9230 C.3   191  HIS191      0.0745
     97  CG       -30.8640   27.3820  -18.0100 C.ar  191  HIS191      0.0817
     98  ND1      -31.0310   28.5700  -17.3290 N.ar  191  HIS191     -0.2268
     99  CD2      -29.6650   26.8900  -17.6260 C.ar  191  HIS191      0.1154
    100  CE1      -29.9680   28.7930  -16.5760 C.ar  191  HIS191      0.1986
    101  NE2      -29.1280   27.7880  -16.7370 N.ar  191  HIS191     -0.2212
    102  N        -27.6930   20.6210  -15.0230 N.3   212  HIS212     -0.1241
    103  CA       -27.7570   21.2190  -13.6920 C.3   212  HIS212      0.1621
    104  C        -29.1940   21.6390  -13.3470 C.2   212  HIS212      0.2264
    105  O        -29.5620   22.7980  -13.4700 O.2   212  HIS212     -0.2867
    106  CB       -26.7160   22.3560  -13.4920 C.3   212  HIS212      0.0745
    107  CG       -26.8270   23.5120  -14.4540 C.ar  212  HIS212      0.0817
    108  ND1      -26.7150   23.3720  -15.8240 N.ar  212  HIS212     -0.2268
    109  CD2      -26.9600   24.8410  -14.2240 C.ar  212  HIS212      0.1154
    110  CE1      -26.8140   24.5630  -16.3950 C.ar  212  HIS212      0.1986
    111  NE2      -26.9650   25.4700  -15.4450 N.ar  212  HIS212     -0.2212
    112  N        -36.7700   26.4370  -12.7550 N.3   223  ARG223     -0.1245
    113  CA       -35.4720   25.8540  -13.1040 C.3   223  ARG223      0.1563
    114  C        -35.3520   24.3810  -12.7220 C.2   223  ARG223      0.2260
    115  O        -34.4150   23.7060  -13.1530 O.2   223  ARG223     -0.2867
    116  CB       -34.3340   26.6660  -12.4880 C.3   223  ARG223      0.0307
    117  CG       -33.8990   27.8230  -13.3610 C.3   223  ARG223      0.0489
    118  CD       -33.1250   27.2970  -14.5680 C.3   223  ARG223      0.2205
    119  NE       -31.7370   26.9560  -14.2400 N.pl3 223  ARG223     -0.0865
    120  CZ       -31.2300   25.7200  -14.2150 C.cat 223  ARG223      0.5346
    121  NH1      -31.9930   24.6530  -14.4710 N.pl3 223  ARG223      0.1354
    122  NH2      -29.9450   25.5510  -13.9240 N.pl3 223  ARG223      0.1354
    123  N        -27.5360   24.8960   -6.4410 N.3   245  VAL245     -0.1245
    124  CA       -27.9270   26.3080   -6.3240 C.3   245  VAL245      0.1561
    125  C        -28.9570   26.5140   -5.2110 C.2   245  VAL245      0.2260
    126  O        -30.0840   26.0270   -5.3120 O.2   245  VAL245     -0.2867
    127  CB       -28.5280   26.8280   -7.6570 C.3   245  VAL245      0.0252
    128  CG1      -28.9250   28.3010   -7.5390 C.3   245  VAL245      0.0019
    129  CG2      -27.5720   26.6000   -8.8280 C.3   245  VAL245      0.0019
    130  N        -30.9430   28.8720   -4.1960 N.3   247  LYS247     -0.1231
    131  CA       -32.2140   29.4960   -4.5420 C.3   247  LYS247      0.1693
    132  C        -33.0770   28.6160   -5.4500 C.2   247  LYS247      0.2592
    133  O        -34.1850   29.0190   -5.8180 O.2   247  LYS247     -0.2718
    134  CB       -31.9920   30.8830   -5.1670 C.3   247  LYS247      0.0285
    135  CG       -31.3230   30.8380   -6.5240 C.3   247  LYS247      0.0035
    136  CD       -31.3970   32.1760   -7.2340 C.3   247  LYS247      0.0206
    137  CE       -30.7300   32.0850   -8.5970 C.3   247  LYS247      0.1093
    138  NZ       -30.7220   33.4160   -9.2820 N.3   247  LYS247     -0.1314
    139  N        -32.5710   27.4300   -5.8120 N.am  248  PHE248     -0.1976
    140  CA       -33.3810   26.4130   -6.4940 C.3   248  PHE248      0.1639
    141  C        -33.7230   25.2380   -5.5800 C.2   248  PHE248      0.2290
    142  O        -34.7930   24.6430   -5.7100 O.2   248  PHE248     -0.2864
    143  CB       -32.6810   25.8470   -7.7420 C.3   248  PHE248      0.0560
    144  CG       -32.3800   26.8680   -8.8000 C.ar  248  PHE248     -0.0200
    145  CD1      -33.0670   28.0690   -8.8590 C.ar  248  PHE248     -0.0042
    146  CD2      -31.3880   26.6190   -9.7400 C.ar  248  PHE248     -0.0042
    147  CE1      -32.7650   29.0190   -9.8420 C.ar  248  PHE248     -0.0003
    148  CE2      -31.0840   27.5600  -10.7260 C.ar  248  PHE248     -0.0003
    149  CZ       -31.7690   28.7540  -10.7780 C.ar  248  PHE248     -0.0000
    150  N        -22.7960   23.2670  -10.6750 N.3   320  ASP320     -0.1239
    151  CA       -22.8700   24.6760  -11.0740 C.3   320  ASP320      0.1674
    152  C        -21.7800   25.5220  -10.4110 C.2   320  ASP320      0.2266
    153  O        -21.9390   26.7380  -10.2650 O.2   320  ASP320     -0.2867
    154  CB       -24.2510   25.2770  -10.7780 C.3   320  ASP320      0.1410
    155  CG       -24.5460   26.5060  -11.6340 C.2   320  ASP320      0.3668
    156  OD1      -24.0960   26.5450  -12.8030 O.co2 320  ASP320     -0.2456
    157  OD2      -25.2220   27.4340  -11.1390 O.co2 320  ASP320     -0.2456
    158  N        -18.6790   27.8240   -9.7610 N.3   322  ASP322     -0.1225
    159  CA       -18.2220   29.0070  -10.4840 C.3   322  ASP322      0.1805
    160  C        -19.2500   29.6260  -11.4310 C.2   322  ASP322      0.2598
    161  O        -18.9310   30.5470  -12.1860 O.2   322  ASP322     -0.2718
    162  CB       -16.8590   28.7630  -11.1390 C.3   322  ASP322      0.1424
    163  CG       -15.7270   28.8070  -10.1180 C.2   322  ASP322      0.3668
    164  OD1      -15.7330   29.7360   -9.2680 O.co2 322  ASP322     -0.2456
    165  OD2      -14.8490   27.9180  -10.1420 O.co2 322  ASP322     -0.2456
    166  N        -20.4940   29.1570  -11.3410 N.am  323  GLY323     -0.1942
    167  CA       -21.5850   29.7190  -12.1210 C.3   323  GLY323      0.2014
    168  C        -22.6360   30.4110  -11.2760 C.2   323  GLY323      0.2640
    169  O        -23.5420   31.0410  -11.8080 O.2   323  GLY323     -0.2714
    170  N        -22.4960   30.3020   -9.9590 N.am  324  THR324     -0.1937
    171  CA       -23.4910   30.8030   -9.0280 C.3   324  THR324      0.2013
    172  C        -22.7610   31.2880   -7.7720 C.2   324  THR324      0.2484
    173  O        -21.7300   30.7400   -7.4040 O.2   324  THR324     -0.2729
    174  CB       -24.5490   29.6990   -8.7270 C.3   324  THR324      0.1807
    175  OG1      -25.7010   30.2740   -8.0940 O.3   324  THR324     -0.2208
    176  CG2      -23.9780   28.5710   -7.8570 C.3   324  THR324      0.0379
    177  N        -23.2770   32.3410   -7.1300 N.am  325  PRO325     -0.2726
    178  CA       -22.4730   32.9590   -6.0710 C.3   325  PRO325      0.1402
    179  C        -22.5310   32.2570   -4.7140 C.2   325  PRO325      0.2269
    180  O        -21.5700   32.3430   -3.9440 O.2   325  PRO325     -0.2865
    181  CB       -23.0580   34.3760   -5.9720 C.3   325  PRO325      0.0296
    182  CG       -24.4370   34.2650   -6.5130 C.3   325  PRO325      0.0237
    183  CD       -24.4050   33.1890   -7.5560 C.3   325  PRO325      0.0939
@<TRIPOS>BOND
     1    57    56    2
     2    56    55    1
     3    65    66    1
     4    67    68    2
     5    67    66    1
     6    54    55    1
     7    55    58    1
     8    74    75    1
     9    66    69    1
    10    44    45    2
    11    44    43    1
    12    58    59    1
    13    42    43    1
    14    43    46    1
    15    31    32   ar
    16    31    29   ar
    17    78    75    1
    18    78    79    1
    19    75    76    1
    20    69    70    1
    21    32    30   ar
    22    59    60    1
    23    77    76    2
    24    76    84   am
    25    29    26   ar
    26    61    60    1
    27    61    62    2
    28    48    50   ar
    29    48    47   ar
    30    46    47    1
    31    70    71    1
    32    64    62    1
    33    50    52   ar
    34    86    87    2
    35    86    85    1
    36    62    63    1
    37    47    49   ar
    38    84    85    1
    39    79    80   ar
    40    79    81   ar
    41    52    53    1
    42    52    51   ar
    43    30    28   ar
    44    49    51   ar
    45    80    82   ar
    46    85    88    1
    47    95    94    2
    48    94    93    1
    49    96    93    1
    50    96    97    1
    51    26    28   ar
    52    26    24   ar
    53    81    83   ar
    54    41    39   ar
    55    71    72   ar
    56    71    73   ar
    57    28    27   ar
    58    93    92    1
    59    82    83   ar
    60    88    89    1
    61    97    99   ar
    62    97    98   ar
    63    19    20    1
    64    20    23    1
    65    20    21    1
    66    24    23    1
    67    24    25   ar
    68     9     7   ar
    69     9    10   ar
    70    99   101   ar
    71    39    40   ar
    72    39    38    1
    73     7     6   ar
    74    98   100   ar
    75    27    25   ar
    76    17    16   ar
    77    33    34    1
    78    89    90    2
    79    89    91   am
    80   101   100   ar
    81    22    21    2
    82    10     8   ar
    83    38    37    1
    84   110   108   ar
    85   110   111   ar
    86    34    37    1
    87    34    35    1
    88     6     8   ar
    89     6     5    1
    90   108   107   ar
    91    16    18   ar
    92    16    15    1
    93   111   109   ar
    94     5     2    1
    95     2     1    1
    96     2     3    1
    97    14    13    2
    98    12    13    1
    99    12    15    1
   100    12    11    1
   101    35    36    2
   102   102   103    1
   103   118   119    1
   104   118   117    1
   105   121   120    1
   106   107   109   ar
   107   107   106    1
   108     3     4    2
   109   119   120    2
   110   120   122    1
   111   103   106    1
   112   103   104    1
   113   105   104    2
   114   117   116    1
   115   115   114    2
   116   113   112    1
   117   113   114    1
   118   113   116    1
   119   156   155   ar
   120   161   160    2
   121   167   166    1
   122   167   168    1
   123   169   168    2
   124   155   157   ar
   125   155   154    1
   126   160   166   am
   127   160   159    1
   128   168   170   am
   129   162   159    1
   130   162   163    1
   131   151   154    1
   132   151   150    1
   133   151   152    1
   134   149   148   ar
   135   149   147   ar
   136   148   146   ar
   137   159   158    1
   138   152   153    2
   139   165   163   ar
   140   163   164   ar
   141   170   171    1
   142   147   145   ar
   143   146   144   ar
   144   138   137    1
   145   171   174    1
   146   171   172    1
   147   145   144   ar
   148   129   127    1
   149   144   143    1
   150   174   175    1
   151   174   176    1
   152   137   136    1
   153   172   173    2
   154   172   177   am
   155   143   140    1
   156   127   128    1
   157   127   124    1
   158   183   177    1
   159   183   182    1
   160   136   135    1
   161   177   178    1
   162   135   134    1
   163   182   181    1
   164   140   139    1
   165   140   141    1
   166   123   124    1
   167   124   125    1
   168   178   181    1
   169   178   179    1
   170   133   132    2
   171   139   132   am
   172   142   141    2
   173   132   131    1
   174   126   125    2
   175   134   131    1
   176   179   180    2
   177   131   130    1
