@<TRIPOS>MOLECULE
tmp/3s2oA00.pdb
 177 167 0 0 0
SMALL
GASTEIGER

@<TRIPOS>ATOM
      1  N        -22.7250   32.8570    1.8970 N.3    32  LEU32      -0.1245
      2  CA       -22.0530   34.1020    1.6510 C.3    32  LEU32       0.1561
      3  C        -20.5780   33.8150    1.4290 C.2    32  LEU32       0.2260
      4  O        -19.9670   33.0560    2.1740 O.2    32  LEU32      -0.2867
      5  CB       -22.2860   35.0440    2.8130 C.3    32  LEU32       0.0270
      6  CG       -21.7220   36.4290    2.4920 C.3    32  LEU32       0.0019
      7  CD1      -22.7420   37.4760    2.9200 C.3    32  LEU32       0.0001
      8  CD2      -20.3430   36.7230    3.1020 C.3    32  LEU32       0.0001
      9  N        -16.8260   34.8650    1.4200 N.3    34  ASP34      -0.1239
     10  CA       -16.1630   35.8680    2.2950 C.3    34  ASP34       0.1674
     11  C        -14.6450   35.7450    2.3170 C.2    34  ASP34       0.2266
     12  O        -14.1040   34.8770    2.9940 O.2    34  ASP34      -0.2867
     13  CB       -16.7380   35.7350    3.7230 C.3    34  ASP34       0.1410
     14  CG       -16.0840   36.6710    4.7490 C.2    34  ASP34       0.3668
     15  OD1      -15.4920   37.6790    4.3330 O.co2  34  ASP34      -0.2456
     16  OD2      -16.2170   36.4050    5.9930 O.co2  34  ASP34      -0.2456
     17  N        -12.6280   37.5360    3.8770 N.3    36  GLY36      -0.1210
     18  CA       -12.1420   38.1820    5.1030 C.3    36  GLY36       0.1956
     19  C        -12.1600   37.3000    6.3360 C.2    36  GLY36       0.2612
     20  O        -11.9390   37.7730    7.4290 O.2    36  GLY36      -0.2717
     21  N        -12.3990   36.0040    6.1830 N.am   37  SER37      -0.1952
     22  CA       -12.4080   35.0810    7.3140 C.3    37  SER37       0.1924
     23  C        -12.0960   33.6830    6.7560 C.2    37  SER37       0.2314
     24  O        -11.9400   33.5330    5.5330 O.2    37  SER37      -0.2863
     25  CB       -13.7640   35.1240    8.0240 C.3    37  SER37       0.2116
     26  OG       -14.7900   34.4570    7.2860 O.3    37  SER37      -0.2180
     27  N        -17.1860   32.7270   18.3250 N.3    71  VAL71      -0.1245
     28  CA       -16.6370   33.8270   17.5500 C.3    71  VAL71       0.1561
     29  C        -17.3550   35.1820   17.8320 C.2    71  VAL71       0.2260
     30  O        -18.4080   35.4560   17.2790 O.2    71  VAL71      -0.2867
     31  CB       -16.6390   33.4950   16.0100 C.3    71  VAL71       0.0252
     32  CG1      -16.0030   34.6190   15.2270 C.3    71  VAL71       0.0019
     33  CG2      -15.9370   32.1940   15.7290 C.3    71  VAL71       0.0019
     34  N        -17.5570   39.4690   17.7390 N.3    73  TYR73      -0.1241
     35  CA       -17.0240   40.5920   16.9600 C.3    73  TYR73       0.1605
     36  C        -17.5630   41.8700   17.5640 C.2    73  TYR73       0.2264
     37  O        -18.1480   41.8210   18.6460 O.2    73  TYR73      -0.2867
     38  CB       -17.3010   40.4620   15.4390 C.3    73  TYR73       0.0534
     39  CG       -18.6950   40.0160   15.0630 C.ar   73  TYR73      -0.0201
     40  CD1      -19.7600   40.9290   15.0130 C.ar   73  TYR73      -0.0009
     41  CD2      -18.9550   38.6740   14.7800 C.ar   73  TYR73      -0.0009
     42  CE1      -21.0560   40.5130   14.6800 C.ar   73  TYR73       0.0417
     43  CE2      -20.2380   38.2410   14.4420 C.ar   73  TYR73       0.0417
     44  CZ       -21.2830   39.1650   14.3970 C.ar   73  TYR73       0.1957
     45  OH       -22.5430   38.7320   14.0530 O.3    73  TYR73      -0.2866
     46  N        -21.1180   34.8370   16.6110 N.3    78  TRP78      -0.1241
     47  CA       -21.6820   33.5480   16.2920 C.3    78  TRP78       0.1605
     48  C        -21.0010   32.4760   17.1500 C.2    78  TRP78       0.2264
     49  O        -19.8580   32.6430   17.5790 O.2    78  TRP78      -0.2867
     50  CB       -21.6730   33.2730   14.7640 C.3    78  TRP78       0.0550
     51  CG       -20.3460   32.9290   14.0970 C.ar   78  TRP78       0.0003
     52  CD1      -19.5240   33.7770   13.4130 C.ar   78  TRP78       0.0946
     53  CD2      -19.7400   31.6330   14.0040 C.ar   78  TRP78       0.0152
     54  NE1      -18.4280   33.0970   12.9200 N.ar   78  TRP78      -0.2442
     55  CE2      -18.5350   31.7800   13.2790 C.ar   78  TRP78       0.0810
     56  CE3      -20.0880   30.3620   14.4790 C.ar   78  TRP78       0.0012
     57  CZ2      -17.6620   30.6940   13.0340 C.ar   78  TRP78       0.0191
     58  CZ3      -19.2240   29.2760   14.2200 C.ar   78  TRP78       0.0001
     59  CH2      -18.0320   29.4530   13.5030 C.ar   78  TRP78       0.0015
     60  N        -26.8300   39.4230   15.9650 N.3   109  LYS109     -0.1231
     61  CA       -26.5310   40.3910   14.8930 C.3   109  LYS109      0.1693
     62  C        -25.5430   39.8380   13.8640 C.2   109  LYS109      0.2592
     63  O        -24.5870   40.5250   13.4630 O.2   109  LYS109     -0.2718
     64  CB       -26.1390   41.7710   15.4560 C.3   109  LYS109      0.0285
     65  CG       -27.2140   42.3530   16.4060 C.3   109  LYS109      0.0035
     66  CD       -26.9210   43.8020   16.8820 C.3   109  LYS109      0.0206
     67  CE       -26.9440   44.4070   17.9590 C.3   109  LYS109      0.1093
     68  NZ       -28.3420   44.9020   17.8270 N.3   109  LYS109     -0.1314
     69  N        -25.7890   38.5980   13.4430 N.am  110  PHE110     -0.1976
     70  CA       -24.9460   37.9340   12.4420 C.3   110  PHE110      0.1639
     71  C        -25.7300   37.7880   11.1340 C.2   110  PHE110      0.2290
     72  O        -25.3010   38.2260   10.0670 O.2   110  PHE110     -0.2864
     73  CB       -24.4840   36.5480   12.9540 C.3   110  PHE110      0.0560
     74  CG       -23.5870   35.7790   11.9870 C.ar  110  PHE110     -0.0200
     75  CD1      -22.2710   36.1810   11.7570 C.ar  110  PHE110     -0.0042
     76  CD2      -24.0410   34.6370   11.3490 C.ar  110  PHE110     -0.0042
     77  CE1      -21.3880   35.4890   10.8570 C.ar  110  PHE110     -0.0003
     78  CE2      -23.1840   33.9100   10.4510 C.ar  110  PHE110     -0.0003
     79  CZ       -21.8370   34.3690   10.2140 C.ar  110  PHE110     -0.0000
     80  N        -28.8080   38.5400    8.5160 N.3   112  ILE112     -0.1245
     81  CA       -29.4730   39.7410    8.0190 C.3   112  ILE112      0.1561
     82  C        -30.9220   39.4000    7.7130 C.2   112  ILE112      0.2260
     83  O        -31.2010   38.5300    6.8910 O.2   112  ILE112     -0.2867
     84  CB       -28.8440   40.2380    6.7150 C.3   112  ILE112      0.0252
     85  CG1      -27.4180   40.7120    6.9470 C.3   112  ILE112      0.0019
     86  CG2      -29.7340   41.3160    6.0620 C.3   112  ILE112      0.0019
     87  CD1      -26.7660   41.3160    5.6950 C.3   112  ILE112      0.0001
     88  N        -29.1820   34.1980    2.2870 N.3   117  TRP117     -0.1241
     89  CA       -28.0940   33.2890    2.6600 C.3   117  TRP117      0.1605
     90  C        -28.1820   32.7520    4.1120 C.2   117  TRP117      0.2264
     91  O        -28.8410   33.3360    4.9490 O.2   117  TRP117     -0.2867
     92  CB       -26.7070   33.9130    2.3890 C.3   117  TRP117      0.0550
     93  CG       -26.4550   35.1960    3.1070 C.ar  117  TRP117      0.0003
     94  CD1      -26.6350   36.4480    2.6280 C.ar  117  TRP117      0.0946
     95  CD2      -25.9640   35.3470    4.4490 C.ar  117  TRP117      0.0152
     96  NE1      -26.2990   37.3840    3.5800 N.ar  117  TRP117     -0.2442
     97  CE2      -25.8870   36.7310    4.7110 C.ar  117  TRP117      0.0810
     98  CE3      -25.5730   34.4430    5.4530 C.ar  117  TRP117      0.0012
     99  CZ2      -25.4360   37.2340    5.9210 C.ar  117  TRP117      0.0191
    100  CZ3      -25.1470   34.9510    6.6580 C.ar  117  TRP117      0.0001
    101  CH2      -25.0620   36.3440    6.8730 C.ar  117  TRP117      0.0015
    102  N        -21.6640   31.1760    5.7930 N.3   120  ILE120     -0.1245
    103  CA       -20.5650   32.0480    5.3940 C.3   120  ILE120      0.1561
    104  C        -19.4170   31.1510    4.9540 C.2   120  ILE120      0.2260
    105  O        -19.1150   30.1430    5.6200 O.2   120  ILE120     -0.2867
    106  CB       -20.1870   32.9080    6.6000 C.3   120  ILE120      0.0252
    107  CG1      -19.0910   33.8980    6.3270 C.3   120  ILE120      0.0019
    108  CG2      -19.6540   32.0470    7.7720 C.3   120  ILE120      0.0019
    109  CD1      -18.7290   34.6970    7.6550 C.3   120  ILE120      0.0001
    110  N        -10.9430   29.8740   13.2140 N.3   130  ARG130     -0.1245
    111  CA       -11.3630   29.7700   14.5910 C.3   130  ARG130      0.1563
    112  C        -11.8220   28.3580   14.9280 C.2   130  ARG130      0.2260
    113  O        -12.4440   27.7040   14.0870 O.2   130  ARG130     -0.2867
    114  CB       -12.4240   30.8220   14.8930 C.3   130  ARG130      0.0307
    115  CG       -11.8530   31.9530   15.7100 C.3   130  ARG130      0.0489
    116  CD       -12.0840   33.2860   15.0740 C.3   130  ARG130      0.2205
    117  NE       -10.8280   34.0350   15.0050 N.pl3 130  ARG130     -0.0865
    118  CZ       -10.6980   35.2840   14.5500 C.cat 130  ARG130      0.5346
    119  NH1       -9.4910   35.8390   14.5190 N.pl3 130  ARG130      0.1354
    120  NH2      -11.7690   35.9780   14.1360 N.pl3 130  ARG130      0.1354
    121  N         -5.2110   36.8500    6.4510 N.3   190  TYR190     -0.1241
    122  CA        -6.1140   37.5320    5.5240 C.3   190  TYR190      0.1605
    123  C         -5.4520   37.6090    4.1510 C.2   190  TYR190      0.2264
    124  O         -4.3130   37.2250    3.9900 O.2   190  TYR190     -0.2867
    125  CB        -6.3590   38.9640    5.9870 C.3   190  TYR190      0.0534
    126  CG        -7.1290   39.1050    7.2840 C.ar  190  TYR190     -0.0201
    127  CD1       -8.5210   39.1610    7.2810 C.ar  190  TYR190     -0.0009
    128  CD2       -6.4560   39.2100    8.5230 C.ar  190  TYR190     -0.0009
    129  CE1       -9.2320   39.2770    8.4650 C.ar  190  TYR190      0.0417
    130  CE2       -7.1600   39.3320    9.7210 C.ar  190  TYR190      0.0417
    131  CZ        -8.5490   39.3740    9.6900 C.ar  190  TYR190      0.1957
    132  OH        -9.2850   39.5370   10.8660 O.3   190  TYR190     -0.2866
    133  N         -6.2730   44.8180    3.5520 N.3   218  ILE218     -0.1245
    134  CA        -6.7480   43.5300    3.0620 C.3   218  ILE218      0.1561
    135  C         -7.7420   43.6010    1.9090 C.2   218  ILE218      0.2260
    136  O         -8.2960   44.6640    1.6080 O.2   218  ILE218     -0.2867
    137  CB        -7.3930   42.6940    4.1950 C.3   218  ILE218      0.0252
    138  CG1       -8.7540   43.2840    4.6330 C.3   218  ILE218      0.0019
    139  CG2       -6.4040   42.4910    5.3010 C.3   218  ILE218      0.0019
    140  CD1       -9.4540   42.6130    5.8820 C.3   218  ILE218      0.0001
    141  N        -11.3910   42.1480    0.8810 N.3   220  ASP220     -0.1239
    142  CA       -12.5160   41.5160    1.5680 C.3   220  ASP220      0.1674
    143  C        -13.8500   41.6280    0.8540 C.2   220  ASP220      0.2266
    144  O        -14.5160   42.6580    0.9070 O.2   220  ASP220     -0.2867
    145  CB       -12.6470   42.0590    2.9860 C.3   220  ASP220      0.1410
    146  CG       -13.6990   41.3350    3.7890 C.2   220  ASP220      0.3668
    147  OD1      -14.1030   40.2020    3.4080 O.co2 220  ASP220     -0.2456
    148  OD2      -14.1290   41.8890    4.8230 O.co2 220  ASP220     -0.2456
    149  N        -16.4150   40.5100    2.0910 N.3   222  GLY222     -0.1210
    150  CA       -17.4230   40.4830    3.1590 C.3   222  GLY222      0.1956
    151  C        -17.7550   41.8690    3.6760 C.2   222  GLY222      0.2612
    152  O        -18.5730   42.0320    4.5770 O.2   222  GLY222     -0.2717
    153  N        -17.1080   42.8820    3.0890 N.am  223  THR223     -0.1952
    154  CA       -17.2260   44.2640    3.4770 C.3   223  THR223      0.1897
    155  C        -17.7130   44.9830    2.2560 C.2   223  THR223      0.2313
    156  O        -17.2820   44.7000    1.1380 O.2   223  THR223     -0.2863
    157  CB       -15.8690   44.8590    3.8990 C.3   223  THR223      0.1794
    158  OG1      -15.4420   44.2600    5.1190 O.3   223  THR223     -0.2208
    159  CG2      -15.9770   46.3710    4.1490 C.3   223  THR223      0.0378
    160  N        -12.6250   50.9320    3.3250 N.3   227  ARG227     -0.1245
    161  CA       -12.3880   51.4160    4.6680 C.3   227  ARG227      0.1563
    162  C        -10.9270   51.7900    4.8590 C.2   227  ARG227      0.2260
    163  O        -10.0350   51.0010    4.4890 O.2   227  ARG227     -0.2867
    164  CB       -12.8520   50.3680    5.6790 C.3   227  ARG227      0.0307
    165  CG       -14.3290   49.9620    5.5120 C.3   227  ARG227      0.0489
    166  CD       -14.7320   48.9610    6.5740 C.3   227  ARG227      0.2205
    167  NE       -15.0240   49.6010    7.8520 N.pl3 227  ARG227     -0.0865
    168  CZ       -14.3670   49.3480    8.9860 C.cat 227  ARG227      0.5346
    169  NH1      -13.3760   48.4440    9.0140 N.pl3 227  ARG227      0.1354
    170  NH2      -14.7090   50.0050   10.0990 N.pl3 227  ARG227      0.1354
    171  N         -9.5320   48.2840    4.2890 N.3   324  VAL324     -0.1245
    172  CA       -10.3090   47.1470    3.7990 C.3   324  VAL324      0.1561
    173  C        -10.7290   47.4960    2.3860 C.2   324  VAL324      0.2260
    174  O        -11.3960   48.5200    2.1510 O.2   324  VAL324     -0.2867
    175  CB       -11.5550   46.8510    4.6920 C.3   324  VAL324      0.0252
    176  CG1      -12.3050   45.6310    4.1920 C.3   324  VAL324      0.0019
    177  CG2      -11.1270   46.6240    6.0980 C.3   324  VAL324      0.0019
@<TRIPOS>BOND
     1   143   144    2
     2   143   142    1
     3   141   142    1
     4   156   155    2
     5     9    10    1
     6     3     2    1
     7     3     4    2
     8   142   145    1
     9   136   135    2
    10     2     1    1
    11     2     5    1
    12   135   134    1
    13   149   150    1
    14   174   173    2
    15   155   154    1
    16    88    89    1
    17    10    11    1
    18    10    13    1
    19    11    12    2
    20   173   172    1
    21    92    89    1
    22    92    93    1
    23     6     5    1
    24     6     7    1
    25     6     8    1
    26    94    93   ar
    27    94    96   ar
    28    89    90    1
    29   145   146    1
    30   134   133    1
    31   134   137    1
    32   153   154    1
    33   153   151   am
    34    93    95   ar
    35   150   151    1
    36   160   161    1
    37   147   146   ar
    38   154   157    1
    39    96    97   ar
    40   151   152    2
    41    13    14    1
    42   146   148   ar
    43   172   171    1
    44   172   175    1
    45    17    18    1
    46   157   159    1
    47   157   158    1
    48   124   123    2
    49    90    91    2
    50   123   122    1
    51   176   175    1
    52   137   138    1
    53   137   139    1
    54    15    14   ar
    55    95    97   ar
    56    95    98   ar
    57   163   162    2
    58   138   140    1
    59   161   162    1
    60   161   164    1
    61   175   177    1
    62    97    99   ar
    63    14    16   ar
    64   104   103    1
    65   104   105    2
    66    18    19    1
    67   103   102    1
    68   103   106    1
    69    98   100   ar
    70   165   164    1
    71   165   166    1
    72   122   125    1
    73   122   121    1
    74    24    23    2
    75    87    85    1
    76    99   101   ar
    77   125   126    1
    78    86    84    1
    79    21    19   am
    80    21    22    1
    81   107   106    1
    82   107   109    1
    83    19    20    2
    84   166   167    1
    85   106   108    1
    86   100   101   ar
    87    84    85    1
    88    84    81    1
    89    23    22    1
    90    83    82    2
    91   127   126   ar
    92   127   129   ar
    93   126   128   ar
    94    26    25    1
    95    22    25    1
    96    82    81    1
    97   167   168    2
    98    81    80    1
    99   129   131   ar
   100   128   130   ar
   101   168   169    1
   102   168   170    1
   103   131   130   ar
   104   131   132    1
   105    72    71    2
   106    79    78   ar
   107    79    77   ar
   108    78    76   ar
   109    77    75   ar
   110    71    70    1
   111    76    74   ar
   112    75    74   ar
   113    74    73    1
   114    70    73    1
   115    70    69    1
   116    54    55   ar
   117    54    52   ar
   118    57    55   ar
   119    57    59   ar
   120   110   111    1
   121    55    53   ar
   122    52    51   ar
   123    69    62   am
   124    63    62    2
   125    59    58   ar
   126    62    61    1
   127    53    51   ar
   128    53    56   ar
   129    45    44    1
   130   113   112    2
   131    51    50    1
   132   120   118    1
   133    58    56   ar
   134    44    43   ar
   135    44    42   ar
   136    43    41   ar
   137   119   118    1
   138   118   117    2
   139   111   114    1
   140   111   112    1
   141    42    40   ar
   142    50    47    1
   143    41    39   ar
   144    61    64    1
   145    61    60    1
   146   114   115    1
   147   117   116    1
   148    40    39   ar
   149    39    38    1
   150   116   115    1
   151    32    31    1
   152    38    35    1
   153    64    65    1
   154    33    31    1
   155    31    28    1
   156    47    46    1
   157    47    48    1
   158    65    66    1
   159    66    67    1
   160    35    36    1
   161    35    34    1
   162    48    49    2
   163    30    29    2
   164    28    29    1
   165    28    27    1
   166    36    37    2
   167    68    67    1
