@<TRIPOS>MOLECULE
tmp/3s2pA00.pdb
 182 174 0 0 0
SMALL
GASTEIGER

@<TRIPOS>ATOM
      1  N         26.8340   22.5320   33.2440 N.3    10  ILE10      -0.1231
      2  CA        25.7180   22.9700   32.4330 C.3    10  ILE10       0.1692
      3  C         25.7290   22.3410   31.0730 C.2    10  ILE10       0.2593
      4  O         24.6710   22.0100   30.5350 O.2    10  ILE10      -0.2718
      5  CB        25.7070   24.5000   32.2910 C.3    10  ILE10       0.0266
      6  CG1       25.5220   25.1240   33.6700 C.3    10  ILE10       0.0019
      7  CG2       24.5800   24.9310   31.3610 C.3    10  ILE10       0.0020
      8  CD1       24.3570   24.5060   34.4510 C.3    10  ILE10       0.0001
      9  N         26.9200   22.1670   30.5150 N.am   11  GLY11      -0.1942
     10  CA        27.0160   21.5590   29.2040 C.3    11  GLY11       0.2014
     11  C         28.4260   21.5010   28.6590 C.2    11  GLY11       0.2639
     12  O         29.2430   22.3900   28.8920 O.2    11  GLY11      -0.2714
     13  N         28.7210   20.4360   27.9260 N.am   12  GLU12      -0.1963
     14  CA        30.0390   20.2940   27.3350 C.3    12  GLU12       0.1733
     15  C         30.1220   21.3620   26.2680 C.2    12  GLU12       0.2617
     16  O         29.1470   22.0570   26.0000 O.2    12  GLU12      -0.2715
     17  CB        30.1940   18.9170   26.6960 C.3    12  GLU12       0.0429
     18  CG        31.5690   18.3240   26.8850 C.3    12  GLU12       0.1163
     19  CD        32.0450   18.4510   28.3280 C.2    12  GLU12       0.3649
     20  OE1       32.6820   19.4890   28.6510 O.co2  12  GLU12      -0.2457
     21  OE2       31.7660   17.5210   29.1370 O.co2  12  GLU12      -0.2457
     22  N         31.2840   21.4980   25.6530 N.am   13  GLY13      -0.1940
     23  CA        31.4150   22.4980   24.6170 C.3    13  GLY13       0.2014
     24  C         32.3130   22.0440   23.4890 C.2    13  GLY13       0.2639
     25  O         32.8810   20.9450   23.5020 O.2    13  GLY13      -0.2714
     26  N         32.4150   22.9040   22.4890 N.am   14  THR14      -0.1950
     27  CA        33.2630   22.6520   21.3400 C.3    14  THR14       0.1897
     28  C         34.7130   22.6020   21.8410 C.2    14  THR14       0.2313
     29  O         35.4490   21.6550   21.5360 O.2    14  THR14      -0.2863
     30  CB        33.0960   23.7900   20.3140 C.3    14  THR14       0.1794
     31  OG1       32.8460   25.0150   21.0210 O.3    14  THR14      -0.2208
     32  CG2       31.9170   23.5160   19.3750 C.3    14  THR14       0.0378
     33  N         31.4460   23.7240   30.1470 N.3    18  VAL18      -0.1245
     34  CA        30.8020   24.9650   30.5660 C.3    18  VAL18       0.1561
     35  C         30.1730   24.8280   31.9400 C.2    18  VAL18       0.2260
     36  O         29.4730   23.8580   32.2290 O.2    18  VAL18      -0.2867
     37  CB        29.7090   25.4040   29.5650 C.3    18  VAL18       0.0252
     38  CG1       28.8850   26.5510   30.1610 C.3    18  VAL18       0.0019
     39  CG2       30.3510   25.8540   28.2670 C.3    18  VAL18       0.0019
     40  N         28.6000   32.2310   33.4510 N.3    31  ALA31      -0.1245
     41  CA        28.8040   31.0280   32.6630 C.3    31  ALA31       0.1562
     42  C         30.3150   30.9440   32.5070 C.2    31  ALA31       0.2260
     43  O         30.9320   31.8270   31.8930 O.2    31  ALA31      -0.2867
     44  CB        28.1360   31.1630   31.3020 C.3    31  ALA31       0.0290
     45  N         33.7710   29.1780   31.1520 N.3    33  LYS33      -0.1245
     46  CA        34.1830   28.3830   30.0180 C.3    33  LYS33       0.1561
     47  C         35.6670   28.0370   30.0870 C.2    33  LYS33       0.2260
     48  O         36.5220   28.8960   29.9630 O.2    33  LYS33      -0.2867
     49  CB        33.8620   29.1370   28.7240 C.3    33  LYS33       0.0271
     50  CG        33.9500   28.2870   27.4840 C.3    33  LYS33       0.0035
     51  CD        33.7150   29.1050   26.2380 C.3    33  LYS33       0.0206
     52  CE        33.4130   28.1970   25.0310 C.3    33  LYS33       0.1093
     53  NZ        32.1570   27.4000   25.2000 N.3    33  LYS33      -0.1314
     54  N         25.9520   37.3830   23.5400 N.3    56  VAL56      -0.1245
     55  CA        26.2280   36.9720   24.9080 C.3    56  VAL56       0.1561
     56  C         27.4970   37.6970   25.3300 C.2    56  VAL56       0.2260
     57  O         28.5680   37.4770   24.7490 O.2    56  VAL56      -0.2867
     58  CB        26.4780   35.4560   25.0020 C.3    56  VAL56       0.0252
     59  CG1       26.8940   35.0950   26.4240 C.3    56  VAL56       0.0019
     60  CG2       25.2290   34.6880   24.6010 C.3    56  VAL56       0.0019
     61  N         31.4790   34.5150   30.9350 N.3    72  PHE72      -0.1227
     62  CA        30.3770   35.0420   30.1250 C.3    72  PHE72       0.1736
     63  C         29.1420   35.3250   30.9760 C.2    72  PHE72       0.2595
     64  O         28.9950   34.7920   32.0850 O.2    72  PHE72      -0.2718
     65  CB        29.9630   34.0240   29.0530 C.3    72  PHE72       0.0547
     66  CG        30.9620   33.8290   27.9520 C.ar   72  PHE72      -0.0202
     67  CD1       31.0560   34.7430   26.9080 C.ar   72  PHE72      -0.0042
     68  CD2       31.7620   32.6840   27.9180 C.ar   72  PHE72      -0.0042
     69  CE1       31.9260   34.5180   25.8360 C.ar   72  PHE72      -0.0003
     70  CE2       32.6370   32.4490   26.8490 C.ar   72  PHE72      -0.0003
     71  CZ        32.7180   33.3660   25.8070 C.ar   72  PHE72      -0.0000
     72  N         28.2500   36.1560   30.4440 N.am   73  GLU73      -0.1965
     73  CA        27.0030   36.4500   31.1300 C.3    73  GLU73       0.1733
     74  C         26.1680   35.1810   30.9930 C.2    73  GLU73       0.2616
     75  O         26.2720   34.4600   30.0010 O.2    73  GLU73      -0.2715
     76  CB        26.2750   37.6400   30.4970 C.3    73  GLU73       0.0429
     77  CG        25.8780   37.4560   29.0690 C.3    73  GLU73       0.1163
     78  CD        24.7340   38.3560   28.6950 C.2    73  GLU73       0.3649
     79  OE1       23.6690   38.2360   29.3350 O.co2  73  GLU73      -0.2457
     80  OE2       24.8930   39.1830   27.7690 O.co2  73  GLU73      -0.2457
     81  N         25.3370   34.9220   31.9880 N.am   74  PHE74      -0.1960
     82  CA        24.5240   33.7250   32.0340 C.3    74  PHE74       0.1771
     83  C         23.0700   33.8970   31.6150 C.2    74  PHE74       0.2619
     84  O         22.3830   34.8090   32.0660 O.2    74  PHE74      -0.2715
     85  CB        24.5900   33.1730   33.4640 C.3    74  PHE74       0.0574
     86  CG        23.7610   31.9490   33.6930 C.ar   74  PHE74      -0.0200
     87  CD1       24.3150   30.6830   33.5510 C.ar   74  PHE74      -0.0042
     88  CD2       22.4370   32.0610   34.0900 C.ar   74  PHE74      -0.0042
     89  CE1       23.5620   29.5390   33.8080 C.ar   74  PHE74      -0.0003
     90  CE2       21.6720   30.9290   34.3490 C.ar   74  PHE74      -0.0003
     91  CZ        22.2360   29.6630   34.2100 C.ar   74  PHE74      -0.0000
     92  N         22.6090   33.0140   30.7380 N.am   75  LEU75      -0.1963
     93  CA        21.2090   33.0220   30.3090 C.3    75  LEU75       0.1728
     94  C         20.7070   31.6100   30.6250 C.2    75  LEU75       0.2616
     95  O         21.4810   30.6530   30.5610 O.2    75  LEU75      -0.2715
     96  CB        21.0750   33.3380   28.8160 C.3    75  LEU75       0.0311
     97  CG        21.4610   34.7560   28.3950 C.3    75  LEU75       0.0022
     98  CD1       22.9730   34.9080   28.4260 C.3    75  LEU75       0.0001
     99  CD2       20.9350   35.0410   26.9970 C.3    75  LEU75       0.0001
    100  N         19.4290   31.4690   30.9600 N.am   76  HIS76      -0.1959
    101  CA        18.9240   30.1560   31.3310 C.3    76  HIS76       0.1787
    102  C         18.5870   29.1320   30.2490 C.2    76  HIS76       0.2620
    103  O         18.2330   28.0190   30.5960 O.2    76  HIS76      -0.2715
    104  CB        17.6970   30.2790   32.2470 C.3    76  HIS76       0.0785
    105  CG        17.9560   30.9700   33.5540 C.ar   76  HIS76       0.0821
    106  ND1       18.2520   32.3170   33.6440 N.ar   76  HIS76      -0.2267
    107  CD2       17.8870   30.5150   34.8310 C.ar   76  HIS76       0.1154
    108  CE1       18.3510   32.6610   34.9180 C.ar   76  HIS76       0.1986
    109  NE2       18.1320   31.5870   35.6590 N.ar   76  HIS76      -0.2212
    110  N         18.6830   29.4430   28.9600 N.am   77  GLN77      -0.1963
    111  CA        18.3290   28.3980   27.9910 C.3    77  GLN77       0.1733
    112  C         18.7360   28.5840   26.5350 C.2    77  GLN77       0.2616
    113  O         18.7460   29.6920   26.0230 O.2    77  GLN77      -0.2715
    114  CB        16.8230   28.1520   28.0600 C.3    77  GLN77       0.0408
    115  CG        16.3400   26.9940   27.2110 C.3    77  GLN77       0.0908
    116  CD        14.9210   26.6050   27.5480 C.2    77  GLN77       0.2608
    117  OE1       14.3900   25.6220   27.0300 O.2    77  GLN77      -0.2717
    118  NE2       14.2970   27.3730   28.4360 N.am   77  GLN77      -0.0878
    119  N         19.0470   27.4770   25.8620 N.am   78  ASP78      -0.1971
    120  CA        19.4370   27.5180   24.4510 C.3    78  ASP78       0.1709
    121  C         18.2060   27.3410   23.5570 C.2    78  ASP78       0.2293
    122  O         17.0990   27.1280   24.0550 O.2    78  ASP78      -0.2864
    123  CB        20.4720   26.4290   24.1350 C.3    78  ASP78       0.1436
    124  CG        19.9200   25.0200   24.2910 C.2    78  ASP78       0.3671
    125  OD1       18.7050   24.8540   24.5060 O.co2  78  ASP78      -0.2456
    126  OD2       20.7110   24.0630   24.1960 O.co2  78  ASP78      -0.2456
    127  N         16.9230   23.3790   23.2130 N.3    81  LYS81      -0.1245
    128  CA        16.0280   22.9500   24.2730 C.3    81  LYS81       0.1561
    129  C         14.6730   23.6250   24.0880 C.2    81  LYS81       0.2260
    130  O         13.6300   23.0030   24.2930 O.2    81  LYS81      -0.2867
    131  CB        16.5940   23.2970   25.6540 C.3    81  LYS81       0.0271
    132  CG        15.9840   22.4440   26.7730 C.3    81  LYS81       0.0035
    133  CD        16.1980   23.0090   28.1790 C.3    81  LYS81       0.0206
    134  CE        15.5280   22.0980   29.2110 C.3    81  LYS81       0.1093
    135  NZ        15.7060   22.5520   30.6300 N.3    81  LYS81      -0.1314
    136  N         24.6000   27.5360   15.6090 N.3   121  LYS121     -0.1245
    137  CA        23.7420   26.3810   15.8000 C.3   121  LYS121      0.1561
    138  C         22.8020   26.6770   16.9510 C.2   121  LYS121      0.2260
    139  O         23.0740   27.5440   17.7690 O.2   121  LYS121     -0.2867
    140  CB        24.5590   25.1230   16.0810 C.3   121  LYS121      0.0271
    141  CG        25.6960   25.2950   17.0430 C.3   121  LYS121      0.0035
    142  CD        26.1410   23.9410   17.5480 C.3   121  LYS121      0.0206
    143  CE        27.5590   23.9800   18.0500 C.3   121  LYS121      0.1093
    144  NZ        28.4620   24.2310   16.9030 N.3   121  LYS121     -0.1314
    145  N         22.3570   25.4680   19.6710 N.3   123  GLN123     -0.1231
    146  CA        23.0130   25.4180   20.9620 C.3   123  GLN123      0.1698
    147  C         23.7130   26.7180   21.3580 C.2   123  GLN123      0.2592
    148  O         23.8300   26.9880   22.5410 O.2   123  GLN123     -0.2718
    149  CB        24.0190   24.2600   21.0070 C.3   123  GLN123      0.0381
    150  CG        23.4090   22.8630   20.9420 C.3   123  GLN123      0.0905
    151  CD        22.7040   22.5500   19.6140 C.2   123  GLN123      0.2608
    152  OE1       22.9020   23.2330   18.5940 O.2   123  GLN123     -0.2717
    153  NE2       21.8890   21.4960   19.6240 N.am  123  GLN123     -0.0878
    154  N         24.1980   27.5130   20.3990 N.am  124  ASN124     -0.1974
    155  CA        24.8560   28.7770   20.7750 C.3   124  ASN124      0.1688
    156  C         23.9800   30.0060   20.6280 C.2   124  ASN124      0.2292
    157  O         24.4590   31.1050   20.3750 O.2   124  ASN124     -0.2864
    158  CB        26.1780   29.0170   20.0340 C.3   124  ASN124      0.1181
    159  CG        26.2150   28.4070   18.6630 C.2   124  ASN124      0.2629
    160  OD1       25.2290   28.4270   17.9290 O.2   124  ASN124     -0.2716
    161  ND2       27.3800   27.8750   18.2910 N.am  124  ASN124     -0.0877
    162  N         21.2720   31.6630   22.9670 N.3   126  LEU126     -0.1245
    163  CA        20.6350   31.6850   24.2890 C.3   126  LEU126      0.1561
    164  C         19.4540   32.6510   24.4470 C.2   126  LEU126      0.2260
    165  O         19.4460   33.7530   23.8900 O.2   126  LEU126     -0.2867
    166  CB        21.6770   32.0270   25.3510 C.3   126  LEU126      0.0270
    167  CG        22.9620   31.2080   25.3570 C.3   126  LEU126      0.0019
    168  CD1       23.9010   31.7700   26.4260 C.3   126  LEU126      0.0001
    169  CD2       22.6410   29.7520   25.6180 C.3   126  LEU126      0.0001
    170  N         25.9950   33.2850   21.1550 N.3   136  ALA136     -0.1231
    171  CA        27.0680   32.8430   22.0330 C.3   136  ALA136      0.1694
    172  C         28.2060   32.1930   21.2550 C.2   136  ALA136      0.2592
    173  O         27.9710   31.4850   20.2700 O.2   136  ALA136     -0.2718
    174  CB        26.5180   31.8720   23.0490 C.3   136  ALA136      0.0304
    175  N         29.4350   32.4270   21.7160 N.am  137  ASP137     -0.1974
    176  CA        30.6540   31.8920   21.1010 C.3   137  ASP137      0.1709
    177  C         31.1630   32.6440   19.8820 C.2   137  ASP137      0.2293
    178  O         31.9480   32.1130   19.0980 O.2   137  ASP137     -0.2864
    179  CB        30.4820   30.4180   20.7340 C.3   137  ASP137      0.1436
    180  CG        30.4820   29.5310   21.9420 C.2   137  ASP137      0.3671
    181  OD1       30.6720   30.0640   23.0520 O.co2 137  ASP137     -0.2456
    182  OD2       30.2970   28.3050   21.7780 O.co2 137  ASP137     -0.2456
@<TRIPOS>BOND
     1   136   137    1
     2   137   140    1
     3   137   138    1
     4   140   141    1
     5   144   143    1
     6   138   139    2
     7   141   142    1
     8   142   143    1
     9   160   159    2
    10   161   159   am
    11   152   151    2
    12   159   158    1
    13   178   177    2
    14    32    30    1
    15   151   153   am
    16   151   150    1
    17   145   146    1
    18   177   176    1
    19   158   155    1
    20   173   172    2
    21    30    31    1
    22    30    27    1
    23   157   156    2
    24   154   155    1
    25   154   147   am
    26   156   155    1
    27   179   176    1
    28   179   180    1
    29   150   149    1
    30   146   149    1
    31   146   147    1
    32   176   175    1
    33   170   171    1
    34   172   175   am
    35   172   171    1
    36    27    28    1
    37    27    26    1
    38   147   148    2
    39    29    28    2
    40   182   180   ar
    41   180   181   ar
    42   171   174    1
    43    26    24   am
    44   162   163    1
    45   127   128    1
    46    24    25    2
    47    24    23    1
    48    54    55    1
    49   121   122    2
    50   121   120    1
    51   165   164    2
    52   129   128    1
    53   129   130    2
    54   123   124    1
    55   123   120    1
    56   126   124   ar
    57   128   131    1
    58   163   164    1
    59   163   166    1
    60   124   125   ar
    61   120   119    1
    62    60    58    1
    63    23    22    1
    64    57    56    2
    65    55    58    1
    66    55    56    1
    67    58    59    1
    68    52    53    1
    69    52    51    1
    70   166   167    1
    71   167   169    1
    72   167   168    1
    73    22    15   am
    74   131   132    1
    75    71    69   ar
    76    71    70   ar
    77    69    67   ar
    78   119   112   am
    79    16    15    2
    80   113   112    2
    81    51    50    1
    82    15    14    1
    83   112   111    1
    84    17    18    1
    85    17    14    1
    86   132   133    1
    87    70    68   ar
    88    18    19    1
    89    67    66   ar
    90    99    97    1
    91   117   116    2
    92   115   116    1
    93   115   114    1
    94    14    13    1
    95    50    49    1
    96   116   118   am
    97    80    78   ar
    98    68    66   ar
    99    13    11   am
   100    66    65    1
   101   111   114    1
   102   111   110    1
   103   133   134    1
   104    39    37    1
   105    19    20   ar
   106    19    21   ar
   107    97    98    1
   108    97    96    1
   109    11    12    2
   110    11    10    1
   111    78    77    1
   112    78    79   ar
   113    49    46    1
   114    96    93    1
   115   110   102   am
   116    65    62    1
   117    77    76    1
   118    10     9    1
   119   134   135    1
   120    37    38    1
   121    37    34    1
   122    48    47    2
   123    75    74    2
   124    46    47    1
   125    46    45    1
   126    62    61    1
   127    62    63    1
   128    33    34    1
   129   102   103    2
   130   102   101    1
   131    93    94    1
   132    93    92    1
   133    72    63   am
   134    72    73    1
   135    76    73    1
   136     9     3   am
   137     4     3    2
   138    95    94    2
   139    34    35    1
   140    94   100   am
   141    92    83   am
   142   100   101    1
   143    63    64    2
   144    74    73    1
   145    74    81   am
   146     3     2    1
   147    44    41    1
   148   101   104    1
   149     7     5    1
   150    83    82    1
   151    83    84    2
   152    43    42    2
   153    35    36    2
   154    81    82    1
   155    82    85    1
   156   104   105    1
   157     5     2    1
   158     5     6    1
   159     2     1    1
   160    42    41    1
   161    41    40    1
   162    85    86    1
   163    87    86   ar
   164    87    89   ar
   165   105   106   ar
   166   105   107   ar
   167   106   108   ar
   168     6     8    1
   169    86    88   ar
   170    89    91   ar
   171    88    90   ar
   172    91    90   ar
   173   107   109   ar
   174   108   109   ar
