@<TRIPOS>MOLECULE
tmp/3s2uA00.pdb
 215 205 0 0 0
SMALL
GASTEIGER

@<TRIPOS>ATOM
      1  N         13.4890  -10.4170  -18.0450 N.3    10  THR10      -0.1203
      2  CA        13.9230  -11.6070  -18.7820 C.3    10  THR10       0.1994
      3  C         12.7360  -12.2540  -19.5330 C.2    10  THR10       0.2618
      4  O         11.6050  -11.7750  -19.4260 O.2    10  THR10      -0.2717
      5  CB        14.6100  -12.5780  -17.8110 C.3    10  THR10       0.1784
      6  OG1       13.7410  -12.8090  -16.7000 O.3    10  THR10      -0.2211
      7  CG2       15.9600  -12.0640  -17.3220 C.3    10  THR10       0.0376
      8  N         13.0160  -13.3150  -20.2920 N.am   11  GLY11      -0.1942
      9  CA        12.0220  -14.0730  -21.0460 C.3    11  GLY11       0.2014
     10  C         10.9690  -14.7770  -20.2000 C.2    11  GLY11       0.2639
     11  O          9.8360  -14.9450  -20.6540 O.2    11  GLY11      -0.2714
     12  N         11.3370  -15.1830  -18.9760 N.am   12  GLY12      -0.1939
     13  CA        10.4550  -15.8480  -18.0150 C.3    12  GLY12       0.2014
     14  C          9.2150  -15.0770  -17.6150 C.2    12  GLY12       0.2638
     15  O          8.2310  -15.6790  -17.1800 O.2    12  GLY12      -0.2714
     16  N          9.2710  -13.7290  -17.7390 N.am   13  HIS13      -0.1973
     17  CA         8.1770  -12.7900  -17.4590 C.3    13  HIS13       0.1656
     18  C          7.5370  -12.2710  -18.7680 C.2    13  HIS13       0.2291
     19  O          6.3130  -12.1810  -18.8480 O.2    13  HIS13      -0.2864
     20  CB         8.6810  -11.5960  -16.6380 C.3    13  HIS13       0.0771
     21  CG         9.3530  -11.9660  -15.3570 C.ar   13  HIS13       0.0820
     22  ND1        8.6450  -12.4960  -14.2950 N.ar   13  HIS13      -0.2267
     23  CD2       10.6470  -11.8240  -14.9900 C.ar   13  HIS13       0.1154
     24  CE1        9.5220  -12.6500  -13.3230 C.ar   13  HIS13       0.1986
     25  NE2       10.7420  -12.2810  -13.7040 N.ar   13  HIS13      -0.2212
     26  N          7.7320  -13.6440  -22.1230 N.3    15  PHE15      -0.1241
     27  CA         7.0430  -14.6730  -22.9130 C.3    15  PHE15       0.1605
     28  C          5.6510  -15.1480  -22.4380 C.2    15  PHE15       0.2264
     29  O          4.7860  -15.3010  -23.3070 O.2    15  PHE15      -0.2867
     30  CB         7.9530  -15.8340  -23.3480 C.3    15  PHE15       0.0534
     31  CG         9.0400  -15.4530  -24.3240 C.ar   15  PHE15      -0.0203
     32  CD1        8.7410  -15.1790  -25.6540 C.ar   15  PHE15      -0.0042
     33  CD2       10.3650  -15.3750  -23.9170 C.ar   15  PHE15      -0.0042
     34  CE1        9.7510  -14.8330  -26.5600 C.ar   15  PHE15      -0.0003
     35  CE2       11.3720  -15.0150  -24.8200 C.ar   15  PHE15      -0.0003
     36  CZ        11.0620  -14.7660  -26.1400 C.ar   15  PHE15      -0.0000
     37  N          4.9810  -17.3270  -12.0550 N.3   107  GLN107     -0.1231
     38  CA         5.5890  -18.3450  -12.8980 C.3   107  GLN107      0.1698
     39  C          6.3660  -19.4210  -12.0940 C.2   107  GLN107      0.2592
     40  O          6.3280  -20.5970  -12.4520 O.2   107  GLN107     -0.2718
     41  CB         6.5280  -17.6910  -13.9060 C.3   107  GLN107      0.0381
     42  CG         5.8440  -16.7880  -14.9390 C.3   107  GLN107      0.0905
     43  CD         5.6800  -15.3670  -14.4580 C.2   107  GLN107      0.2608
     44  OE1        6.6090  -14.7380  -13.9350 O.2   107  GLN107     -0.2717
     45  NE2        4.4830  -14.8470  -14.5920 N.am  107  GLN107     -0.0878
     46  N          7.0930  -18.9990  -11.0310 N.am  108  ASN108     -0.1974
     47  CA         7.9700  -19.8180  -10.1950 C.3   108  ASN108      0.1688
     48  C          7.2470  -20.6740   -9.1510 C.2   108  ASN108      0.2292
     49  O          6.0450  -20.5120   -8.9440 O.2   108  ASN108     -0.2864
     50  CB         9.0430  -18.9430   -9.5350 C.3   108  ASN108      0.1181
     51  CG         9.8510  -18.1110  -10.5000 C.2   108  ASN108      0.2629
     52  OD1        9.6370  -16.9020  -10.6420 O.2   108  ASN108     -0.2716
     53  ND2       10.8000  -18.7340  -11.1800 N.am  108  ASN108     -0.0877
     54  N          3.4210  -20.5800  -25.3300 N.3   144  ARG144     -0.1245
     55  CA         3.1650  -20.3020  -26.7570 C.3   144  ARG144      0.1563
     56  C          2.6240  -21.5600  -27.4360 C.2   144  ARG144      0.2260
     57  O          3.2440  -22.6240  -27.3320 O.2   144  ARG144     -0.2867
     58  CB         4.4520  -19.8180  -27.4510 C.3   144  ARG144      0.0307
     59  CG         4.8830  -18.4060  -27.0220 C.3   144  ARG144      0.0489
     60  CD         6.2870  -18.0270  -27.4760 C.3   144  ARG144      0.2205
     61  NE         7.3220  -18.6480  -26.6390 N.pl3 144  ARG144     -0.0865
     62  CZ         8.6310  -18.5250  -26.8400 C.cat 144  ARG144      0.5346
     63  NH1        9.0900  -17.8210  -27.8650 N.pl3 144  ARG144      0.1354
     64  NH2        9.4890  -19.1220  -26.0300 N.pl3 144  ARG144      0.1354
     65  N         20.3360  -25.0850  -22.9940 N.3   167  LEU167     -0.1245
     66  CA        19.6920  -23.7760  -22.8120 C.3   167  LEU167      0.1561
     67  C         20.2550  -22.9260  -21.6910 C.2   167  LEU167      0.2260
     68  O         20.4710  -23.4060  -20.5740 O.2   167  LEU167     -0.2867
     69  CB        18.1660  -23.9050  -22.7220 C.3   167  LEU167      0.0270
     70  CG        17.4880  -24.3980  -24.0020 C.3   167  LEU167      0.0019
     71  CD1       16.2360  -25.1740  -23.6850 C.3   167  LEU167      0.0001
     72  CD2       17.1850  -23.2430  -24.9400 C.3   167  LEU167      0.0001
     73  N         19.3640  -19.7160  -19.5720 N.3   169  GLY169     -0.1210
     74  CA        18.2930  -19.4710  -20.5240 C.3   169  GLY169      0.1956
     75  C         18.3300  -18.1340  -21.2340 C.2   169  GLY169      0.2613
     76  O         19.2090  -17.8930  -22.0640 O.2   169  GLY169     -0.2717
     77  N         17.3540  -17.2690  -20.9210 N.am  170  SER170     -0.1938
     78  CA        17.1630  -15.9390  -21.5070 C.3   170  SER170      0.2055
     79  C         18.3870  -15.0190  -21.5980 C.2   170  SER170      0.2642
     80  O         18.4890  -14.2790  -22.5790 O.2   170  SER170     -0.2714
     81  CB        16.0160  -15.2190  -20.8100 C.3   170  SER170      0.2130
     82  OG        15.8170  -13.9010  -21.2870 O.3   170  SER170     -0.2179
     83  N         19.2730  -15.0730  -20.6090 N.am  171  LEU171     -0.1977
     84  CA        20.4880  -14.2700  -20.6200 C.3   171  LEU171      0.1596
     85  C         21.6760  -15.1200  -21.0530 C.2   171  LEU171      0.2287
     86  O         22.6720  -14.6040  -21.5600 O.2   171  LEU171     -0.2864
     87  CB        20.7470  -13.6670  -19.2380 C.3   171  LEU171      0.0297
     88  CG        19.8080  -12.5400  -18.8030 C.3   171  LEU171      0.0022
     89  CD1       20.4510  -11.6950  -17.7140 C.3   171  LEU171      0.0001
     90  CD2       19.4160  -11.6780  -19.9940 C.3   171  LEU171      0.0001
     91  N         22.7250  -22.8360  -26.5510 N.3   198  GLN198     -0.1245
     92  CA        22.2330  -21.4650  -26.4270 C.3   198  GLN198      0.1566
     93  C         23.0090  -20.8430  -25.2620 C.2   198  GLN198      0.2260
     94  O         22.6640  -21.0390  -24.0980 O.2   198  GLN198     -0.2867
     95  CB        20.7040  -21.4090  -26.2040 C.3   198  GLN198      0.0367
     96  CG        20.1070  -19.9860  -26.2270 C.3   198  GLN198      0.0905
     97  CD        19.8970  -19.3930  -24.8540 C.2   198  GLN198      0.2608
     98  OE1       19.2820  -20.0020  -23.9800 O.2   198  GLN198     -0.2717
     99  NE2       20.3450  -18.1590  -24.6450 N.am  198  GLN198     -0.0878
    100  N         21.0960  -16.5490  -28.8370 N.3   223  PHE223     -0.1227
    101  CA        19.6630  -16.5980  -28.5620 C.3   223  PHE223      0.1736
    102  C         18.9610  -17.2180  -29.7610 C.2   223  PHE223      0.2595
    103  O         19.3670  -16.9830  -30.9060 O.2   223  PHE223     -0.2718
    104  CB        19.1540  -15.1590  -28.3560 C.3   223  PHE223      0.0547
    105  CG        17.8280  -15.0250  -27.6500 C.ar  223  PHE223     -0.0202
    106  CD1       17.7540  -15.0690  -26.2620 C.ar  223  PHE223     -0.0042
    107  CD2       16.6610  -14.7910  -28.3690 C.ar  223  PHE223     -0.0042
    108  CE1       16.5360  -14.9230  -25.6120 C.ar  223  PHE223     -0.0003
    109  CE2       15.4410  -14.6360  -27.7160 C.ar  223  PHE223     -0.0003
    110  CZ        15.3860  -14.7060  -26.3460 C.ar  223  PHE223     -0.0000
    111  N         17.9040  -18.0020  -29.4990 N.am  224  ILE224     -0.1966
    112  CA        17.1340  -18.6900  -30.5250 C.3   224  ILE224      0.1727
    113  C         15.6770  -18.1820  -30.5140 C.2   224  ILE224      0.2616
    114  O         14.9620  -18.3850  -29.5320 O.2   224  ILE224     -0.2715
    115  CB        17.2740  -20.2430  -30.3250 C.3   224  ILE224      0.0290
    116  CG1       18.7380  -20.7090  -30.5420 C.3   224  ILE224      0.0022
    117  CG2       16.2930  -21.0510  -31.1980 C.3   224  ILE224      0.0023
    118  CD1       19.2070  -21.7360  -29.6070 C.3   224  ILE224      0.0001
    119  N         15.2500  -17.5040  -31.5970 N.am  225  SER225     -0.1950
    120  CA        13.8730  -17.0110  -31.7180 C.3   225  SER225      0.1924
    121  C         12.9810  -18.1560  -32.1710 C.2   225  SER225      0.2314
    122  O         11.8120  -18.2380  -31.7640 O.2   225  SER225     -0.2863
    123  CB        13.7850  -15.8400  -32.6980 C.3   225  SER225      0.2116
    124  OG        14.0190  -16.2150  -34.0450 O.3   225  SER225     -0.2180
    125  N         12.2030  -21.1620  -31.3920 N.3   227  MET227     -0.1245
    126  CA        12.0860  -22.0850  -30.2530 C.3   227  MET227      0.1570
    127  C         11.2860  -23.3790  -30.5150 C.2   227  MET227      0.2261
    128  O         11.6840  -24.4490  -30.0370 O.2   227  MET227     -0.2867
    129  CB        11.6120  -21.3430  -28.9900 C.3   227  MET227      0.0387
    130  CG        12.7460  -20.6520  -28.2490 C.3   227  MET227      0.0595
    131  SD        13.8160  -21.9050  -27.5230 S.3   227  MET227     -0.1393
    132  CE        15.2660  -21.2000  -27.6150 C.3   227  MET227      0.0692
    133  N         13.0550  -27.0460  -30.0660 N.3   231  TYR231     -0.1241
    134  CA        12.4540  -28.1000  -29.2430 C.3   231  TYR231      0.1605
    135  C         12.1430  -29.3600  -30.0670 C.2   231  TYR231      0.2264
    136  O         12.3200  -30.4690  -29.5530 O.2   231  TYR231     -0.2867
    137  CB        11.1950  -27.5820  -28.5090 C.3   231  TYR231      0.0534
    138  CG        11.4570  -26.6240  -27.3550 C.ar  231  TYR231     -0.0201
    139  CD1       12.5830  -26.7650  -26.5430 C.ar  231  TYR231     -0.0009
    140  CD2       10.5200  -25.6570  -26.9990 C.ar  231  TYR231     -0.0009
    141  CE1       12.7920  -25.9400  -25.4400 C.ar  231  TYR231      0.0417
    142  CE2       10.7240  -24.8180  -25.9020 C.ar  231  TYR231      0.0417
    143  CZ        11.8640  -24.9630  -25.1260 C.ar  231  TYR231      0.1957
    144  OH        12.0860  -24.1470  -24.0380 O.3   231  TYR231     -0.2866
    145  N         19.0150  -24.7200  -17.3710 N.3   240  ARG240     -0.1245
    146  CA        18.8420  -23.9220  -16.1780 C.3   240  ARG240      0.1563
    147  C         17.3650  -24.1500  -15.8020 C.2   240  ARG240      0.2260
    148  O         16.5440  -24.4130  -16.6940 O.2   240  ARG240     -0.2867
    149  CB        19.1130  -22.4430  -16.5030 C.3   240  ARG240      0.0307
    150  CG        20.5250  -21.9770  -16.1160 C.3   240  ARG240      0.0489
    151  CD        20.6890  -21.7510  -14.6130 C.3   240  ARG240      0.2205
    152  NE        21.9640  -21.1140  -14.2700 N.pl3 240  ARG240     -0.0865
    153  CZ        22.9940  -21.7300  -13.6900 C.cat 240  ARG240      0.5346
    154  NH1       22.9220  -23.0250  -13.3890 N.pl3 240  ARG240      0.1354
    155  NH2       24.0960  -21.0500  -13.3850 N.pl3 240  ARG240      0.1354
    156  N         14.7860  -22.2740  -14.8080 N.3   242  GLY242     -0.1210
    157  CA        13.9430  -21.0860  -14.7900 C.3   242  GLY242      0.1956
    158  C         12.5150  -21.5090  -15.0660 C.2   242  GLY242      0.2612
    159  O         12.2960  -22.4540  -15.8280 O.2   242  GLY242     -0.2717
    160  N         11.5410  -20.8360  -14.4400 N.am  243  ALA243     -0.1965
    161  CA        10.1010  -21.1430  -14.5290 C.3   243  ALA243      0.1728
    162  C          9.5360  -21.5520  -15.9010 C.2   243  ALA243      0.2616
    163  O          8.8160  -22.5400  -15.9870 O.2   243  ALA243     -0.2715
    164  CB         9.2950  -19.9950  -13.9640 C.3   243  ALA243      0.0334
    165  N          9.8350  -20.7750  -16.9470 N.am  244  LEU244     -0.1963
    166  CA         9.3290  -21.0230  -18.2940 C.3   244  LEU244      0.1728
    167  C          9.9900  -22.1490  -19.0250 C.2   244  LEU244      0.2616
    168  O          9.2730  -22.8630  -19.7170 O.2   244  LEU244     -0.2715
    169  CB         9.3110  -19.7580  -19.1620 C.3   244  LEU244      0.0311
    170  CG         8.0790  -18.8820  -19.1060 C.3   244  LEU244      0.0022
    171  CD1        8.1850  -17.8640  -20.1680 C.3   244  LEU244      0.0001
    172  CD2        6.8110  -19.6670  -19.4180 C.3   244  LEU244      0.0001
    173  N         11.3360  -22.3280  -18.8930 N.am  245  THR245     -0.1951
    174  CA        12.0520  -23.4510  -19.5370 C.3   245  THR245      0.1897
    175  C         11.4660  -24.7590  -19.0220 C.2   245  THR245      0.2313
    176  O         11.2760  -25.6780  -19.8040 O.2   245  THR245     -0.2863
    177  CB        13.5580  -23.4520  -19.2490 C.3   245  THR245      0.1794
    178  OG1       13.7850  -23.1900  -17.8620 O.3   245  THR245     -0.2208
    179  CG2       14.3360  -22.4950  -20.1280 C.3   245  THR245      0.0378
    180  N          7.9220  -25.1410  -20.5160 N.3   248  GLU248     -0.1245
    181  CA         8.0350  -25.3340  -21.9520 C.3   248  GLU248      0.1567
    182  C          8.4660  -26.7490  -22.2810 C.2   248  GLU248      0.2260
    183  O          8.0050  -27.2990  -23.2850 O.2   248  GLU248     -0.2867
    184  CB         8.9890  -24.3170  -22.5580 C.3   248  GLU248      0.0388
    185  CG         8.3000  -22.9860  -22.8280 C.3   248  GLU248      0.1160
    186  CD         9.1930  -21.8860  -23.3560 C.2   248  GLU248      0.3649
    187  OE1       10.3860  -22.1610  -23.6110 O.co2 248  GLU248     -0.2457
    188  OE2        8.6860  -20.7610  -23.5700 O.co2 248  GLU248     -0.2457
    189  N         14.4630  -20.7180   -5.7560 N.3   263  HIS263     -0.1226
    190  CA        13.3310  -20.7280   -6.6720 C.3   263  HIS263      0.1752
    191  C         13.4920  -21.7570   -7.7840 C.2   263  HIS263      0.2595
    192  O         12.5420  -22.4860   -8.0630 O.2   263  HIS263     -0.2718
    193  CB        13.1490  -19.3280   -7.2920 C.3   263  HIS263      0.0759
    194  CG        12.5530  -18.3070   -6.3700 C.ar  263  HIS263      0.0818
    195  ND1       13.2570  -17.8100   -5.2830 N.ar  263  HIS263     -0.2268
    196  CD2       11.3550  -17.6820   -6.4370 C.ar  263  HIS263      0.1154
    197  CE1       12.4510  -16.9310   -4.7130 C.ar  263  HIS263      0.1986
    198  NE2       11.2920  -16.8270   -5.3670 N.ar  263  HIS263     -0.2212
    199  N         14.6880  -21.8040   -8.4220 N.am  264  GLN264     -0.1979
    200  CA        14.9930  -22.7180   -9.5300 C.3   264  GLN264      0.1601
    201  C         15.0470  -24.1940   -9.1080 C.2   264  GLN264      0.2287
    202  O         14.5280  -25.0550   -9.8210 O.2   264  GLN264     -0.2864
    203  CB        16.2710  -22.2950  -10.2620 C.3   264  GLN264      0.0394
    204  CG        16.0910  -21.0840  -11.1810 C.3   264  GLN264      0.0908
    205  CD        17.0240  -21.0450  -12.3790 C.2   264  GLN264      0.2608
    206  OE1       16.8910  -20.1950  -13.2650 O.2   264  GLN264     -0.2717
    207  NE2       17.9690  -21.9710  -12.4650 N.am  264  GLN264     -0.0878
    208  N         11.6260  -25.2840   -8.8410 N.3   267  ASN267     -0.1240
    209  CA        11.0410  -25.3530  -10.1870 C.3   267  ASN267      0.1653
    210  C         11.3770  -26.6960  -10.8280 C.2   267  ASN267      0.2266
    211  O         10.4890  -27.3390  -11.3750 O.2   267  ASN267     -0.2867
    212  CB        11.5560  -24.2230  -11.0940 C.3   267  ASN267      0.1155
    213  CG        10.9780  -22.8650  -10.8370 C.2   267  ASN267      0.2627
    214  OD1       10.0990  -22.6770  -10.0000 O.2   267  ASN267     -0.2716
    215  ND2       11.4600  -21.8880  -11.5740 N.am  267  ASN267     -0.0877
@<TRIPOS>BOND
     1   124   123    1
     2   123   120    1
     3   121   122    2
     4   121   120    1
     5   120   119    1
     6   119   113   am
     7   125   126    1
     8   117   115    1
     9   103   102    2
    10   116   115    1
    11   116   118    1
    12   112   113    1
    13   112   115    1
    14   112   111    1
    15   127   126    1
    16   127   128    2
    17   113   114    2
    18   126   129    1
    19   135   136    2
    20   135   134    1
    21   133   134    1
    22   102   111   am
    23   102   101    1
    24   134   137    1
    25   129   130    1
    26   100   101    1
    27   101   104    1
    28   137   138    1
    29   107   109   ar
    30   107   105   ar
    31   104   105    1
    32   130   131    1
    33    63    62    1
    34   109   110   ar
    35   105   106   ar
    36   132   131    1
    37    60    59    1
    38    60    61    1
    39    58    59    1
    40    58    55    1
    41    56    57    2
    42    56    55    1
    43   138   140   ar
    44   138   139   ar
    45   140   142   ar
    46    62    61    2
    47    62    64    1
    48    55    54    1
    49    34    36   ar
    50    34    32   ar
    51    91    92    1
    52   139   141   ar
    53    92    95    1
    54    92    93    1
    55   110   108   ar
    56   106   108   ar
    57    96    95    1
    58    96    97    1
    59    36    35   ar
    60   142   143   ar
    61    32    31   ar
    62   141   143   ar
    63    93    94    2
    64   143   144    1
    65    72    70    1
    66    97    99   am
    67    97    98    2
    68    35    33   ar
    69    31    33   ar
    70    31    30    1
    71    70    71    1
    72    70    69    1
    73   187   186   ar
    74   188   186   ar
    75   186   185    1
    76    30    27    1
    77    29    28    2
    78   183   182    2
    79    65    66    1
    80    27    28    1
    81    27    26    1
    82   185   184    1
    83    66    69    1
    84    66    67    1
    85    80    79    2
    86   184   181    1
    87   182   181    1
    88    76    75    2
    89   181   180    1
    90    67    68    2
    91    79    78    1
    92    79    83   am
    93    86    85    2
    94    78    77    1
    95    78    81    1
    96    82    81    1
    97    75    77   am
    98    75    74    1
    99    85    84    1
   100     9     8    1
   101     9    10    1
   102    11    10    2
   103    84    83    1
   104    84    87    1
   105    74    73    1
   106     8     3   am
   107    10    12   am
   108   171   170    1
   109   179   177    1
   110    90    88    1
   111   176   175    2
   112   168   167    2
   113   174   177    1
   114   174   175    1
   115   174   173    1
   116     3     4    2
   117     3     2    1
   118   172   170    1
   119   177   178    1
   120    87    88    1
   121   169   170    1
   122   169   166    1
   123   167   173   am
   124   167   166    1
   125    12    13    1
   126    19    18    2
   127    88    89    1
   128     2     1    1
   129     2     5    1
   130    18    17    1
   131   166   165    1
   132    13    14    1
   133     5     7    1
   134     5     6    1
   135    16    14   am
   136    16    17    1
   137    14    15    2
   138    17    20    1
   139   145   146    1
   140   165   162   am
   141   148   147    2
   142    20    21    1
   143   149   146    1
   144   149   150    1
   145   146   147    1
   146   150   151    1
   147   163   162    2
   148   162   161    1
   149   159   158    2
   150    21    23   ar
   151    21    22   ar
   152   158   157    1
   153   158   160   am
   154    23    25   ar
   155    42    43    1
   156    42    41    1
   157   156   157    1
   158   151   152    1
   159    45    43   am
   160   161   160    1
   161   161   164    1
   162    43    44    2
   163    22    24   ar
   164   152   153    2
   165    41    38    1
   166    25    24   ar
   167   153   154    1
   168   153   155    1
   169   206   205    2
   170    38    39    1
   171    38    37    1
   172   207   205   am
   173    40    39    2
   174   205   204    1
   175    39    46   am
   176   215   213   am
   177   211   210    2
   178   204   203    1
   179    53    51   am
   180   212   213    1
   181   212   209    1
   182    46    47    1
   183   213   214    2
   184   210   209    1
   185    52    51    2
   186    51    50    1
   187   203   200    1
   188    47    50    1
   189    47    48    1
   190   209   208    1
   191   202   201    2
   192   200   201    1
   193   200   199    1
   194    48    49    2
   195   199   191   am
   196   192   191    2
   197   191   190    1
   198   193   190    1
   199   193   194    1
   200   190   189    1
   201   196   194   ar
   202   196   198   ar
   203   194   195   ar
   204   198   197   ar
   205   195   197   ar
