@<TRIPOS>MOLECULE
tmp/3s2vA00.pdb
 180 172 0 0 0
SMALL
GASTEIGER

@<TRIPOS>ATOM
      1  N         39.1440   62.2220   -2.8410 N.3    10  GLU10      -0.1231
      2  CA        39.9690   61.0340   -2.6710 C.3    10  GLU10       0.1699
      3  C         39.5400   59.8440   -3.5370 C.2    10  GLU10       0.2592
      4  O         38.4430   59.2800   -3.3600 O.2    10  GLU10      -0.2718
      5  CB        39.9660   60.6380   -1.1890 C.3    10  GLU10       0.0402
      6  CG        40.8510   59.4380   -0.8410 C.3    10  GLU10       0.1161
      7  CD        42.2840   59.8380   -0.5130 C.2    10  GLU10       0.3649
      8  OE1       42.4680   60.6130    0.4530 O.co2  10  GLU10      -0.2457
      9  OE2       43.2200   59.3810   -1.2180 O.co2  10  GLU10      -0.2457
     10  N         40.4130   59.4460   -4.4590 N.am   11  GLU11      -0.1979
     11  CA        40.1630   58.2740   -5.3000 C.3    11  GLU11       0.1602
     12  C         40.1170   56.9660   -4.5060 C.2    11  GLU11       0.2287
     13  O         41.0480   56.6520   -3.7700 O.2    11  GLU11      -0.2864
     14  CB        41.2570   58.1500   -6.3470 C.3    11  GLU11       0.0415
     15  CG        41.3940   59.3350   -7.2680 C.3    11  GLU11       0.1163
     16  CD        41.8680   58.9130   -8.6470 C.2    11  GLU11       0.3649
     17  OE1       41.4450   59.5420   -9.6450 O.co2  11  GLU11      -0.2457
     18  OE2       42.6540   57.9390   -8.7320 O.co2  11  GLU11      -0.2457
     19  N         36.8910   57.3390   -3.5510 N.3    13  TYR13      -0.1241
     20  CA        35.7790   57.6750   -2.6800 C.3    13  TYR13       0.1605
     21  C         35.0400   58.8910   -3.2010 C.2    13  TYR13       0.2264
     22  O         33.8320   58.8570   -3.3720 O.2    13  TYR13      -0.2867
     23  CB        36.2750   57.9240   -1.2560 C.3    13  TYR13       0.0534
     24  CG        37.1520   56.8080   -0.7530 C.ar   13  TYR13      -0.0201
     25  CD1       38.5050   56.7590   -1.0860 C.ar   13  TYR13      -0.0009
     26  CD2       36.6280   55.7870    0.0370 C.ar   13  TYR13      -0.0009
     27  CE1       39.3040   55.7420   -0.6410 C.ar   13  TYR13       0.0417
     28  CE2       37.4300   54.7620    0.4920 C.ar   13  TYR13       0.0417
     29  CZ        38.7710   54.7410    0.1490 C.ar   13  TYR13       0.1957
     30  OH        39.5830   53.7190    0.6030 O.3    13  TYR13      -0.2866
     31  N         41.8600   65.4890    6.7140 N.3    58  TYR58      -0.1241
     32  CA        40.9980   64.4960    7.3560 C.3    58  TYR58       0.1605
     33  C         40.5980   64.9240    8.7610 C.2    58  TYR58       0.2264
     34  O         39.4140   64.9400    9.1120 O.2    58  TYR58      -0.2867
     35  CB        41.6880   63.1260    7.3840 C.3    58  TYR58       0.0534
     36  CG        41.5600   62.4260    6.0640 C.ar   58  TYR58      -0.0201
     37  CD1       40.4910   61.5830    5.8180 C.ar   58  TYR58      -0.0009
     38  CD2       42.4720   62.6530    5.0390 C.ar   58  TYR58      -0.0009
     39  CE1       40.3370   60.9610    4.5990 C.ar   58  TYR58       0.0417
     40  CE2       42.3320   62.0230    3.8050 C.ar   58  TYR58       0.0417
     41  CZ        41.2500   61.1770    3.5930 C.ar   58  TYR58       0.1957
     42  OH        41.0750   60.5310    2.3810 O.3    58  TYR58      -0.2866
     43  N         36.5510   58.2780    3.8250 N.3    85  PRO85      -0.2102
     44  CA        37.3590   57.2210    4.4520 C.3    85  PRO85       0.1504
     45  C         38.0910   57.7300    5.7160 C.2    85  PRO85       0.2576
     46  O         39.3150   57.8490    5.7880 O.2    85  PRO85      -0.2718
     47  CB        38.3280   56.8080    3.3330 C.3    85  PRO85       0.0282
     48  CG        38.5220   58.0550    2.5270 C.3    85  PRO85       0.0208
     49  CD        37.2380   58.8830    2.6650 C.3    85  PRO85       0.0893
     50  N         37.2910   58.0330    6.7280 N.am   86  LEU86      -0.1966
     51  CA        37.7900   58.5310    7.9950 C.3    86  LEU86       0.1728
     52  C         38.0090   57.3780    8.9660 C.2    86  LEU86       0.2616
     53  O         37.0660   56.7060    9.3820 O.2    86  LEU86      -0.2715
     54  CB        36.7790   59.5060    8.5740 C.3    86  LEU86       0.0311
     55  CG        37.2200   60.4370    9.6920 C.3    86  LEU86       0.0022
     56  CD1       38.3970   61.2820    9.2490 C.3    86  LEU86       0.0001
     57  CD2       36.0260   61.3130   10.0790 C.3    86  LEU86       0.0001
     58  N         39.2610   57.1470    9.3180 N.am   87  THR87      -0.1951
     59  CA        39.6020   56.0660   10.2130 C.3    87  THR87       0.1897
     60  C         39.1010   56.3250   11.6220 C.2    87  THR87       0.2313
     61  O         39.3790   57.3680   12.2260 O.2    87  THR87      -0.2863
     62  CB        41.1160   55.8460   10.2760 C.3    87  THR87       0.1794
     63  OG1       41.5830   55.4150    9.0020 O.3    87  THR87      -0.2208
     64  CG2       41.4530   54.7860   11.3200 C.3    87  THR87       0.0378
     65  N         40.1070   60.5120   17.9810 N.3    92  ARG92      -0.1245
     66  CA        39.0390   61.1260   17.2080 C.3    92  ARG92       0.1563
     67  C         37.7160   60.8470   17.8810 C.2    92  ARG92       0.2260
     68  O         36.8780   61.7350   18.0080 O.2    92  ARG92      -0.2867
     69  CB        39.0280   60.6250   15.7610 C.3    92  ARG92       0.0307
     70  CG        40.0180   61.3310   14.8610 C.3    92  ARG92       0.0489
     71  CD        39.9550   60.7430   13.4650 C.3    92  ARG92       0.2205
     72  NE        40.9250   61.3530   12.5660 N.pl3  92  ARG92      -0.0865
     73  CZ        41.3140   60.8190   11.4160 C.cat  92  ARG92       0.5346
     74  NH1       40.8200   59.6530   11.0300 N.pl3  92  ARG92       0.1354
     75  NH2       42.2050   61.4470   10.6600 N.pl3  92  ARG92       0.1354
     76  N         55.2560   56.1970    4.0510 N.3   134  VAL134     -0.1245
     77  CA        55.2150   57.6410    3.9050 C.3   134  VAL134      0.1561
     78  C         55.6500   58.2650    5.2170 C.2   134  VAL134      0.2260
     79  O         55.1780   57.8780    6.2790 O.2   134  VAL134     -0.2867
     80  CB        53.7920   58.1270    3.6140 C.3   134  VAL134      0.0252
     81  CG1       53.8020   59.6070    3.3350 C.3   134  VAL134      0.0019
     82  CG2       53.1860   57.3480    2.4420 C.3   134  VAL134      0.0019
     83  N         53.1050   59.5540    8.2000 N.3   137  GLY137     -0.1210
     84  CA        51.7880   58.9790    8.0080 C.3   137  GLY137      0.1956
     85  C         51.3940   57.9220    9.0410 C.2   137  GLY137      0.2613
     86  O         52.1960   57.5130    9.8850 O.2   137  GLY137     -0.2717
     87  N         50.1490   57.4600    8.9630 N.am  138  SER138     -0.1938
     88  CA        49.6490   56.5110    9.9500 C.3   138  SER138      0.2055
     89  C         50.4520   55.2160    9.9670 C.2   138  SER138      0.2644
     90  O         50.6420   54.6220   11.0170 O.2   138  SER138     -0.2714
     91  CB        48.1590   56.2420    9.7580 C.3   138  SER138      0.2130
     92  OG        47.8790   55.9280    8.4120 O.3   138  SER138     -0.2179
     93  N         50.9430   54.7940    8.8120 N.am  139  THR139     -0.1936
     94  CA        51.7530   53.5840    8.7440 C.3   139  THR139      0.2028
     95  C         53.0250   53.7670    9.5540 C.2   139  THR139      0.2642
     96  O         53.3240   52.9740   10.4360 O.2   139  THR139     -0.2714
     97  CB        52.0470   53.1740    7.2700 C.3   139  THR139      0.1808
     98  OG1       50.8240   52.7600    6.6610 O.3   139  THR139     -0.2208
     99  CG2       53.0330   52.0270    7.1920 C.3   139  THR139      0.0379
    100  N         53.7590   54.8330    9.2710 N.am  140  MET140     -0.1976
    101  CA        54.9830   55.1300   10.0100 C.3   140  MET140      0.1605
    102  C         54.6940   55.1870   11.5090 C.2   140  MET140      0.2287
    103  O         55.3760   54.5410   12.3050 O.2   140  MET140     -0.2864
    104  CB        55.6010   56.4480    9.5280 C.3   140  MET140      0.0413
    105  CG        56.5480   57.1250   10.5330 C.3   140  MET140      0.0598
    106  SD        57.5820   58.4220    9.8070 S.3   140  MET140     -0.1393
    107  CE        58.2140   59.2230   11.2830 C.3   140  MET140      0.0692
    108  N         55.0350   61.0100    0.1330 N.3   169  ASN169     -0.1225
    109  CA        53.6120   60.7550   -0.0100 C.3   169  ASN169      0.1785
    110  C         53.3730   59.4660   -0.7790 C.2   169  ASN169      0.2597
    111  O         54.2700   58.9340   -1.4390 O.2   169  ASN169     -0.2718
    112  CB        52.9260   61.9270   -0.7240 C.3   169  ASN169      0.1169
    113  CG        53.5160   62.1950   -2.0940 C.2   169  ASN169      0.2627
    114  OD1       53.5130   61.3250   -2.9660 O.2   169  ASN169     -0.2716
    115  ND2       54.0330   63.4010   -2.2900 N.am  169  ASN169     -0.0877
    116  N         52.1510   58.9710   -0.7180 N.am  170  SER170     -0.1952
    117  CA        51.8820   57.6560   -1.2650 C.3   170  SER170      0.1924
    118  C         52.0790   57.5680   -2.7810 C.2   170  SER170      0.2314
    119  O         52.4630   56.5180   -3.2880 O.2   170  SER170     -0.2863
    120  CB        50.5180   57.1300   -0.8110 C.3   170  SER170      0.2116
    121  OG        49.4730   57.9680   -1.2270 O.3   170  SER170     -0.2180
    122  N         54.9460   49.8930    2.7350 N.3   185  LEU185     -0.1231
    123  CA        53.9570   49.5820    3.7390 C.3   185  LEU185      0.1693
    124  C         52.8770   50.6590    3.6600 C.2   185  LEU185      0.2592
    125  O         53.1810   51.8540    3.6260 O.2   185  LEU185     -0.2718
    126  CB        54.6080   49.5640    5.1190 C.3   185  LEU185      0.0284
    127  CG        55.2870   48.2810    5.6190 C.3   185  LEU185      0.0019
    128  CD1       54.2800   47.1750    5.8760 C.3   185  LEU185      0.0001
    129  CD2       56.3370   47.7990    4.6670 C.3   185  LEU185      0.0001
    130  N         51.6180   50.2390    3.5990 N.am  186  MET186     -0.1965
    131  CA        50.5370   51.1990    3.5200 C.3   186  MET186      0.1736
    132  C         49.1290   50.6480    3.7840 C.2   186  MET186      0.2616
    133  O         48.9180   49.4480    3.8320 O.2   186  MET186     -0.2715
    134  CB        50.5430   51.8830    2.1630 C.3   186  MET186      0.0427
    135  CG        49.6720   53.1330    2.1530 C.3   186  MET186      0.0599
    136  SD        49.8680   54.0050    0.6190 S.3   186  MET186     -0.1393
    137  CE        49.6520   52.6150   -0.5320 C.3   186  MET186      0.0692
    138  N         48.1900   51.5770    3.9410 N.am  187  GLU187     -0.1977
    139  CA        46.7660   51.3300    4.1100 C.3   187  GLU187      0.1602
    140  C         46.1970   50.4240    3.0060 C.2   187  GLU187      0.2287
    141  O         46.2620   50.7510    1.8210 O.2   187  GLU187     -0.2864
    142  CB        46.0570   52.6940    4.1460 C.3   187  GLU187      0.0415
    143  CG        44.6390   52.6940    4.6810 C.3   187  GLU187      0.1163
    144  CD        44.3610   53.8670    5.6100 C.2   187  GLU187      0.3649
    145  OE1       45.1170   54.0270    6.5950 O.co2 187  GLU187     -0.2457
    146  OE2       43.3860   54.6230    5.3670 O.co2 187  GLU187     -0.2457
    147  N         43.4660   49.4070    1.6480 N.3   189  THR189     -0.1203
    148  CA        42.4910   49.8440    0.6550 C.3   189  THR189      0.1994
    149  C         43.1550   50.5200   -0.5510 C.2   189  THR189      0.2618
    150  O         42.8120   50.2390   -1.7030 O.2   189  THR189     -0.2717
    151  CB        41.4330   50.7990    1.2760 C.3   189  THR189      0.1784
    152  OG1       42.0830   51.7460    2.1370 O.3   189  THR189     -0.2211
    153  CG2       40.4320   50.0170    2.0690 C.3   189  THR189      0.0376
    154  N         44.0860   51.4270   -0.2750 N.am  190  SER190     -0.1951
    155  CA        44.8350   52.0900   -1.3190 C.3   190  SER190      0.1924
    156  C         45.7070   51.0770   -2.0380 C.2   190  SER190      0.2314
    157  O         45.8560   51.1450   -3.2610 O.2   190  SER190     -0.2863
    158  CB        45.6880   53.2040   -0.7340 C.3   190  SER190      0.2116
    159  OG        44.8900   54.0560    0.0550 O.3   190  SER190     -0.2180
    160  N         41.6700   48.1890   11.3790 N.3   211  LYS211     -0.1245
    161  CA        40.9790   49.4360   11.6270 C.3   211  LYS211      0.1561
    162  C         39.8890   49.5690   10.5920 C.2   211  LYS211      0.2260
    163  O         39.7960   48.7510    9.6700 O.2   211  LYS211     -0.2867
    164  CB        41.9490   50.6210   11.5310 C.3   211  LYS211      0.0271
    165  CG        42.6500   50.7810   10.1830 C.3   211  LYS211      0.0035
    166  CD        43.9660   51.5400   10.3730 C.3   211  LYS211      0.0206
    167  CE        44.7870   51.6410    9.1000 C.3   211  LYS211      0.1093
    168  NZ        46.1180   52.2010    9.4380 N.3   211  LYS211     -0.1314
    169  N         36.8820   52.4730    8.5180 N.3   213  TYR213     -0.1241
    170  CA        36.3630   53.7850    8.2170 C.3   213  TYR213      0.1605
    171  C         34.9350   53.8640    8.6810 C.2   213  TYR213      0.2264
    172  O         34.1270   52.9820    8.3600 O.2   213  TYR213     -0.2867
    173  CB        36.3300   53.9970    6.7120 C.3   213  TYR213      0.0534
    174  CG        37.6460   53.8900    6.0160 C.ar  213  TYR213     -0.0201
    175  CD1       38.8100   54.3400    6.6130 C.ar  213  TYR213     -0.0009
    176  CD2       37.7140   53.3690    4.7320 C.ar  213  TYR213     -0.0009
    177  CE1       40.0180   54.2530    5.9540 C.ar  213  TYR213      0.0417
    178  CE2       38.9080   53.2800    4.0620 C.ar  213  TYR213      0.0417
    179  CZ        40.0510   53.7260    4.6670 C.ar  213  TYR213      0.1957
    180  OH        41.2300   53.6260    3.9880 O.3   213  TYR213     -0.2866
@<TRIPOS>BOND
     1    17    16   ar
     2    18    16   ar
     3    16    15    1
     4    15    14    1
     5    14    11    1
     6    11    12    1
     7    11    10    1
     8    12    13    2
     9    10     3   am
    10    19    20    1
    11     3     4    2
    12     3     2    1
    13    22    21    2
    14   119   118    2
    15   157   156    2
    16    21    20    1
    17   114   113    2
    18     1     2    1
    19   118   117    1
    20    20    23    1
    21     2     5    1
    22   115   113   am
    23   113   112    1
    24   156   155    1
    25   150   149    2
    26   111   110    2
    27   155   158    1
    28   155   154    1
    29   117   120    1
    30   117   116    1
    31    23    24    1
    32   121   120    1
    33     9     7   ar
    34     5     6    1
    35    25    24   ar
    36    25    27   ar
    37     6     7    1
    38   110   116   am
    39   110   109    1
    40    24    26   ar
    41   158   159    1
    42   112   109    1
    43    27    29   ar
    44   149   154   am
    45   149   148    1
    46   137   136    1
    47     7     8   ar
    48   109   108    1
    49    26    28   ar
    50    29    28   ar
    51    29    30    1
    52   136   135    1
    53   148   151    1
    54   148   147    1
    55   151   153    1
    56   151   152    1
    57   141   140    2
    58   135   134    1
    59   134   131    1
    60    42    41    1
    61    82    80    1
    62    48    49    1
    63    48    47    1
    64    49    43    1
    65   122   123    1
    66   140   139    1
    67    47    44    1
    68    81    80    1
    69   131   130    1
    70   131   132    1
    71    41    40   ar
    72    41    39   ar
    73   130   124   am
    74    80    77    1
    75   125   124    2
    76   124   123    1
    77   123   126    1
    78   132   133    2
    79   132   138   am
    80    40    38   ar
    81    43    44    1
    82    77    76    1
    83    77    78    1
    84   138   139    1
    85   180   179    1
    86   178   179   ar
    87   178   176   ar
    88   139   142    1
    89   142   143    1
    90    44    45    1
    91    39    37   ar
    92   129   127    1
    93   179   177   ar
    94   143   144    1
    95   176   174   ar
    96    38    36   ar
    97   126   127    1
    98    78    79    2
    99   146   144   ar
   100   144   145   ar
   101   127   128    1
   102    45    46    2
   103    45    50   am
   104    37    36   ar
   105   177   175   ar
   106   174   175   ar
   107   174   173    1
   108    36    35    1
   109    98    97    1
   110   173   170    1
   111    31    32    1
   112    50    51    1
   113    99    97    1
   114    97    94    1
   115    32    35    1
   116    32    33    1
   117    51    54    1
   118    51    52    1
   119    84    83    1
   120    84    85    1
   121   170   169    1
   122   170   171    1
   123   172   171    2
   124    92    91    1
   125    54    55    1
   126    94    93    1
   127    94    95    1
   128    33    34    2
   129    93    89   am
   130    87    85   am
   131    87    88    1
   132    52    58   am
   133    52    53    2
   134    63    62    1
   135    85    86    2
   136   167   168    1
   137   167   166    1
   138    56    55    1
   139   100    95   am
   140   100   101    1
   141    58    59    1
   142   104   101    1
   143   104   105    1
   144    95    96    2
   145   163   162    2
   146    55    57    1
   147    91    88    1
   148   106   105    1
   149   106   107    1
   150    88    89    1
   151    89    90    2
   152   101   102    1
   153   165   166    1
   154   165   164    1
   155    59    62    1
   156    59    60    1
   157    62    64    1
   158   162   161    1
   159    75    73    1
   160    74    73    1
   161   160   161    1
   162    73    72    2
   163   102   103    2
   164   164   161    1
   165    60    61    2
   166    72    71    1
   167    71    70    1
   168    70    69    1
   169    69    66    1
   170    66    67    1
   171    66    65    1
   172    67    68    2
