@<TRIPOS>MOLECULE
tmp/3s2zA00.pdb
 119 114 0 0 0
SMALL
GASTEIGER

@<TRIPOS>ATOM
      1  N         22.3940   -2.0500   36.1800 N.3    39  GLY39      -0.1210
      2  CA        21.5800   -0.8560   36.4690 C.3    39  GLY39       0.1956
      3  C         22.3490    0.4040   36.8830 C.2    39  GLY39       0.2611
      4  O         23.5860    0.4790   36.8300 O.2    39  GLY39      -0.2717
      5  N         21.5830    1.4270   37.2340 N.am   40  PHE40      -0.1976
      6  CA        22.0560    2.8030   37.5950 C.3    40  PHE40       0.1639
      7  C         23.0410    2.7260   38.7900 C.2    40  PHE40       0.2290
      8  O         22.6860    2.2160   39.8730 O.2    40  PHE40      -0.2864
      9  CB        20.7610    3.5380   37.9610 C.3    40  PHE40       0.0560
     10  CG        20.8740    5.0050   38.2380 C.ar   40  PHE40      -0.0200
     11  CD1       21.5160    5.8790   37.3700 C.ar   40  PHE40      -0.0042
     12  CD2       20.2090    5.5300   39.3180 C.ar   40  PHE40      -0.0042
     13  CE1       21.5380    7.2790   37.6240 C.ar   40  PHE40      -0.0003
     14  CE2       20.2120    6.9340   39.5760 C.ar   40  PHE40      -0.0003
     15  CZ        20.8900    7.7990   38.7410 C.ar   40  PHE40      -0.0000
     16  N         18.7660   -5.6290   34.2730 N.3   111  HIS111     -0.1226
     17  CA        18.3120   -5.2920   35.6120 C.3   111  HIS111      0.1752
     18  C         18.1080   -3.7950   35.7360 C.2   111  HIS111      0.2596
     19  O         19.0400   -3.0120   35.5370 O.2   111  HIS111     -0.2718
     20  CB        19.2990   -5.7900   36.6800 C.3   111  HIS111      0.0759
     21  CG        18.9840   -5.3390   38.0900 C.ar  111  HIS111      0.0818
     22  ND1       17.8900   -5.7980   38.8130 N.ar  111  HIS111     -0.2268
     23  CD2       19.6330   -4.4850   38.9080 C.ar  111  HIS111      0.1154
     24  CE1       17.8970   -5.2610   40.0170 C.ar  111  HIS111      0.1986
     25  NE2       18.9650   -4.4940   40.1180 N.ar  111  HIS111     -0.2212
     26  N         16.8840   -3.4210   36.1430 N.am  112  ALA112     -0.1966
     27  CA        16.5740   -2.0640   36.5720 C.3   112  ALA112      0.1728
     28  C         16.7990   -1.0750   35.4260 C.2   112  ALA112      0.2616
     29  O         16.1830   -1.2470   34.4170 O.2   112  ALA112     -0.2715
     30  CB        17.3790   -1.7080   37.8520 C.3   112  ALA112      0.0334
     31  N         17.6670   -0.0710   35.5500 N.am  113  GLN113     -0.1977
     32  CA        17.8190    0.8620   34.4240 C.3   113  GLN113      0.1601
     33  C         18.3310    0.0340   33.2310 C.2   113  GLN113      0.2287
     34  O         18.1010    0.3570   32.0730 O.2   113  GLN113     -0.2864
     35  CB        18.8140    1.9660   34.7500 C.3   113  GLN113      0.0394
     36  CG        19.0040    3.0050   33.5680 C.3   113  GLN113      0.0908
     37  CD        19.7030    4.2480   34.0860 C.2   113  GLN113      0.2608
     38  OE1       19.1510    4.9570   34.9160 O.2   113  GLN113     -0.2717
     39  NE2       20.9640    4.4690   33.6730 N.am  113  GLN113     -0.0878
     40  N         13.4940   -0.3650   35.3160 N.3   138  ALA138     -0.1245
     41  CA        13.2150    0.8930   36.0490 C.3   138  ALA138      0.1562
     42  C         12.4950    1.9070   35.1520 C.2   138  ALA138      0.2260
     43  O         12.9960    3.0500   34.9750 O.2   138  ALA138     -0.2867
     44  CB        14.5280    1.4940   36.5550 C.3   138  ALA138      0.0290
     45  N         10.0680    3.4810   35.7290 N.3   140  THR140     -0.1203
     46  CA         9.5870    4.5500   36.6050 C.3   140  THR140      0.1994
     47  C         10.5700    5.7150   36.6390 C.2   140  THR140      0.2617
     48  O         10.2930    6.7920   37.1700 O.2   140  THR140     -0.2717
     49  CB         9.3690    4.0310   38.0210 C.3   140  THR140      0.1784
     50  OG1       10.5060    3.2240   38.3640 O.3   140  THR140     -0.2211
     51  CG2        8.1510    3.1680   38.0660 C.3   140  THR140      0.0376
     52  N         11.7410    5.5280   36.0540 N.am  141  LEU141     -0.1979
     53  CA        12.6790    6.6390   36.0530 C.3   141  LEU141      0.1596
     54  C         12.0950    7.8570   35.3080 C.2   141  LEU141      0.2287
     55  O         12.4350    9.0040   35.6190 O.2   141  LEU141     -0.2864
     56  CB        14.0890    6.2250   35.5220 C.3   141  LEU141      0.0297
     57  CG        14.2900    5.7640   34.0660 C.3   141  LEU141      0.0022
     58  CD1       14.4260    6.9910   33.1230 C.3   141  LEU141      0.0001
     59  CD2       15.5350    4.9490   34.0060 C.3   141  LEU141      0.0001
     60  N          9.5140    9.5280   37.6080 N.3   144  ASP144     -0.1239
     61  CA        10.2520   10.1370   38.7540 C.3   144  ASP144      0.1674
     62  C         10.8380   11.4950   38.3190 C.2   144  ASP144      0.2266
     63  O         10.7880   12.4780   39.0610 O.2   144  ASP144     -0.2867
     64  CB        11.4300    9.2700   39.1790 C.3   144  ASP144      0.1410
     65  CG        11.0210    8.0350   39.9080 C.2   144  ASP144      0.3668
     66  OD1        9.8410    7.8770   40.2870 O.co2 144  ASP144     -0.2456
     67  OD2       11.9300    7.2450   40.1500 O.co2 144  ASP144     -0.2456
     68  N         14.0710   11.9190   42.1460 N.3   150  THR150     -0.1203
     69  CA        14.8060   10.7310   41.7350 C.3   150  THR150      0.1994
     70  C         15.5000   10.1230   42.9540 C.2   150  THR150      0.2617
     71  O         16.3960   10.7410   43.5150 O.2   150  THR150     -0.2717
     72  CB        15.8580   11.1270   40.6640 C.3   150  THR150      0.1784
     73  OG1       15.1660   11.6500   39.5070 O.3   150  THR150     -0.2211
     74  CG2       16.6890    9.8660   40.2690 C.3   150  THR150      0.0376
     75  N         15.0130    8.9680   43.4350 N.am  151  GLN151     -0.1979
     76  CA        15.6360    8.2590   44.5470 C.3   151  GLN151      0.1601
     77  C         15.7510    9.1730   45.7520 C.2   151  GLN151      0.2287
     78  O         16.7310    9.1520   46.5370 O.2   151  GLN151     -0.2864
     79  CB        16.9370    7.5760   44.1590 C.3   151  GLN151      0.0394
     80  CG        16.7150    6.5450   43.0060 C.3   151  GLN151      0.0908
     81  CD        17.8880    5.5970   42.7320 C.2   151  GLN151      0.2608
     82  OE1       17.7810    4.6970   41.8800 O.2   151  GLN151     -0.2717
     83  NE2       18.9840    5.7580   43.4630 N.am  151  GLN151     -0.0878
     84  N         20.8250   13.8500   31.8160 N.3   175  TYR175     -0.1241
     85  CA        20.1840   12.5850   32.2200 C.3   175  TYR175      0.1605
     86  C         18.6730   12.8130   32.5340 C.2   175  TYR175      0.2264
     87  O         17.7990   12.0920   32.0430 O.2   175  TYR175     -0.2867
     88  CB        20.9300   11.9840   33.4440 C.3   175  TYR175      0.0534
     89  CG        20.2380   10.7360   34.0400 C.ar  175  TYR175     -0.0201
     90  CD1       20.7410    9.4320   33.7690 C.ar  175  TYR175     -0.0009
     91  CD2       19.0580   10.8370   34.7870 C.ar  175  TYR175     -0.0009
     92  CE1       20.1200    8.2950   34.2390 C.ar  175  TYR175      0.0417
     93  CE2       18.4430    9.7020   35.2880 C.ar  175  TYR175      0.0417
     94  CZ        18.9550    8.4360   35.0130 C.ar  175  TYR175      0.1957
     95  OH        18.3360    7.2820   35.5020 O.3   175  TYR175     -0.2866
     96  N         12.5960    0.6940   45.2640 N.3   205  VAL205     -0.1231
     97  CA        13.4070    1.5580   44.3760 C.3   205  VAL205      0.1692
     98  C         12.6240    1.7260   43.0610 C.2   205  VAL205      0.2591
     99  O         12.4860    2.8430   42.5770 O.2   205  VAL205     -0.2718
    100  CB        14.8450    0.9880   44.1430 C.3   205  VAL205      0.0266
    101  CG1       15.5940    1.8260   43.0970 C.3   205  VAL205      0.0020
    102  CG2       15.6510    0.9770   45.4170 C.3   205  VAL205      0.0020
    103  N         12.0980    0.6380   42.4910 N.am  206  VAL206     -0.1980
    104  CA        11.2160    0.7000   41.3220 C.3   206  VAL206      0.1595
    105  C          9.9390   -0.0390   41.7530 C.2   206  VAL206      0.2287
    106  O          9.9740   -1.2460   42.1040 O.2   206  VAL206     -0.2864
    107  CB        11.8990    0.0040   40.1130 C.3   206  VAL206      0.0276
    108  CG1       10.9700   -0.1440   38.8950 C.3   206  VAL206      0.0022
    109  CG2       13.1860    0.6970   39.7950 C.3   206  VAL206      0.0022
    110  N         15.0070   -4.9750   45.4710 N.3   231  HIS231     -0.1241
    111  CA        15.2710   -4.4180   44.1230 C.3   231  HIS231      0.1621
    112  C         16.4140   -5.1790   43.4710 C.2   231  HIS231      0.2264
    113  O         16.4580   -5.3670   42.2380 O.2   231  HIS231     -0.2867
    114  CB        15.6480   -2.9190   44.2760 C.3   231  HIS231      0.0745
    115  CG        15.9410   -2.2390   42.9730 C.ar  231  HIS231      0.0817
    116  ND1       15.0610   -2.2720   41.9110 N.ar  231  HIS231     -0.2268
    117  CD2       17.0520   -1.6040   42.5190 C.ar  231  HIS231      0.1154
    118  CE1       15.5910   -1.6330   40.8640 C.ar  231  HIS231      0.1986
    119  NE2       16.7990   -1.2100   41.2040 N.ar  231  HIS231     -0.2212
@<TRIPOS>BOND
     1    84    85    1
     2    87    86    2
     3    34    33    2
     4    85    86    1
     5    85    88    1
     6    58    57    1
     7    33    32    1
     8    88    89    1
     9    36    37    1
    10    36    35    1
    11    39    37   am
    12    90    89   ar
    13    90    92   ar
    14    59    57    1
    15    89    91   ar
    16    57    56    1
    17    37    38    2
    18    92    94   ar
    19    16    17    1
    20    29    28    2
    21    32    35    1
    22    32    31    1
    23    91    93   ar
    24    43    42    2
    25    94    93   ar
    26    94    95    1
    27    42    41    1
    28    54    55    2
    29    54    53    1
    30    40    41    1
    31    28    31   am
    32    28    27    1
    33    56    53    1
    34    19    18    2
    35    17    18    1
    36    17    20    1
    37    45    46    1
    38    18    26   am
    39    41    44    1
    40    53    52    1
    41    52    47   am
    42    26    27    1
    43     1     2    1
    44     2     3    1
    45    27    30    1
    46    46    47    1
    47    46    49    1
    48    47    48    2
    49    20    21    1
    50     4     3    2
    51     3     5   am
    52     5     6    1
    53    11    13   ar
    54    11    10   ar
    55     6     9    1
    56     6     7    1
    57    60    61    1
    58    13    15   ar
    59     9    10    1
    60    49    51    1
    61    49    50    1
    62    21    22   ar
    63    21    23   ar
    64    10    12   ar
    65    62    61    1
    66    62    63    2
    67    15    14   ar
    68    61    64    1
    69     7     8    2
    70    22    24   ar
    71   108   107    1
    72    23    25   ar
    73    64    65    1
    74    12    14   ar
    75    73    72    1
    76   109   107    1
    77    65    67   ar
    78    65    66   ar
    79    24    25   ar
    80   107   104    1
    81    74    72    1
    82    72    69    1
    83   118   119   ar
    84   118   116   ar
    85   119   117   ar
    86   104   105    1
    87   104   103    1
    88    69    68    1
    89    69    70    1
    90   105   106    2
    91    82    81    2
    92   116   115   ar
    93   113   112    2
    94   103    98   am
    95   117   115   ar
    96    99    98    2
    97    81    80    1
    98    81    83   am
    99    70    75   am
   100    70    71    2
   101   115   114    1
   102    80    79    1
   103    98    97    1
   104   101   100    1
   105    75    76    1
   106   112   111    1
   107   111   114    1
   108   111   110    1
   109   100    97    1
   110   100   102    1
   111    79    76    1
   112    97    96    1
   113    76    77    1
   114    77    78    2
