@<TRIPOS>MOLECULE
tmp/3s3gA01.pdb
 143 145 0 0 0
SMALL
GASTEIGER

@<TRIPOS>ATOM
      1  N          1.3580    8.7280   16.2510 N.3    21  TRP21      -0.1241
      2  CA         0.1290    9.3910   16.6810 C.3    21  TRP21       0.1605
      3  C          0.4640   10.4100   17.7820 C.2    21  TRP21       0.2264
      4  O          1.0940   10.0650   18.7840 O.2    21  TRP21      -0.2867
      5  CB        -0.9020    8.3640   17.1640 C.3    21  TRP21       0.0550
      6  CG        -2.1450    8.9810   17.7530 C.ar   21  TRP21       0.0003
      7  CD1       -2.8050   10.0920   17.3010 C.ar   21  TRP21       0.0946
      8  CD2       -2.8530    8.5430   18.9280 C.ar   21  TRP21       0.0152
      9  NE1       -3.8830   10.3680   18.1160 N.ar   21  TRP21      -0.2442
     10  CE2       -3.9350    9.4330   19.1170 C.ar   21  TRP21       0.0810
     11  CE3       -2.6850    7.4780   19.8270 C.ar   21  TRP21       0.0012
     12  CZ2       -4.8420    9.2920   20.1740 C.ar   21  TRP21       0.0191
     13  CZ3       -3.5920    7.3430   20.8810 C.ar   21  TRP21       0.0001
     14  CH2       -4.6580    8.2450   21.0400 C.ar   21  TRP21       0.0015
     15  N         -4.9800   10.1610    9.3960 N.3    48  VAL48      -0.1231
     16  CA        -5.7720   10.8360   10.4240 C.3    48  VAL48       0.1692
     17  C         -4.8780   11.4980   11.4760 C.2    48  VAL48       0.2592
     18  O         -5.3350   12.3360   12.2430 O.2    48  VAL48      -0.2718
     19  CB        -6.8010    9.8810   11.0840 C.3    48  VAL48       0.0266
     20  CG1       -6.1100    8.9180   12.0420 C.3    48  VAL48       0.0020
     21  CG2       -7.8820   10.6840   11.8150 C.3    48  VAL48       0.0020
     22  N         -3.5930   11.1580   11.4810 N.am   49  TYR49      -0.1976
     23  CA        -2.6560   11.7970   12.4120 C.3    49  TYR49       0.1639
     24  C         -2.2300   13.1940   11.9600 C.2    49  TYR49       0.2290
     25  O         -1.6480   13.9470   12.7350 O.2    49  TYR49      -0.2864
     26  CB        -1.4100   10.9280   12.6350 C.3    49  TYR49       0.0560
     27  CG        -1.6920    9.5410   13.1880 C.ar   49  TYR49      -0.0198
     28  CD1       -2.9290    9.2090   13.7270 C.ar   49  TYR49      -0.0009
     29  CD2       -0.7030    8.5630   13.1820 C.ar   49  TYR49      -0.0009
     30  CE1       -3.1760    7.9230   14.2360 C.ar   49  TYR49       0.0417
     31  CE2       -0.9470    7.2820   13.6660 C.ar   49  TYR49       0.0417
     32  CZ        -2.1770    6.9680   14.1930 C.ar   49  TYR49       0.1957
     33  OH        -2.4000    5.6880   14.6790 O.3    49  TYR49      -0.2866
     34  N         -8.4010    5.8970    6.6200 N.3    80  TRP80      -0.1241
     35  CA        -9.3000    6.4730    7.6110 C.3    80  TRP80       0.1605
     36  C        -10.7670    6.1130    7.3280 C.2    80  TRP80       0.2264
     37  O        -11.1250    5.7420    6.2110 O.2    80  TRP80      -0.2867
     38  CB        -9.1030    7.9920    7.8110 C.3    80  TRP80       0.0550
     39  CG        -9.9770    8.4690    8.9330 C.ar   80  TRP80       0.0003
     40  CD1      -11.0400    9.3270    8.8460 C.ar   80  TRP80       0.0946
     41  CD2       -9.9410    8.0180   10.2980 C.ar   80  TRP80       0.0152
     42  NE1      -11.6330    9.4670   10.0720 N.ar   80  TRP80      -0.2442
     43  CE2      -10.9790    8.6780   10.9840 C.ar   80  TRP80       0.0810
     44  CE3       -9.1140    7.1450   11.0090 C.ar   80  TRP80       0.0012
     45  CZ2      -11.2170    8.4900   12.3510 C.ar   80  TRP80       0.0191
     46  CZ3       -9.3490    6.9560   12.3740 C.ar   80  TRP80       0.0001
     47  CH2      -10.3970    7.6280   13.0250 C.ar   80  TRP80       0.0015
     48  N         -8.1410    1.2530    9.2040 N.3   111  HIS111     -0.1226
     49  CA        -7.7840    1.8040   10.5130 C.3   111  HIS111      0.1752
     50  C         -8.7410    1.3550   11.6210 C.2   111  HIS111      0.2596
     51  O         -8.3200    1.0230   12.7400 O.2   111  HIS111     -0.2718
     52  CB        -7.7220    3.3310   10.4240 C.3   111  HIS111      0.0759
     53  CG        -6.9330    3.9790   11.5180 C.ar  111  HIS111      0.0818
     54  ND1       -6.2490    5.1590   11.3300 N.ar  111  HIS111     -0.2268
     55  CD2       -6.7220    3.6230   12.8080 C.ar  111  HIS111      0.1154
     56  CE1       -5.6550    5.5060   12.4580 C.ar  111  HIS111      0.1986
     57  NE2       -5.9200    4.5850   13.3690 N.ar  111  HIS111     -0.2212
     58  N        -10.0330    1.3810   11.3070 N.am  112  TRP112     -0.1976
     59  CA       -11.0780    0.9070   12.2050 C.3   112  TRP112      0.1640
     60  C        -12.1090    0.1790   11.3370 C.2   112  TRP112      0.2290
     61  O        -12.2940    0.5360   10.1820 O.2   112  TRP112     -0.2864
     62  CB       -11.7450    2.0930   12.9180 C.3   112  TRP112      0.0576
     63  CG       -10.8720    2.7820   13.9500 C.ar  112  TRP112      0.0006
     64  CD1       -9.9700    3.7880   13.7280 C.ar  112  TRP112      0.0946
     65  CD2      -10.8390    2.5200   15.3600 C.ar  112  TRP112      0.0152
     66  NE1       -9.3810    4.1610   14.9060 N.ar  112  TRP112     -0.2442
     67  CE2       -9.8880    3.3920   15.9230 C.ar  112  TRP112      0.0810
     68  CE3      -11.5190    1.6230   16.1980 C.ar  112  TRP112      0.0012
     69  CZ2       -9.5960    3.4010   17.2940 C.ar  112  TRP112      0.0191
     70  CZ3      -11.2290    1.6290   17.5550 C.ar  112  TRP112      0.0001
     71  CH2      -10.2770    2.5140   18.0910 C.ar  112  TRP112      0.0015
     72  N        -14.5380   12.9640   11.7910 N.3   123  PHE123     -0.1241
     73  CA       -15.6150   12.4030   12.5950 C.3   123  PHE123      0.1605
     74  C        -16.9010   13.1960   12.3480 C.2   123  PHE123      0.2264
     75  O        -17.2550   14.0850   13.1380 O.2   123  PHE123     -0.2867
     76  CB       -15.2640   12.4270   14.0860 C.3   123  PHE123      0.0534
     77  CG       -14.3440   11.3130   14.5280 C.ar  123  PHE123     -0.0203
     78  CD1      -12.9700   11.4370   14.3960 C.ar  123  PHE123     -0.0042
     79  CD2      -14.8510   10.1590   15.1090 C.ar  123  PHE123     -0.0042
     80  CE1      -12.1180   10.4180   14.8190 C.ar  123  PHE123     -0.0003
     81  CE2      -14.0170    9.1420   15.5300 C.ar  123  PHE123     -0.0003
     82  CZ       -12.6450    9.2690   15.3870 C.ar  123  PHE123     -0.0000
     83  N         -7.9820   -2.7560   15.0270 N.3   161  ASN161     -0.1240
     84  CA        -9.1630   -2.6640   15.8810 C.3   161  ASN161      0.1653
     85  C        -10.3380   -3.5530   15.4400 C.2   161  ASN161      0.2266
     86  O        -11.4920   -3.2460   15.7360 O.2   161  ASN161     -0.2867
     87  CB        -9.6250   -1.2050   15.9820 C.3   161  ASN161      0.1155
     88  CG        -8.5380   -0.2840   16.5000 C.2   161  ASN161      0.2627
     89  OD1       -8.1180   -0.3980   17.6520 O.2   161  ASN161     -0.2716
     90  ND2       -8.1080    0.6670   15.6660 N.am  161  ASN161     -0.0877
     91  N         -0.3590   -1.7490   19.8170 N.3   210  TYR210     -0.1241
     92  CA        -0.2050   -0.3080   19.9620 C.3   210  TYR210      0.1605
     93  C         -0.4320    0.1960   21.3890 C.2   210  TYR210      0.2264
     94  O         -0.9130   -0.5480   22.2460 O.2   210  TYR210     -0.2867
     95  CB        -1.0630    0.4450   18.9230 C.3   210  TYR210      0.0534
     96  CG        -2.5920    0.5540   19.0950 C.ar  210  TYR210     -0.0201
     97  CD1       -3.1630    1.2920   20.1350 C.ar  210  TYR210     -0.0009
     98  CD2       -3.4550    0.0280   18.1340 C.ar  210  TYR210     -0.0009
     99  CE1       -4.5490    1.4530   20.2430 C.ar  210  TYR210      0.0417
    100  CE2       -4.8550    0.1810   18.2420 C.ar  210  TYR210      0.0417
    101  CZ        -5.3860    0.9020   19.2930 C.ar  210  TYR210      0.1957
    102  OH        -6.7560    1.0640   19.3930 O.3   210  TYR210     -0.2866
    103  N         -5.0620   12.5140   24.8820 N.3   219  PRO219     -0.2102
    104  CA        -5.7780   13.7550   25.2140 C.3   219  PRO219      0.1504
    105  C         -6.7710   13.6000   26.3670 C.2   219  PRO219      0.2575
    106  O         -7.0020   14.5560   27.0980 O.2   219  PRO219     -0.2718
    107  CB        -6.5540   14.0620   23.9280 C.3   219  PRO219      0.0282
    108  CG        -5.8110   13.3560   22.8530 C.3   219  PRO219      0.0208
    109  CD        -5.2450   12.1260   23.4750 C.3   219  PRO219      0.0893
    110  N         -7.3610   12.4170   26.5070 N.am  220  TRP220     -0.1977
    111  CA        -8.4300   12.1900   27.4850 C.3   220  TRP220      0.1640
    112  C         -7.9650   11.6490   28.8340 C.2   220  TRP220      0.2290
    113  O         -8.7880   11.2320   29.6540 O.2   220  TRP220     -0.2864
    114  CB        -9.5330   11.3080   26.9070 C.3   220  TRP220      0.0576
    115  CG        -9.0130   10.1110   26.2390 C.ar  220  TRP220      0.0006
    116  CD1       -8.7510    8.8950   26.8070 C.ar  220  TRP220      0.0946
    117  CD2       -8.6800    9.9930   24.8550 C.ar  220  TRP220      0.0152
    118  NE1       -8.2750    8.0210   25.8500 N.ar  220  TRP220     -0.2442
    119  CE2       -8.2250    8.6720   24.6430 C.ar  220  TRP220      0.0810
    120  CE3       -8.7280   10.8710   23.7710 C.ar  220  TRP220      0.0012
    121  CZ2       -7.8160    8.2190   23.3970 C.ar  220  TRP220      0.0191
    122  CZ3       -8.3230   10.4150   22.5290 C.ar  220  TRP220      0.0001
    123  CH2       -7.8680    9.1030   22.3540 C.ar  220  TRP220      0.0015
    124  N         -7.8120    3.5370   23.7200 N.3   299  CYS299     -0.1235
    125  CA        -8.6590    3.9660   22.6200 C.3   299  CYS299      0.1677
    126  C         -9.9040    3.1140   22.5620 C.2   299  CYS299      0.2270
    127  O         -9.8910    2.0000   22.0190 O.2   299  CYS299     -0.2867
    128  CB        -7.8990    3.7920   21.3020 C.3   299  CYS299      0.0956
    129  SG        -6.3760    4.7490   21.1680 S.3   299  CYS299     -0.0801
    130  N        -12.7770    4.4670   21.1330 N.3   301  LEU301     -0.1245
    131  CA       -13.6000    5.0400   20.0580 C.3   301  LEU301      0.1561
    132  C        -14.9990    5.4140   20.5620 C.2   301  LEU301      0.2260
    133  O        -16.0130    4.9850   19.9960 O.2   301  LEU301     -0.2867
    134  CB       -13.7000    4.0880   18.8670 C.3   301  LEU301      0.0270
    135  CG       -14.0080    4.8100   17.5490 C.3   301  LEU301      0.0019
    136  CD1      -12.8160    5.6590   17.1140 C.3   301  LEU301      0.0001
    137  CD2      -14.3950    3.8270   16.4680 C.3   301  LEU301      0.0001
    138  N        -17.1840    7.7950   20.6150 N.3   303  SER303     -0.1217
    139  CA       -18.2560    8.4320   19.8470 C.3   303  SER303      0.1889
    140  C        -18.9550    7.4630   18.8950 C.2   303  SER303      0.2288
    141  O        -19.9890    7.7820   18.3090 O.2   303  SER303     -0.2866
    142  CB       -17.7040    9.6190   19.0600 C.3   303  SER303      0.2089
    143  OG       -16.5730    9.2350   18.2960 O.3   303  SER303     -0.2183
@<TRIPOS>BOND
     1    37    36    2
     2    34    35    1
     3    36    35    1
     4    35    38    1
     5    38    39    1
     6    40    39   ar
     7    40    42   ar
     8    39    41   ar
     9    48    49    1
    10    15    16    1
    11    42    43   ar
    12    61    60    2
    13    41    43   ar
    14    41    44   ar
    15    16    19    1
    16    16    17    1
    17    52    49    1
    18    52    53    1
    19    49    50    1
    20    43    45   ar
    21    44    46   ar
    22    19    21    1
    23    19    20    1
    24    58    50   am
    25    58    59    1
    26    54    53   ar
    27    54    56   ar
    28    60    59    1
    29    17    22   am
    30    17    18    2
    31    22    23    1
    32    53    55   ar
    33    50    51    2
    34    72    73    1
    35    24    23    1
    36    24    25    2
    37    59    62    1
    38    74    73    1
    39    74    75    2
    40    45    47   ar
    41    46    47   ar
    42    23    26    1
    43    56    57   ar
    44    73    76    1
    45    26    27    1
    46    55    57   ar
    47    62    63    1
    48    29    27   ar
    49    29    31   ar
    50    27    28   ar
    51    31    32   ar
    52    28    30   ar
    53    64    63   ar
    54    64    66   ar
    55    63    65   ar
    56    76    77    1
    57    32    30   ar
    58    32    33    1
    59    78    77   ar
    60    78    80   ar
    61    77    79   ar
    62    80    82   ar
    63    66    67   ar
    64    83    84    1
    65    79    81   ar
    66    65    67   ar
    67    65    68   ar
    68    82    81   ar
    69    85    86    2
    70    85    84    1
    71    90    88   am
    72    84    87    1
    73    67    69   ar
    74    87    88    1
    75    68    70   ar
    76     1     2    1
    77   137   135    1
    78    88    89    2
    79     2     5    1
    80     2     3    1
    81   136   135    1
    82     5     6    1
    83    69    71   ar
    84     7     6   ar
    85     7     9   ar
    86   135   134    1
    87    70    71   ar
    88     6     8   ar
    89     3     4    2
    90     9    10   ar
    91    98   100   ar
    92    98    96   ar
    93   100   101   ar
    94   143   142    1
    95   141   140    2
    96   134   131    1
    97   140   139    1
    98    95    96    1
    99    95    92    1
   100     8    10   ar
   101     8    11   ar
   102   142   139    1
   103    96    97   ar
   104    10    12   ar
   105   101   102    1
   106   101    99   ar
   107    91    92    1
   108    11    13   ar
   109   139   138    1
   110    92    93    1
   111   133   132    2
   112   131   132    1
   113   131   130    1
   114    97    99   ar
   115    12    14   ar
   116    13    14   ar
   117   129   128    1
   118   128   125    1
   119    93    94    2
   120   127   126    2
   121   123   122   ar
   122   123   121   ar
   123   122   120   ar
   124   126   125    1
   125   125   124    1
   126   108   109    1
   127   108   107    1
   128   121   119   ar
   129   109   103    1
   130   120   117   ar
   131   107   104    1
   132   119   117   ar
   133   119   118   ar
   134   117   115   ar
   135   103   104    1
   136   104   105    1
   137   118   116   ar
   138   115   116   ar
   139   115   114    1
   140   105   110   am
   141   105   106    2
   142   110   111    1
   143   114   111    1
   144   111   112    1
   145   112   113    2
