@<TRIPOS>MOLECULE
tmp/3s3hB00.pdb
 109 104 0 0 0
SMALL
GASTEIGER

@<TRIPOS>ATOM
      1  N          1.3870   17.8000   24.8240 N.3    38  ARG38      -0.1245
      2  CA         2.4670   17.3350   23.9570 C.3    38  ARG38       0.1563
      3  C          2.0130   16.7240   22.6500 C.2    38  ARG38       0.2260
      4  O          2.8340   16.4160   21.7900 O.2    38  ARG38      -0.2867
      5  CB         3.4070   16.4060   24.7130 C.3    38  ARG38       0.0307
      6  CG         3.8410   16.9990   26.0260 C.3    38  ARG38       0.0489
      7  CD         4.9670   16.2480   26.6100 C.3    38  ARG38       0.2205
      8  NE         6.1770   16.4970   25.8550 N.pl3  38  ARG38      -0.0865
      9  CZ         7.3260   15.8710   26.0780 C.cat  38  ARG38       0.5346
     10  NH1        7.4360   14.9610   27.0460 N.pl3  38  ARG38       0.1354
     11  NH2        8.3790   16.1660   25.3290 N.pl3  38  ARG38       0.1354
     12  N         17.4420   23.9520   21.7650 N.3    56  PHE56      -0.1241
     13  CA        17.2420   22.5600   22.1260 C.3    56  PHE56       0.1605
     14  C         16.3310   21.9160   21.1240 C.2    56  PHE56       0.2264
     15  O         15.4140   22.5450   20.6210 O.2    56  PHE56      -0.2867
     16  CB        16.6160   22.4840   23.5030 C.3    56  PHE56       0.0534
     17  CG        17.5290   22.9250   24.5800 C.ar   56  PHE56      -0.0203
     18  CD1       18.4870   22.0620   25.0770 C.ar   56  PHE56      -0.0042
     19  CD2       17.4610   24.2070   25.0690 C.ar   56  PHE56      -0.0042
     20  CE1       19.3310   22.4580   26.0430 C.ar   56  PHE56      -0.0003
     21  CE2       18.3070   24.6180   26.0440 C.ar   56  PHE56      -0.0003
     22  CZ        19.2440   23.7500   26.5320 C.ar   56  PHE56      -0.0000
     23  N         14.1960   19.5890   21.4340 N.3    58  ASN58      -0.1225
     24  CA        12.9800   19.0250   21.9730 C.3    58  ASN58       0.1785
     25  C         12.2670   20.0580   22.8220 C.2    58  ASN58       0.2597
     26  O         11.3830   19.7310   23.6090 O.2    58  ASN58      -0.2718
     27  CB        13.3080   17.7840   22.7860 C.3    58  ASN58       0.1169
     28  CG        14.1870   18.0740   23.9850 C.2    58  ASN58       0.2627
     29  OD1       14.4580   17.2260   24.8370 O.2    58  ASN58      -0.2716
     30  ND2       14.6230   19.3120   24.0620 N.am   58  ASN58      -0.0877
     31  N         12.7010   21.3030   22.6720 N.am   59  ILE59      -0.1980
     32  CA        11.9360   22.4450   23.1190 C.3    59  ILE59       0.1595
     33  C         11.5520   23.1970   21.8580 C.2    59  ILE59       0.2287
     34  O         12.3480   23.9550   21.2950 O.2    59  ILE59      -0.2864
     35  CB        12.7240   23.3430   24.0890 C.3    59  ILE59       0.0276
     36  CG1       13.2080   22.5550   25.3260 C.3    59  ILE59       0.0022
     37  CG2       11.9070   24.5770   24.4390 C.3    59  ILE59       0.0022
     38  CD1       12.1330   21.8280   26.1300 C.3    59  ILE59       0.0001
     39  N         24.4910   29.7370   28.3040 N.3   134  LYS134     -0.1245
     40  CA        23.0700   29.5660   28.5570 C.3   134  LYS134      0.1561
     41  C         22.3080   30.5820   27.7520 C.2   134  LYS134      0.2260
     42  O         21.1230   30.4090   27.4850 O.2   134  LYS134     -0.2867
     43  CB        22.7570   29.7600   30.0450 C.3   134  LYS134      0.0271
     44  CG        23.5000   28.8570   31.0270 C.3   134  LYS134      0.0035
     45  CD        23.0860   27.4270   30.8370 C.3   134  LYS134      0.0206
     46  CE        22.7520   26.7580   32.1630 C.3   134  LYS134      0.1093
     47  NZ        21.2960   26.9340   32.4810 N.3   134  LYS134     -0.1314
     48  N         14.6910   32.2770   29.7720 N.3   222  CYS222     -0.1221
     49  CA        15.7820   31.7810   30.5900 C.3   222  CYS222      0.1808
     50  C         16.8100   31.1980   29.6570 C.2   222  CYS222      0.2602
     51  O         17.3070   31.8870   28.8390 O.2   222  CYS222     -0.2717
     52  CB        15.3180   30.7930   31.6640 C.3   222  CYS222      0.0970
     53  SG        14.3900   29.3470   31.2540 S.3   222  CYS222     -0.0800
     54  N         17.1220   29.9280   29.7250 N.am  223  SER223     -0.1938
     55  CA        17.9200   29.3820   28.6700 C.3   223  SER223      0.2055
     56  C         17.1250   28.6200   27.6390 C.2   223  SER223      0.2642
     57  O         17.2770   28.8300   26.4780 O.2   223  SER223     -0.2714
     58  CB        19.0210   28.5160   29.1820 C.3   223  SER223      0.2130
     59  OG        20.0290   28.4620   28.2110 O.3   223  SER223     -0.2179
     60  N         16.2920   27.7040   28.0580 N.am  224  ALA224     -0.1977
     61  CA        15.4370   27.0020   27.1190 C.3   224  ALA224      0.1597
     62  C         14.1140   27.7270   27.1200 C.2   224  ALA224      0.2287
     63  O         13.3240   27.6040   26.1780 O.2   224  ALA224     -0.2864
     64  CB        15.2630   25.5850   27.5220 C.3   224  ALA224      0.0319
     65  N         11.6830   27.4670   29.5240 N.3   226  VAL226     -0.1231
     66  CA        10.6050   26.6670   30.0000 C.3   226  VAL226      0.1692
     67  C         10.5510   26.6220   31.5080 C.2   226  VAL226      0.2593
     68  O          9.6020   27.0360   32.0850 O.2   226  VAL226     -0.2718
     69  CB        10.5180   25.2750   29.3200 C.3   226  VAL226      0.0266
     70  CG1       10.0210   25.3860   27.9510 C.3   226  VAL226      0.0020
     71  CG2       11.7620   24.5500   29.3420 C.3   226  VAL226      0.0020
     72  N         11.5690   26.1550   32.1740 N.am  227  GLY227     -0.1942
     73  CA        11.4730   26.1050   33.6110 C.3   227  GLY227      0.2014
     74  C         12.3800   27.0910   34.2480 C.2   227  GLY227      0.2638
     75  O         13.5420   27.0640   34.0370 O.2   227  GLY227     -0.2714
     76  N         11.8580   27.9610   35.0510 N.am  228  ARG228     -0.1977
     77  CA        12.6080   29.0750   35.5100 C.3   228  ARG228      0.1597
     78  C         11.8470   30.1890   34.9170 C.2   228  ARG228      0.2287
     79  O         11.3520   31.0060   35.6150 O.2   228  ARG228     -0.2864
     80  CB        14.0370   29.0640   35.0420 C.3   228  ARG228      0.0334
     81  CG        15.0750   29.2820   36.1140 C.3   228  ARG228      0.0492
     82  CD        16.3980   29.6880   35.5770 C.3   228  ARG228      0.2205
     83  NE        17.4980   28.8220   35.9550 N.pl3 228  ARG228     -0.0865
     84  CZ        18.7580   29.2050   36.0350 C.cat 228  ARG228      0.5346
     85  NH1       19.6970   28.3760   36.3300 N.pl3 228  ARG228      0.1354
     86  NH2       19.0870   30.4190   35.8100 N.pl3 228  ARG228      0.1354
     87  N          7.0310   21.8650   28.5000 N.3   263  TRP263     -0.1241
     88  CA         7.8590   21.8510   29.7190 C.3   263  TRP263      0.1605
     89  C          7.8510   23.0900   30.6210 C.2   263  TRP263      0.2264
     90  O          8.8160   23.3180   31.3480 O.2   263  TRP263     -0.2867
     91  CB         9.3040   21.4980   29.3690 C.3   263  TRP263      0.0550
     92  CG         9.4990   20.0600   29.1860 C.ar  263  TRP263      0.0003
     93  CD1        9.9880   19.4260   28.0860 C.ar  263  TRP263      0.0946
     94  CD2        9.1970   19.0400   30.1380 C.ar  263  TRP263      0.0152
     95  NE1       10.0170   18.0630   28.2970 N.ar  263  TRP263     -0.2442
     96  CE2        9.5260   17.8060   29.5490 C.ar  263  TRP263      0.0810
     97  CE3        8.6720   19.0490   31.4370 C.ar  263  TRP263      0.0012
     98  CZ2        9.3480   16.6150   30.2060 C.ar  263  TRP263      0.0191
     99  CZ3        8.5120   17.8710   32.0820 C.ar  263  TRP263      0.0001
    100  CH2        8.8410   16.6690   31.4700 C.ar  263  TRP263      0.0015
    101  N          9.6720   23.0710   34.5130 N.3   266  GLN266     -0.1245
    102  CA        10.4240   21.9160   34.0280 C.3   266  GLN266      0.1566
    103  C         10.6750   20.7930   35.0320 C.2   266  GLN266      0.2260
    104  O         10.5660   19.6280   34.6590 O.2   266  GLN266     -0.2867
    105  CB        11.7530   22.3460   33.3970 C.3   266  GLN266      0.0367
    106  CG        12.4080   21.2830   32.5250 C.3   266  GLN266      0.0905
    107  CD        13.5770   21.8290   31.7350 C.2   266  GLN266      0.2608
    108  OE1       13.8860   23.0260   31.7770 O.2   266  GLN266     -0.2717
    109  NE2       14.2490   20.9500   31.0080 N.am  266  GLN266     -0.0878
@<TRIPOS>BOND
     1    15    14    2
     2    14    13    1
     3    34    33    2
     4    23    24    1
     5    12    13    1
     6     4     3    2
     7    33    32    1
     8    24    27    1
     9    24    25    1
    10    13    16    1
    11     3     2    1
    12    31    25   am
    13    31    32    1
    14    27    28    1
    15    25    26    2
    16    32    35    1
    17    16    17    1
    18     2     5    1
    19     2     1    1
    20    28    30   am
    21    28    29    2
    22    35    37    1
    23    35    36    1
    24    17    19   ar
    25    17    18   ar
    26     5     6    1
    27    19    21   ar
    28    18    20   ar
    29    36    38    1
    30    11     9    1
    31     8     9    2
    32     8     7    1
    33     6     7    1
    34    20    22   ar
    35    21    22   ar
    36     9    10    1
    37    63    62    2
    38    57    56    2
    39    61    62    1
    40    61    64    1
    41    61    60    1
    42    42    41    2
    43    56    60   am
    44    56    55    1
    45    41    40    1
    46    70    69    1
    47    93    95   ar
    48    93    92   ar
    49    59    58    1
    50    95    96   ar
    51    39    40    1
    52    87    88    1
    53    40    43    1
    54    55    58    1
    55    55    54    1
    56    51    50    2
    57    92    91    1
    58    92    94   ar
    59    69    71    1
    60    69    66    1
    61    91    88    1
    62    65    66    1
    63    96    94   ar
    64    96    98   ar
    65    50    54   am
    66    50    49    1
    67    88    89    1
    68    48    49    1
    69    66    67    1
    70    43    44    1
    71    94    97   ar
    72    98   100   ar
    73    49    52    1
    74    89    90    2
    75    45    44    1
    76    45    46    1
    77   109   107   am
    78    53    52    1
    79    97    99   ar
    80   100    99   ar
    81    67    68    2
    82    67    72   am
    83   107   108    2
    84   107   106    1
    85    46    47    1
    86    72    73    1
    87   106   105    1
    88   105   102    1
    89    73    74    1
    90   102   101    1
    91   102   103    1
    92    75    74    2
    93    74    76   am
    94   104   103    2
    95    78    77    1
    96    78    79    2
    97    80    77    1
    98    80    81    1
    99    76    77    1
   100    82    83    1
   101    82    81    1
   102    86    84    1
   103    83    84    2
   104    84    85    1
