@<TRIPOS>MOLECULE
tmp/3s3iA00.pdb
 172 162 0 0 0
SMALL
GASTEIGER

@<TRIPOS>ATOM
      1  N         -1.2650   31.5770   39.7680 N.3    27  VAL27      -0.1245
      2  CA        -2.2730   31.4350   38.6930 C.3    27  VAL27       0.1561
      3  C         -2.3630   29.9800   38.2480 C.2    27  VAL27       0.2260
      4  O         -2.7920   29.7150   37.1290 O.2    27  VAL27      -0.2867
      5  CB        -2.0630   32.3320   37.4460 C.3    27  VAL27       0.0252
      6  CG1       -2.1360   33.8040   37.7970 C.3    27  VAL27       0.0019
      7  CG2       -0.7850   31.9830   36.7480 C.3    27  VAL27       0.0019
      8  N          2.8780   28.1820   38.3890 N.3    35  VAL35      -0.1245
      9  CA         3.0000   29.4860   37.7640 C.3    35  VAL35       0.1561
     10  C          2.4470   30.5710   38.7070 C.2    35  VAL35       0.2260
     11  O          1.4370   30.3720   39.4180 O.2    35  VAL35      -0.2867
     12  CB         2.3630   29.5230   36.3380 C.3    35  VAL35       0.0252
     13  CG1        2.5520   30.8780   35.6670 C.3    35  VAL35       0.0019
     14  CG2        2.9730   28.4440   35.4680 C.3    35  VAL35       0.0019
     15  N          4.7510   36.0620   33.7880 N.3    48  ALA48      -0.1231
     16  CA         4.3700   34.7830   34.3680 C.3    48  ALA48       0.1694
     17  C          5.6850   34.1280   34.8050 C.2    48  ALA48       0.2592
     18  O          6.6470   34.0950   34.0580 O.2    48  ALA48      -0.2718
     19  CB         3.5540   33.9320   33.3170 C.3    48  ALA48       0.0304
     20  N          5.7700   33.6840   36.0490 N.am   49  VAL49      -0.1966
     21  CA         6.9540   33.0140   36.5410 C.3    49  VAL49       0.1727
     22  C          6.5950   31.5300   36.8370 C.2    49  VAL49       0.2616
     23  O          5.6850   31.2480   37.6240 O.2    49  VAL49      -0.2715
     24  CB         7.5040   33.7160   37.7990 C.3    49  VAL49       0.0290
     25  CG1        8.9420   33.2600   38.1070 C.3    49  VAL49       0.0023
     26  CG2        7.4400   35.1870   37.6370 C.3    49  VAL49       0.0023
     27  N          7.3240   30.5960   36.2060 N.am   50  LYS50      -0.1977
     28  CA         7.1510   29.1730   36.3860 C.3    50  LYS50       0.1596
     29  C          8.3400   28.6520   37.1020 C.2    50  LYS50       0.2287
     30  O          9.4310   28.7020   36.6160 O.2    50  LYS50      -0.2864
     31  CB         7.0590   28.4600   35.0420 C.3    50  LYS50       0.0298
     32  CG         6.6010   26.9730   35.1710 C.3    50  LYS50       0.0038
     33  CD         7.0190   26.1310   33.9900 C.3    50  LYS50       0.0206
     34  CE         6.3680   26.5970   32.7430 C.3    50  LYS50       0.1093
     35  NZ         5.9550   25.3970   31.9600 N.3    50  LYS50      -0.1314
     36  N         12.7800   22.5360   27.5670 N.3    68  GLU68      -0.1245
     37  CA        11.9340   23.7110   27.6780 C.3    68  GLU68       0.1567
     38  C         12.7240   25.0250   27.6680 C.2    68  GLU68       0.2260
     39  O         12.3640   26.0130   26.9920 O.2    68  GLU68      -0.2867
     40  CB        11.0900   23.6210   28.9470 C.3    68  GLU68       0.0388
     41  CG        10.1990   24.8270   29.0490 C.3    68  GLU68       0.1160
     42  CD         9.1340   24.7040   30.1090 C.2    68  GLU68       0.3649
     43  OE1        9.2280   23.7570   30.8830 O.co2  68  GLU68      -0.2457
     44  OE2        8.1810   25.5380   30.1400 O.co2  68  GLU68      -0.2457
     45  N         13.9990   25.6360   24.1630 N.3    71  LEU71      -0.1231
     46  CA        12.8910   26.1130   23.2850 C.3    71  LEU71       0.1693
     47  C         12.5550   27.5210   23.4870 C.2    71  LEU71       0.2591
     48  O         12.3600   28.2230   22.5260 O.2    71  LEU71      -0.2718
     49  CB        11.5820   25.2940   23.4710 C.3    71  LEU71       0.0284
     50  CG        11.6210   23.8790   22.9180 C.3    71  LEU71       0.0019
     51  CD1       10.6610   22.9910   23.6540 C.3    71  LEU71       0.0001
     52  CD2       11.3240   23.8980   21.4360 C.3    71  LEU71       0.0001
     53  N         12.4630   27.9170   24.7540 N.am   72  LEU72      -0.1980
     54  CA        12.1710   29.2900   25.1550 C.3    72  LEU72       0.1596
     55  C         13.2600   30.2760   24.7900 C.2    72  LEU72       0.2287
     56  O         12.9430   31.4100   24.3590 O.2    72  LEU72      -0.2864
     57  CB        11.8340   29.3620   26.6620 C.3    72  LEU72       0.0297
     58  CG        10.5140   28.7510   27.0560 C.3    72  LEU72       0.0022
     59  CD1       10.4090   28.7080   28.5370 C.3    72  LEU72       0.0001
     60  CD2        9.3750   29.6040   26.5300 C.3    72  LEU72       0.0001
     61  N          5.5700   32.8360   22.6350 N.3    81  ILE81      -0.1245
     62  CA         6.1490   33.1320   23.9310 C.3    81  ILE81       0.1561
     63  C          7.6710   32.8620   23.8870 C.2    81  ILE81       0.2260
     64  O          8.1160   31.8350   23.3850 O.2    81  ILE81      -0.2867
     65  CB         5.4300   32.3140   25.0420 C.3    81  ILE81       0.0252
     66  CG1        5.4390   33.0640   26.3660 C.3    81  ILE81       0.0019
     67  CG2        6.0050   30.8850   25.1950 C.3    81  ILE81       0.0019
     68  CD1        4.4290   34.2000   26.4660 C.3    81  ILE81       0.0001
     69  N         11.3830   30.2430   35.1830 N.3   101  LEU101     -0.1245
     70  CA        11.3560   30.8210   33.8360 C.3   101  LEU101      0.1561
     71  C         10.3980   31.9920   33.8310 C.2   101  LEU101      0.2260
     72  O          9.3190   31.8930   34.3740 O.2   101  LEU101     -0.2867
     73  CB        10.8570   29.7550   32.8370 C.3   101  LEU101      0.0270
     74  CG        11.6310   28.4360   32.8260 C.3   101  LEU101      0.0019
     75  CD1       10.7550   27.3650   32.2390 C.3   101  LEU101      0.0001
     76  CD2       12.9850   28.4840   32.0800 C.3   101  LEU101      0.0001
     77  N          8.3140   35.0530   31.5710 N.3   103  THR103     -0.1203
     78  CA         7.6760   35.0900   30.2700 C.3   103  THR103      0.1994
     79  C          6.7430   36.2880   30.3660 C.2   103  THR103      0.2618
     80  O          6.3120   36.6210   31.4570 O.2   103  THR103     -0.2717
     81  CB         6.9500   33.7260   30.1780 C.3   103  THR103      0.1784
     82  OG1        7.6510   32.8370   29.3030 O.3   103  THR103     -0.2211
     83  CG2        5.5600   33.8250   29.8710 C.3   103  THR103      0.0376
     84  N          6.4590   36.9630   29.2470 N.am  104  HIS104     -0.1961
     85  CA         5.3690   37.9290   29.1800 C.3   104  HIS104      0.1787
     86  C          4.1190   37.2620   29.6980 C.2   104  HIS104      0.2620
     87  O          3.9230   36.0560   29.5090 O.2   104  HIS104     -0.2715
     88  CB         5.0680   38.3420   27.7190 C.3   104  HIS104      0.0785
     89  CG         5.9900   39.3770   27.1540 C.ar  104  HIS104      0.0821
     90  ND1        7.0820   39.0590   26.3610 N.ar  104  HIS104     -0.2267
     91  CD2        5.9650   40.7290   27.2170 C.ar  104  HIS104      0.1154
     92  CE1        7.6970   40.1680   25.9730 C.ar  104  HIS104      0.1986
     93  NE2        7.0360   41.1990   26.4700 N.ar  104  HIS104     -0.2212
     94  N          3.2270   38.0250   30.3180 N.am  105  LEU105     -0.1963
     95  CA         1.9280   37.4640   30.6190 C.3   105  LEU105      0.1728
     96  C          0.8810   38.2460   29.8650 C.2   105  LEU105      0.2616
     97  O          0.6040   39.3620   30.2070 O.2   105  LEU105     -0.2715
     98  CB         1.6650   37.5300   32.0990 C.3   105  LEU105      0.0311
     99  CG         0.2750   37.2220   32.5670 C.3   105  LEU105      0.0022
    100  CD1       -0.0650   35.8290   32.1580 C.3   105  LEU105      0.0001
    101  CD2        0.2150   37.3650   34.0580 C.3   105  LEU105      0.0001
    102  N          0.2750   37.6670   28.8290 N.am  106  MET106     -0.1963
    103  CA        -0.6110   38.4620   27.9730 C.3   106  MET106      0.1736
    104  C         -1.8740   38.8580   28.7400 C.2   106  MET106      0.2617
    105  O         -2.4100   39.9780   28.5720 O.2   106  MET106     -0.2715
    106  CB        -1.0180   37.6840   26.6950 C.3   106  MET106      0.0427
    107  CG         0.0540   37.4820   25.6760 C.3   106  MET106      0.0599
    108  SD         0.7610   39.0080   25.0790 S.3   106  MET106     -0.1393
    109  CE        -0.3430   39.5310   23.7980 C.3   106  MET106      0.0692
    110  N         -2.3960   37.9240   29.5290 N.am  107  GLY107     -0.1940
    111  CA        -3.5700   38.2390   30.3020 C.3   107  GLY107      0.2014
    112  C         -4.4460   37.0470   30.5160 C.2   107  GLY107      0.2639
    113  O         -4.6640   36.6360   31.6410 O.2   107  GLY107     -0.2714
    114  N         -4.9840   36.4880   29.4450 N.am  108  ALA108     -0.1963
    115  CA        -5.7640   35.3090   29.6210 C.3   108  ALA108      0.1728
    116  C         -5.3760   34.2750   28.5520 C.2   108  ALA108      0.2616
    117  O         -4.4570   34.5080   27.7640 O.2   108  ALA108     -0.2715
    118  CB        -7.2600   35.6590   29.5670 C.3   108  ALA108      0.0334
    119  N         -6.0500   33.1300   28.5600 N.am  109  ASP109     -0.1971
    120  CA        -5.8980   32.2180   27.4790 C.3   109  ASP109      0.1709
    121  C         -7.1320   32.3510   26.5790 C.2   109  ASP109      0.2293
    122  O         -8.1080   32.9550   26.9650 O.2   109  ASP109     -0.2864
    123  CB        -5.6000   30.8100   27.9970 C.3   109  ASP109      0.1436
    124  CG        -6.7780   30.1420   28.6240 C.2   109  ASP109      0.3671
    125  OD1       -7.8330   30.0590   28.0010 O.co2 109  ASP109     -0.2456
    126  OD2       -6.6470   29.6230   29.7310 O.co2 109  ASP109     -0.2456
    127  N         -6.4260   26.6590   25.0270 N.3   151  SER151     -0.1217
    128  CA        -5.8130   26.9130   26.3210 C.3   151  SER151      0.1889
    129  C         -4.3390   27.2360   26.2980 C.2   151  SER151      0.2288
    130  O         -3.7810   27.6660   27.2840 O.2   151  SER151     -0.2866
    131  CB        -6.0640   25.7710   27.2840 C.3   151  SER151      0.2089
    132  OG        -5.4070   24.6240   26.8450 O.3   151  SER151     -0.2183
    133  N         -2.2020   32.4910   24.5140 N.3   154  ALA154     -0.1245
    134  CA        -2.2270   33.5110   25.5290 C.3   154  ALA154      0.1562
    135  C         -2.7950   34.7570   24.8640 C.2   154  ALA154      0.2260
    136  O         -2.2380   35.1640   23.8530 O.2   154  ALA154     -0.2867
    137  CB        -0.7770   33.7800   25.9600 C.3   154  ALA154      0.0290
    138  N          1.8460   29.3130   23.3890 N.3   164  LEU164     -0.1231
    139  CA         2.5480   28.6730   24.5210 C.3   164  LEU164      0.1693
    140  C          2.7060   27.1880   24.2500 C.2   164  LEU164      0.2592
    141  O          1.9840   26.6290   23.4110 O.2   164  LEU164     -0.2718
    142  CB         1.6820   28.7640   25.8050 C.3   164  LEU164      0.0284
    143  CG         1.0230   30.1220   26.1730 C.3   164  LEU164      0.0019
    144  CD1        0.1780   29.9640   27.4000 C.3   164  LEU164      0.0001
    145  CD2        2.0060   31.2420   26.3490 C.3   164  LEU164      0.0001
    146  N          3.6410   26.5540   24.9480 N.am  165  ASP165     -0.1960
    147  CA         3.7730   25.0490   25.0660 C.3   165  ASP165      0.1840
    148  C          4.1460   24.2230   23.8620 C.2   165  ASP165      0.2622
    149  O          3.8540   23.0170   23.8430 O.2   165  ASP165     -0.2715
    150  CB         2.5410   24.3870   25.7090 C.3   165  ASP165      0.1450
    151  CG         2.5640   24.4360   27.2290 C.2   165  ASP165      0.3671
    152  OD1        3.4530   23.8030   27.8820 O.co2 165  ASP165     -0.2456
    153  OD2        1.6570   25.1190   27.7650 O.co2 165  ASP165     -0.2456
    154  N          4.7810   24.8450   22.8750 N.am  166  PHE166     -0.1974
    155  CA         5.2500   24.1770   21.6630 C.3   166  PHE166      0.1639
    156  C          6.3810   23.2870   21.9980 C.2   166  PHE166      0.2290
    157  O          7.0780   23.5930   22.9420 O.2   166  PHE166     -0.2864
    158  CB         5.7020   25.2040   20.6310 C.3   166  PHE166      0.0560
    159  CG         6.3800   26.3660   21.2130 C.ar  166  PHE166     -0.0200
    160  CD1        7.7370   26.3120   21.5100 C.ar  166  PHE166     -0.0042
    161  CD2        5.6810   27.5380   21.4460 C.ar  166  PHE166     -0.0042
    162  CE1        8.3950   27.4070   22.0890 C.ar  166  PHE166     -0.0003
    163  CE2        6.3180   28.6260   22.0460 C.ar  166  PHE166     -0.0003
    164  CZ         7.6970   28.5560   22.3610 C.ar  166  PHE166     -0.0000
    165  N          6.9580   20.5060   23.5430 N.3   168  LEU168     -0.1245
    166  CA         7.0230   19.7160   24.7520 C.3   168  LEU168      0.1561
    167  C          6.2880   18.3800   24.6570 C.2   168  LEU168      0.2260
    168  O          6.6510   17.4200   25.3350 O.2   168  LEU168     -0.2867
    169  CB         6.4520   20.5240   25.9120 C.3   168  LEU168      0.0270
    170  CG         7.2990   21.7150   26.3690 C.3   168  LEU168      0.0019
    171  CD1        6.8050   22.1760   27.7160 C.3   168  LEU168      0.0001
    172  CD2        8.7960   21.4370   26.4590 C.3   168  LEU168      0.0001
@<TRIPOS>BOND
     1   158   159    1
     2   158   155    1
     3   159   161   ar
     4   159   160   ar
     5    52    50    1
     6   161   163   ar
     7   160   162   ar
     8   155   156    1
     9   155   154    1
    10   156   157    2
    11   163   164   ar
    12   162   164   ar
    13    48    47    2
    14    61    62    1
    15   154   148   am
    16    50    49    1
    17    50    51    1
    18    46    49    1
    19    46    47    1
    20    46    45    1
    21    64    63    2
    22   138   139    1
    23   141   140    2
    24    47    53   am
    25   165   166    1
    26   109   108    1
    27   149   148    2
    28   136   135    2
    29   148   147    1
    30    63    62    1
    31    62    65    1
    32   140   139    1
    33   140   146   am
    34    56    55    2
    35   133   134    1
    36   139   142    1
    37   167   166    1
    38   167   168    2
    39   166   169    1
    40    53    54    1
    41    55    54    1
    42   135   134    1
    43   146   147    1
    44   127   128    1
    45    65    67    1
    46    65    66    1
    47   147   150    1
    48   108   107    1
    49    54    57    1
    50   134   137    1
    51   107   106    1
    52   150   151    1
    53   142   143    1
    54   169   170    1
    55    92    90   ar
    56    92    93   ar
    57   143   145    1
    58   143   144    1
    59   129   128    1
    60   129   130    2
    61   128   131    1
    62    90    89   ar
    63    66    68    1
    64   170   172    1
    65   170   171    1
    66    93    91   ar
    67    60    58    1
    68   121   122    2
    69   121   120    1
    70    57    58    1
    71   106   103    1
    72   132   131    1
    73    39    38    2
    74    58    59    1
    75    89    91   ar
    76    89    88    1
    77   151   153   ar
    78   151   152   ar
    79   120   123    1
    80   120   119    1
    81    36    37    1
    82    38    37    1
    83    37    40    1
    84    88    85    1
    85   117   116    2
    86   103   104    1
    87   103   102    1
    88   123   124    1
    89   125   124   ar
    90   116   119   am
    91   116   115    1
    92   105   104    2
    93   124   126   ar
    94   104   110   am
    95   102    96   am
    96    40    41    1
    97    41    42    1
    98    85    84    1
    99    85    86    1
   100    84    79   am
   101    82    81    1
   102   114   115    1
   103   114   112   am
   104    87    86    2
   105   110   111    1
   106   118   115    1
   107    86    94   am
   108    96    97    2
   109    96    95    1
   110    83    81    1
   111    42    44   ar
   112    42    43   ar
   113    81    78    1
   114    78    79    1
   115    78    77    1
   116   111   112    1
   117    94    95    1
   118    79    80    2
   119   112   113    2
   120    95    98    1
   121    35    34    1
   122    76    74    1
   123    98    99    1
   124   100    99    1
   125    75    74    1
   126    99   101    1
   127    34    33    1
   128    74    73    1
   129    73    70    1
   130    19    16    1
   131    15    16    1
   132    71    70    1
   133    71    72    2
   134    70    69    1
   135    33    32    1
   136    18    17    2
   137    16    17    1
   138    17    20   am
   139    31    32    1
   140    31    28    1
   141    14    12    1
   142    13    12    1
   143    20    21    1
   144    27    28    1
   145    27    22   am
   146    12     9    1
   147    28    29    1
   148    21    22    1
   149    21    24    1
   150    30    29    2
   151     7     5    1
   152    22    23    2
   153     4     3    2
   154     5     6    1
   155     5     2    1
   156    26    24    1
   157     9     8    1
   158     9    10    1
   159    24    25    1
   160     3     2    1
   161     2     1    1
   162    10    11    2
