@<TRIPOS>MOLECULE
tmp/3s3jA00.pdb
 196 194 0 0 0
SMALL
GASTEIGER

@<TRIPOS>ATOM
      1  N         -7.7850    1.3230  -25.8500 N.3   168  GLN168     -0.1231
      2  CA        -6.7230    1.5950  -24.8880 C.3   168  GLN168      0.1698
      3  C         -7.3100    1.9030  -23.5170 C.2   168  GLN168      0.2592
      4  O         -8.4800    1.6150  -23.2460 O.2   168  GLN168     -0.2718
      5  CB        -5.9040    2.8090  -25.3330 C.3   168  GLN168      0.0381
      6  CG        -5.2180    2.6670  -26.6740 C.3   168  GLN168      0.0905
      7  CD        -4.5630    3.9580  -27.1190 C.2   168  GLN168      0.2608
      8  OE1       -4.9460    5.0330  -26.6720 O.2   168  GLN168     -0.2717
      9  NE2       -3.5690    3.8580  -27.9970 N.am  168  GLN168     -0.0878
     10  N         -6.4840    2.5070  -22.6620 N.am  169  GLY169     -0.1957
     11  CA        -6.9040    2.9360  -21.3420 C.3   169  GLY169      0.1869
     12  C         -6.8270    1.7950  -20.3570 C.2   169  GLY169      0.2309
     13  O         -5.7860    1.1690  -20.2050 O.2   169  GLY169     -0.2863
     14  N        -10.8790    3.4410  -23.4870 N.3   175  LYS175     -0.1245
     15  CA       -10.7220    4.5750  -24.3670 C.3   175  LYS175      0.1561
     16  C        -10.5070    4.1100  -25.8000 C.2   175  LYS175      0.2260
     17  O         -9.8220    3.1230  -26.0560 O.2   175  LYS175     -0.2867
     18  CB        -9.5360    5.4120  -23.9060 C.3   175  LYS175      0.0271
     19  CG        -9.2410    6.6110  -24.7860 C.3   175  LYS175      0.0035
     20  CD        -8.3660    7.5970  -24.0290 C.3   175  LYS175      0.0206
     21  CE        -6.9740    7.0400  -23.8470 C.3   175  LYS175      0.1093
     22  NZ        -6.2690    7.0220  -25.1600 N.3   175  LYS175     -0.1314
     23  N          9.1880    2.5730  -24.4350 N.3   240  TRP240     -0.1241
     24  CA         8.2050    2.7690  -23.3630 C.3   240  TRP240      0.1605
     25  C          8.6920    3.6440  -22.1970 C.2   240  TRP240      0.2264
     26  O          8.0000    3.7530  -21.1790 O.2   240  TRP240     -0.2867
     27  CB         7.7700    1.4240  -22.7810 C.3   240  TRP240      0.0550
     28  CG         6.8860    0.5950  -23.6900 C.ar  240  TRP240      0.0003
     29  CD1        5.5240    0.4720  -23.6330 C.ar  240  TRP240      0.0946
     30  CD2        7.3180   -0.2380  -24.7700 C.ar  240  TRP240      0.0152
     31  NE1        5.0840   -0.3810  -24.6170 N.ar  240  TRP240     -0.2442
     32  CE2        6.1650   -0.8310  -25.3280 C.ar  240  TRP240      0.0810
     33  CE3        8.5710   -0.5370  -25.3210 C.ar  240  TRP240      0.0012
     34  CZ2        6.2250   -1.7050  -26.4050 C.ar  240  TRP240      0.0191
     35  CZ3        8.6300   -1.4060  -26.3980 C.ar  240  TRP240      0.0001
     36  CH2        7.4600   -1.9750  -26.9330 C.ar  240  TRP240      0.0015
     37  N          1.9640    7.7680  -28.9940 N.3   251  MET251     -0.1245
     38  CA         0.6080    8.2660  -28.7730 C.3   251  MET251      0.1570
     39  C          0.1770    9.2650  -29.8260 C.2   251  MET251      0.2261
     40  O         -0.9970    9.6000  -29.9130 O.2   251  MET251     -0.2867
     41  CB         0.4650    8.9180  -27.3920 C.3   251  MET251      0.0387
     42  CG         0.2870    7.9230  -26.2610 C.3   251  MET251      0.0595
     43  SD         1.8760    7.1910  -25.8390 S.3   251  MET251     -0.1393
     44  CE         1.9520    7.5090  -24.0690 C.3   251  MET251      0.0692
     45  N          4.4600    1.6970  -29.8750 N.3   275  GLN275     -0.1231
     46  CA         4.0720    0.7940  -28.7780 C.3   275  GLN275      0.1698
     47  C          3.1120   -0.2890  -29.2990 C.2   275  GLN275      0.2592
     48  O          2.8800   -0.3620  -30.5020 O.2   275  GLN275     -0.2718
     49  CB         3.5200    1.5580  -27.5680 C.3   275  GLN275      0.0381
     50  CG         4.6390    2.1570  -26.7140 C.3   275  GLN275      0.0905
     51  CD         4.1610    2.9030  -25.4750 C.2   275  GLN275      0.2608
     52  OE1        3.0700    2.6560  -24.9530 O.2   275  GLN275     -0.2717
     53  NE2        4.9900    3.8210  -24.9970 N.am  275  GLN275     -0.0878
     54  N          2.5960   -1.1420  -28.4120 N.am  276  CYS276     -0.1956
     55  CA         1.8070   -2.3020  -28.8440 C.3   276  CYS276      0.1843
     56  C          0.7420   -1.9960  -29.8350 C.2   276  CYS276      0.2625
     57  O          0.6690   -2.6490  -30.8830 O.2   276  CYS276     -0.2714
     58  CB         1.2010   -3.0600  -27.6700 C.3   276  CYS276      0.0997
     59  SG         0.0060   -2.2450  -26.6850 S.3   276  CYS276     -0.0797
     60  N         -0.0870   -0.9930  -29.5550 N.am  277  TRP277     -0.1974
     61  CA        -1.1870   -0.7050  -30.4410 C.3   277  TRP277      0.1640
     62  C         -0.6880   -0.2600  -31.7960 C.2   277  TRP277      0.2290
     63  O         -1.3170   -0.5370  -32.8180 O.2   277  TRP277     -0.2864
     64  CB        -2.1390    0.3310  -29.8530 C.3   277  TRP277      0.0576
     65  CG        -1.5790    1.7190  -29.7270 C.ar  277  TRP277      0.0006
     66  CD1       -1.6980    2.7470  -30.6270 C.ar  277  TRP277      0.0946
     67  CD2       -0.8460    2.2470  -28.6100 C.ar  277  TRP277      0.0152
     68  NE1       -1.0740    3.8790  -30.1370 N.ar  277  TRP277     -0.2442
     69  CE2       -0.5540    3.5950  -28.8990 C.ar  277  TRP277      0.0810
     70  CE3       -0.4070    1.7050  -27.3960 C.ar  277  TRP277      0.0012
     71  CZ2        0.1640    4.4000  -28.0290 C.ar  277  TRP277      0.0191
     72  CZ3        0.2990    2.5030  -26.5360 C.ar  277  TRP277      0.0001
     73  CH2        0.5800    3.8420  -26.8560 C.ar  277  TRP277      0.0015
     74  N         -5.7210   -5.7930  -18.3730 N.3   301  ASN301     -0.1225
     75  CA        -5.3240   -6.4430  -17.1250 C.3   301  ASN301      0.1785
     76  C         -5.5140   -5.4570  -15.9790 C.2   301  ASN301      0.2598
     77  O         -5.6190   -4.2440  -16.2090 O.2   301  ASN301     -0.2718
     78  CB        -3.8710   -6.9190  -17.1980 C.3   301  ASN301      0.1169
     79  CG        -3.5930   -7.7590  -18.4340 C.2   301  ASN301      0.2627
     80  OD1       -4.3870   -8.6250  -18.8010 O.2   301  ASN301     -0.2716
     81  ND2       -2.4660   -7.4970  -19.0900 N.am  301  ASN301     -0.0877
     82  N         -5.5800   -5.9610  -14.7510 N.am  302  SER302     -0.1938
     83  CA        -5.7150   -5.0700  -13.5980 C.3   302  SER302      0.2055
     84  C         -5.0530   -5.6150  -12.3230 C.2   302  SER302      0.2642
     85  O         -4.7250   -6.8050  -12.2340 O.2   302  SER302     -0.2714
     86  CB        -7.1870   -4.7270  -13.3460 C.3   302  SER302      0.2130
     87  OG        -7.9040   -5.8790  -12.9540 O.3   302  SER302     -0.2179
     88  N         -4.8700   -4.7280  -11.3450 N.am  303  ALA303     -0.1977
     89  CA        -4.2000   -5.0660  -10.0910 C.3   303  ALA303      0.1597
     90  C         -4.6780   -4.2100   -8.9060 C.2   303  ALA303      0.2287
     91  O         -5.3130   -3.1710   -9.0960 O.2   303  ALA303     -0.2864
     92  CB        -2.7050   -4.9380  -10.2600 C.3   303  ALA303      0.0319
     93  N          3.7690   -6.2040   -7.8040 N.3   308  ILE308     -0.1245
     94  CA         3.8940   -4.8680   -8.3560 C.3   308  ILE308      0.1561
     95  C          5.3580   -4.4790   -8.4620 C.2   308  ILE308      0.2260
     96  O          5.8410   -4.1000   -9.5290 O.2   308  ILE308     -0.2867
     97  CB         3.1650   -3.8530   -7.4580 C.3   308  ILE308      0.0252
     98  CG1        1.9540   -4.5160   -6.7800 C.3   308  ILE308      0.0019
     99  CG2        2.7740   -2.6050   -8.2520 C.3   308  ILE308      0.0019
    100  CD1        0.9140   -5.0660   -7.7400 C.3   308  ILE308      0.0001
    101  N          7.5310   -6.0320  -11.1420 N.3   311  PHE311     -0.1227
    102  CA         7.3390   -5.4540  -12.4780 C.3   311  PHE311      0.1736
    103  C          7.9080   -4.0500  -12.6740 C.2   311  PHE311      0.2595
    104  O          8.4660   -3.7450  -13.7390 O.2   311  PHE311     -0.2718
    105  CB         5.8650   -5.4380  -12.8560 C.3   311  PHE311      0.0547
    106  CG         5.3640   -6.7510  -13.3360 C.ar  311  PHE311     -0.0202
    107  CD1        4.4150   -7.4510  -12.6110 C.ar  311  PHE311     -0.0042
    108  CD2        5.8540   -7.2980  -14.5120 C.ar  311  PHE311     -0.0042
    109  CE1        3.9570   -8.6670  -13.0500 C.ar  311  PHE311     -0.0003
    110  CE2        5.3980   -8.5190  -14.9620 C.ar  311  PHE311     -0.0003
    111  CZ         4.4450   -9.2040  -14.2280 C.ar  311  PHE311     -0.0000
    112  N          7.7340   -3.1900  -11.6700 N.am  312  ARG312     -0.1980
    113  CA         8.2670   -1.8330  -11.7330 C.3   312  ARG312      0.1597
    114  C          9.7410   -1.8970  -12.1050 C.2   312  ARG312      0.2287
    115  O         10.1240   -1.4970  -13.2050 O.2   312  ARG312     -0.2864
    116  CB         8.0720   -1.1120  -10.4040 C.3   312  ARG312      0.0334
    117  CG         8.5060    0.3700  -10.5930 C.3   312  ARG312      0.0492
    118  CD         7.9960    1.2180   -9.4440 C.3   312  ARG312      0.2205
    119  NE         8.5810    0.7280   -8.2020 N.pl3 312  ARG312     -0.0865
    120  CZ         7.9920   -0.0470   -7.3050 C.cat 312  ARG312      0.5346
    121  NH1        6.7040   -0.4050   -7.4200 N.pl3 312  ARG312      0.1354
    122  NH2        8.6980   -0.5700   -6.3040 N.pl3 312  ARG312      0.1354
    123  N          6.4730   -9.1990  -20.0870 N.3   316  MET316     -0.1230
    124  CA         5.9550   -8.5920  -18.8770 C.3   316  MET316      0.1702
    125  C          4.4710   -8.2630  -19.0480 C.2   316  MET316      0.2592
    126  O          3.8810   -8.5690  -20.0900 O.2   316  MET316     -0.2718
    127  CB         6.7490   -7.3390  -18.5440 C.3   316  MET316      0.0401
    128  CG         6.3300   -6.1140  -19.3150 C.3   316  MET316      0.0596
    129  SD         5.6220   -4.9120  -18.1710 S.3   316  MET316     -0.1393
    130  CE         6.7730   -5.0490  -16.8020 C.3   316  MET316      0.0692
    131  N          3.8760   -7.6500  -18.0240 N.am  317  ILE317     -0.1966
    132  CA         2.4320   -7.4030  -17.9970 C.3   317  ILE317      0.1727
    133  C          2.0500   -5.9180  -17.9250 C.2   317  ILE317      0.2616
    134  O          2.4660   -5.2010  -17.0170 O.2   317  ILE317     -0.2715
    135  CB         1.7720   -8.1530  -16.8380 C.3   317  ILE317      0.0290
    136  CG1        2.0790   -9.6480  -16.9390 C.3   317  ILE317      0.0022
    137  CG2        0.2750   -7.8910  -16.8240 C.3   317  ILE317      0.0023
    138  CD1        1.5100  -10.4740  -15.8100 C.3   317  ILE317      0.0001
    139  N          1.2530   -5.4720  -18.8890 N.am  318  TRP318     -0.1960
    140  CA         0.8710   -4.0690  -18.9910 C.3   318  TRP318      0.1771
    141  C         -0.5610   -3.8920  -18.5520 C.2   318  TRP318      0.2620
    142  O         -1.2900   -4.8680  -18.3580 O.2   318  TRP318     -0.2715
    143  CB         0.9220   -3.5810  -20.4360 C.3   318  TRP318      0.0590
    144  CG         2.1530   -3.8870  -21.2110 C.ar  318  TRP318      0.0006
    145  CD1        2.2960   -4.8410  -22.1810 C.ar  318  TRP318      0.0946
    146  CD2        3.4000   -3.2000  -21.1370 C.ar  318  TRP318      0.0152
    147  NE1        3.5660   -4.8010  -22.7010 N.ar  318  TRP318     -0.2442
    148  CE2        4.2640   -3.8000  -22.0740 C.ar  318  TRP318      0.0810
    149  CE3        3.8720   -2.1360  -20.3680 C.ar  318  TRP318      0.0012
    150  CZ2        5.5700   -3.3710  -22.2560 C.ar  318  TRP318      0.0191
    151  CZ3        5.1670   -1.7230  -20.5370 C.ar  318  TRP318      0.0001
    152  CH2        6.0040   -2.3320  -21.4760 C.ar  318  TRP318      0.0015
    153  N         -0.9780   -2.6380  -18.4380 N.am  319  ASN319     -0.1958
    154  CA        -2.3770   -2.3430  -18.1560 C.3   319  ASN319      0.1819
    155  C         -3.2610   -2.8810  -19.2850 C.2   319  ASN319      0.2621
    156  O         -4.3300   -3.4400  -19.0420 O.2   319  ASN319     -0.2715
    157  CB        -2.5900   -0.8430  -17.9470 C.3   319  ASN319      0.1195
    158  CG        -1.8010   -0.0040  -18.9240 C.2   319  ASN319      0.2630
    159  OD1       -0.6980   -0.3830  -19.3170 O.2   319  ASN319     -0.2716
    160  ND2       -2.3570    1.1470  -19.3260 N.am  319  ASN319     -0.0877
    161  N         -2.7990   -2.7140  -20.5180 N.am  320  PHE320     -0.1960
    162  CA        -3.4660   -3.3140  -21.6660 C.3   320  PHE320      0.1771
    163  C         -2.4250   -3.8000  -22.6610 C.2   320  PHE320      0.2619
    164  O         -1.3010   -3.3090  -22.6670 O.2   320  PHE320     -0.2715
    165  CB        -4.4580   -2.3440  -22.3320 C.3   320  PHE320      0.0574
    166  CG        -3.8100   -1.1550  -23.0280 C.ar  320  PHE320     -0.0200
    167  CD1       -3.3910   -1.2420  -24.3450 C.ar  320  PHE320     -0.0042
    168  CD2       -3.6570    0.0620  -22.3650 C.ar  320  PHE320     -0.0042
    169  CE1       -2.8180   -0.1520  -24.9920 C.ar  320  PHE320     -0.0003
    170  CE2       -3.0790    1.1590  -23.0000 C.ar  320  PHE320     -0.0003
    171  CZ        -2.6650    1.0540  -24.3150 C.ar  320  PHE320     -0.0000
    172  N         -2.7970   -4.7980  -23.4580 N.am  321  HIS321     -0.1973
    173  CA        -1.9790   -5.2620  -24.5650 C.3   321  HIS321      0.1656
    174  C         -2.8260   -5.4280  -25.8420 C.2   321  HIS321      0.2291
    175  O         -3.9790   -5.8460  -25.7730 O.2   321  HIS321     -0.2864
    176  CB        -1.2680   -6.5690  -24.2080 C.3   321  HIS321      0.0771
    177  CG        -0.3000   -7.0130  -25.2570 C.ar  321  HIS321      0.0820
    178  ND1        0.3870   -6.1190  -26.0530 N.ar  321  HIS321     -0.2267
    179  CD2        0.0700   -8.2460  -25.6730 C.ar  321  HIS321      0.1154
    180  CE1        1.1500   -6.7840  -26.9020 C.ar  321  HIS321      0.1986
    181  NE2        0.9780   -8.0750  -26.6900 N.ar  321  HIS321     -0.2212
    182  N          4.1720   -7.4640  -31.4230 N.3   346  THR346     -0.1218
    183  CA         4.8500   -6.6970  -30.3880 C.3   346  THR346      0.1862
    184  C          6.0520   -7.4870  -29.8640 C.2   346  THR346      0.2287
    185  O          5.9430   -8.6950  -29.5870 O.2   346  THR346     -0.2866
    186  CB         3.9050   -6.2880  -29.2330 C.3   346  THR346      0.1770
    187  OG1        2.9550   -5.3210  -29.7090 O.3   346  THR346     -0.2211
    188  CG2        4.6990   -5.6840  -28.0600 C.3   346  THR346      0.0375
    189  N         -4.0090   -9.8160   -8.7730 N.3   394  LEU394     -0.1245
    190  CA        -3.6910   -9.7140  -10.1940 C.3   394  LEU394      0.1561
    191  C         -4.7240  -10.4360  -11.0480 C.2   394  LEU394      0.2260
    192  O         -5.0890  -11.5910  -10.7830 O.2   394  LEU394     -0.2867
    193  CB        -2.2870  -10.2410  -10.5000 C.3   394  LEU394      0.0270
    194  CG        -1.8370  -10.1290  -11.9660 C.3   394  LEU394      0.0019
    195  CD1       -1.6450   -8.6780  -12.4060 C.3   394  LEU394      0.0001
    196  CD2       -0.5600  -10.9260  -12.1950 C.3   394  LEU394      0.0001
@<TRIPOS>BOND
     1    63    62    2
     2    62    61    1
     3   182   183    1
     4    57    56    2
     5    66    68   ar
     6    66    65   ar
     7    48    47    2
     8    61    64    1
     9    61    60    1
    10   183   184    1
    11   183   186    1
    12    68    69   ar
    13    40    39    2
    14    45    46    1
    15   184   185    2
    16    64    65    1
    17    56    60   am
    18    56    55    1
    19    39    38    1
    20    65    67   ar
    21   187   186    1
    22    47    46    1
    23    47    54   am
    24   186   188    1
    25    37    38    1
    26    69    67   ar
    27    69    71   ar
    28    55    54    1
    29    55    58    1
    30    46    49    1
    31    38    41    1
    32    67    70   ar
    33    71    73   ar
    34     9     7   am
    35    58    59    1
    36    49    50    1
    37    70    72   ar
    38    41    42    1
    39     7     6    1
    40     7     8    2
    41    36    34   ar
    42    36    35   ar
    43   180   181   ar
    44   180   178   ar
    45    73    72   ar
    46    50    51    1
    47   181   179   ar
    48     6     5    1
    49    34    32   ar
    50    35    33   ar
    51    42    43    1
    52    17    16    2
    53   178   177   ar
    54     1     2    1
    55   174   175    2
    56   174   173    1
    57    43    44    1
    58    16    15    1
    59   179   177   ar
    60    51    53   am
    61    51    52    2
    62     5     2    1
    63    32    30   ar
    64    32    31   ar
    65    33    30   ar
    66   177   176    1
    67    22    21    1
    68   169   167   ar
    69   169   171   ar
    70     2     3    1
    71    19    20    1
    72    19    18    1
    73    30    28   ar
    74    31    29   ar
    75   173   176    1
    76   173   172    1
    77    23    24    1
    78    15    18    1
    79    15    14    1
    80   167   166   ar
    81   171   170   ar
    82    20    21    1
    83    28    29   ar
    84    28    27    1
    85     3     4    2
    86     3    10   am
    87   172   163   am
    88    24    27    1
    89    24    25    1
    90   166   168   ar
    91   166   165    1
    92   170   168   ar
    93   147   145   ar
    94   147   148   ar
    95   164   163    2
    96    10    11    1
    97   163   162    1
    98   165   162    1
    99   150   148   ar
   100   150   152   ar
   101    25    26    2
   102   145   144   ar
   103   148   146   ar
   104   162   161    1
   105   152   151   ar
   106    11    12    1
   107   144   146   ar
   108   144   143    1
   109   146   149   ar
   110   151   149   ar
   111   161   155   am
   112   143   140    1
   113    12    13    2
   114   126   125    2
   115   123   124    1
   116   160   158   am
   117   159   158    2
   118   128   127    1
   119   128   129    1
   120   155   156    2
   121   155   154    1
   122    81    79   am
   123   125   124    1
   124   125   131   am
   125   140   139    1
   126   140   141    1
   127   158   157    1
   128   139   133   am
   129   124   127    1
   130    80    79    2
   131   141   153   am
   132   141   142    2
   133   153   154    1
   134    79    78    1
   135    74    75    1
   136   129   130    1
   137   154   157    1
   138   131   132    1
   139   132   133    1
   140   132   135    1
   141   133   134    2
   142    78    75    1
   143    75    76    1
   144   136   135    1
   145   136   138    1
   146   135   137    1
   147    77    76    2
   148    76    82   am
   149   110   108   ar
   150   110   111   ar
   151    82    83    1
   152   108   106   ar
   153   111   109   ar
   154   104   103    2
   155    83    86    1
   156    83    84    1
   157    86    87    1
   158   106   105    1
   159   106   107   ar
   160   115   114    2
   161   109   107   ar
   162   105   102    1
   163   103   102    1
   164   103   112   am
   165   102   101    1
   166   195   194    1
   167    84    85    2
   168    84    88   am
   169   196   194    1
   170   114   113    1
   171   194   193    1
   172   113   112    1
   173   113   116    1
   174    88    89    1
   175   191   192    2
   176   191   190    1
   177   117   116    1
   178   117   118    1
   179   193   190    1
   180    92    89    1
   181   190   189    1
   182    89    90    1
   183    96    95    2
   184   118   119    1
   185    91    90    2
   186    95    94    1
   187    94    93    1
   188    94    97    1
   189    99    97    1
   190   119   120    2
   191   100    98    1
   192    97    98    1
   193   121   120    1
   194   120   122    1
