@<TRIPOS>MOLECULE
tmp/3s3kB00.pdb
 89 82 0 0 0
SMALL
GASTEIGER

@<TRIPOS>ATOM
      1  N        -17.5450   24.3050    7.1890 N.3    56  PHE56      -0.1241
      2  CA       -17.3480   22.8970    6.8410 C.3    56  PHE56       0.1605
      3  C        -16.4810   22.1640    7.8660 C.2    56  PHE56       0.2264
      4  O        -15.4650   22.6870    8.3300 O.2    56  PHE56      -0.2867
      5  CB       -16.7590   22.7610    5.4380 C.3    56  PHE56       0.0534
      6  CG       -17.6820   23.2130    4.3540 C.ar   56  PHE56      -0.0203
      7  CD1      -18.5460   22.3120    3.7400 C.ar   56  PHE56      -0.0042
      8  CD2      -17.7000   24.5380    3.9480 C.ar   56  PHE56      -0.0042
      9  CE1      -19.4090   22.7220    2.7380 C.ar   56  PHE56      -0.0003
     10  CE2      -18.5580   24.9650    2.9470 C.ar   56  PHE56      -0.0003
     11  CZ       -19.4130   24.0570    2.3400 C.ar   56  PHE56      -0.0000
     12  N        -14.7500   19.6450    7.3610 N.3    58  ASN58      -0.1225
     13  CA       -13.5610   19.1100    6.7210 C.3    58  ASN58       0.1785
     14  C        -12.7970   20.1900    5.9790 C.2    58  ASN58       0.2597
     15  O        -11.9820   19.8980    5.1130 O.2    58  ASN58      -0.2718
     16  CB       -13.9170   17.9370    5.7960 C.3    58  ASN58       0.1169
     17  CG       -14.4970   18.3880    4.4700 C.2    58  ASN58       0.2627
     18  OD1      -13.8570   18.2390    3.4290 O.2    58  ASN58      -0.2716
     19  ND2      -15.7050   18.9560    4.5000 N.am   58  ASN58      -0.0877
     20  N        -13.0760   21.4400    6.3240 N.am   59  ILE59      -0.1980
     21  CA       -12.2930   22.5720    5.8480 C.3    59  ILE59       0.1595
     22  C        -11.9300   23.4240    7.0660 C.2    59  ILE59       0.2287
     23  O        -12.6580   24.3480    7.4520 O.2    59  ILE59      -0.2864
     24  CB       -13.0400   23.3890    4.7500 C.3    59  ILE59       0.0276
     25  CG1      -13.2430   22.5550    3.4730 C.3    59  ILE59       0.0022
     26  CG2      -12.3290   24.7090    4.4480 C.3    59  ILE59       0.0022
     27  CD1      -11.9960   22.3200    2.6420 C.3    59  ILE59       0.0001
     28  N        -24.7620   29.7890    0.3300 N.3   134  LYS134     -0.1245
     29  CA       -23.3190   29.6900    0.1470 C.3   134  LYS134      0.1561
     30  C        -22.5430   30.7080    0.9730 C.2   134  LYS134      0.2260
     31  O        -21.3370   30.5530    1.1910 O.2   134  LYS134     -0.2867
     32  CB       -22.9670   29.8610   -1.3270 C.3   134  LYS134      0.0271
     33  CG       -23.4610   28.7500   -2.2280 C.3   134  LYS134      0.0035
     34  CD       -22.4990   27.5750   -2.2420 C.3   134  LYS134      0.0206
     35  CE       -23.0200   26.4630   -3.1420 C.3   134  LYS134      0.1093
     36  NZ       -22.1320   25.2570   -3.1040 N.3   134  LYS134     -0.1314
     37  N        -14.9960   32.3530   -1.0050 N.3   222  CYS222     -0.1176
     38  CA       -16.2410   31.9740   -1.6140 C.3   222  CYS222      0.1981
     39  C        -17.1030   31.3370   -0.5730 C.2   222  CYS222      0.2641
     40  O        -17.5670   32.0080    0.2680 O.2   222  CYS222     -0.2714
     41  CB       -16.0700   31.0730   -2.7880 C.2   222  CYS222      0.0439
     42  SG       -14.8310   30.0370   -2.7380 S.2   222  CYS222     -0.0531
     43  N        -17.3160   30.0480   -0.6000 N.am  223  SER223     -0.1935
     44  CA       -18.0430   29.3930    0.4640 C.3   223  SER223      0.2055
     45  C        -17.0850   28.6400    1.3200 C.2   223  SER223      0.2642
     46  O        -16.8290   29.0030    2.3980 O.2   223  SER223     -0.2714
     47  CB       -19.0650   28.4340   -0.0660 C.3   223  SER223      0.2130
     48  OG       -20.2720   28.6330    0.5980 O.3   223  SER223     -0.2179
     49  N        -16.5330   27.5700    0.8440 N.am  224  ALA224     -0.1977
     50  CA       -15.6580   26.8210    1.6590 C.3   224  ALA224      0.1597
     51  C        -14.4140   27.5840    1.8080 C.2   224  ALA224      0.2287
     52  O        -13.7170   27.4240    2.7740 O.2   224  ALA224     -0.2864
     53  CB       -15.3690   25.5900    1.0170 C.3   224  ALA224      0.0319
     54  N        -11.9770   27.6110   -0.6780 N.3   226  VAL226     -0.1245
     55  CA       -10.9680   26.8130   -1.3630 C.3   226  VAL226      0.1561
     56  C        -11.6300   26.5340   -2.7060 C.2   226  VAL226      0.2260
     57  O        -12.8620   26.5830   -2.8180 O.2   226  VAL226     -0.2867
     58  CB       -10.6530   25.4630   -0.6270 C.3   226  VAL226      0.0252
     59  CG1      -10.5800   25.6360    0.9030 C.3   226  VAL226      0.0019
     60  CG2      -11.6770   24.3720   -0.9750 C.3   226  VAL226      0.0019
     61  N        -12.7970   27.8320   -5.7420 N.3   228  ARG228     -0.1245
     62  CA       -12.9550   29.0840   -6.4800 C.3   228  ARG228      0.1563
     63  C        -11.8700   30.0580   -6.0470 C.2   228  ARG228      0.2260
     64  O        -11.1930   30.6390   -6.8900 O.2   228  ARG228     -0.2867
     65  CB       -14.3420   29.6850   -6.2810 C.3   228  ARG228      0.0307
     66  CG       -15.4180   29.0250   -7.1010 C.3   228  ARG228      0.0489
     67  CD       -16.7720   29.5450   -6.7230 C.3   228  ARG228      0.2205
     68  NE       -17.8110   28.9790   -7.5660 N.pl3 228  ARG228     -0.0865
     69  CZ       -19.1110   29.0900   -7.3280 C.cat 228  ARG228      0.5346
     70  NH1      -19.9800   28.5350   -8.1550 N.pl3 228  ARG228      0.1354
     71  NH2      -19.5410   29.7500   -6.2630 N.pl3 228  ARG228      0.1354
     72  N        -10.0290   22.9110   -5.6660 N.3   266  GLN266     -0.1245
     73  CA       -10.7930   21.7880   -5.1270 C.3   266  GLN266      0.1566
     74  C        -11.0870   20.6830   -6.1320 C.2   266  GLN266      0.2260
     75  O        -11.1170   19.5040   -5.7680 O.2   266  GLN266     -0.2867
     76  CB       -12.0980   22.2980   -4.5020 C.3   266  GLN266      0.0367
     77  CG       -12.9790   21.2220   -3.8890 C.3   266  GLN266      0.0905
     78  CD       -13.8770   21.7680   -2.8020 C.2   266  GLN266      0.2608
     79  OE1      -14.2120   22.9640   -2.7870 O.2   266  GLN266     -0.2717
     80  NE2      -14.2740   20.8980   -1.8740 N.am  266  GLN266     -0.0878
     81  N        -11.8370   22.5760  -12.1550 N.3   270  GLN270     -0.1245
     82  CA       -11.2560   23.8820  -11.8530 C.3   270  GLN270      0.1566
     83  C         -9.7900   23.9200  -12.2520 C.2   270  GLN270      0.2260
     84  O         -9.2910   24.9520  -12.7160 O.2   270  GLN270     -0.2867
     85  CB       -11.3490   24.1920  -10.3610 C.3   270  GLN270      0.0367
     86  CG       -12.5790   24.9470   -9.9040 C.3   270  GLN270      0.0905
     87  CD       -12.8680   24.7380   -8.4250 C.2   270  GLN270      0.2608
     88  OE1      -13.9810   24.9760   -7.9640 O.2   270  GLN270     -0.2717
     89  NE2      -11.8710   24.2710   -7.6820 N.am  270  GLN270     -0.0878
@<TRIPOS>BOND
     1    84    83    2
     2    83    82    1
     3    81    82    1
     4    82    85    1
     5    85    86    1
     6    86    87    1
     7    87    88    2
     8    87    89   am
     9    70    69    1
    10    68    69    2
    11    68    67    1
    12    69    71    1
    13    66    67    1
    14    66    65    1
    15    64    63    2
    16    62    65    1
    17    62    63    1
    18    62    61    1
    19    74    75    2
    20    74    73    1
    21    72    73    1
    22    73    76    1
    23    76    77    1
    24    77    78    1
    25    35    36    1
    26    35    34    1
    27    57    56    2
    28    78    79    2
    29    78    80   am
    30    41    42    2
    31    41    38    1
    32    56    55    1
    33    34    33    1
    34    33    32    1
    35    38    37    1
    36    38    39    1
    37    55    54    1
    38    55    58    1
    39    32    29    1
    40    60    58    1
    41    58    59    1
    42    43    39   am
    43    43    44    1
    44    39    40    2
    45    47    44    1
    46    47    48    1
    47    29    28    1
    48    29    30    1
    49    44    45    1
    50    49    45   am
    51    49    50    1
    52    30    31    2
    53    53    50    1
    54    45    46    2
    55    50    51    1
    56    51    52    2
    57    11     9   ar
    58    11    10   ar
    59    27    25    1
    60     9     7   ar
    61    10     8   ar
    62    18    17    2
    63    25    24    1
    64     7     6   ar
    65     8     6   ar
    66     6     5    1
    67    26    24    1
    68    17    19   am
    69    17    16    1
    70    24    21    1
    71    15    14    2
    72     5     2    1
    73    16    13    1
    74    21    20    1
    75    21    22    1
    76    14    20   am
    77    14    13    1
    78    13    12    1
    79     2     1    1
    80     2     3    1
    81    22    23    2
    82     3     4    2
