@<TRIPOS>MOLECULE
tmp/3s3nA00.pdb
 98 94 0 0 0
SMALL
GASTEIGER

@<TRIPOS>ATOM
      1  N        -35.8360   32.3400  -10.3520 N.3   121  ASP121     -0.1225
      2  CA       -35.5090   32.0060  -11.7140 C.3   121  ASP121      0.1805
      3  C        -34.0140   32.0320  -11.8250 C.2   121  ASP121      0.2597
      4  O        -33.3330   32.6140  -10.9710 O.2   121  ASP121     -0.2718
      5  CB       -36.0910   33.0630  -12.6540 C.3   121  ASP121      0.1424
      6  CG       -35.9700   32.6720  -14.0870 C.2   121  ASP121      0.3668
      7  OD1      -36.1220   31.4630  -14.3850 O.co2 121  ASP121     -0.2456
      8  OD2      -35.7290   33.5750  -14.9120 O.co2 121  ASP121     -0.2456
      9  N        -33.5140   31.4030  -12.8780 N.am  122  TYR122     -0.1976
     10  CA       -32.0910   31.4010  -13.1990 C.3   122  TYR122      0.1639
     11  C        -31.7880   32.2990  -14.3750 C.2   122  TYR122      0.2290
     12  O        -32.6030   32.4470  -15.2770 O.2   122  TYR122     -0.2864
     13  CB       -31.6240   29.9910  -13.5140 C.3   122  TYR122      0.0560
     14  CG       -31.2350   29.2210  -12.2800 C.ar  122  TYR122     -0.0198
     15  CD1      -32.1430   28.3440  -11.6640 C.ar  122  TYR122     -0.0009
     16  CD2      -29.9590   29.3690  -11.7100 C.ar  122  TYR122     -0.0009
     17  CE1      -31.8000   27.6130  -10.5370 C.ar  122  TYR122      0.0417
     18  CE2      -29.5980   28.6440  -10.5610 C.ar  122  TYR122      0.0417
     19  CZ       -30.5310   27.7580   -9.9780 C.ar  122  TYR122      0.1957
     20  OH       -30.2070   27.0560   -8.8220 O.3   122  TYR122     -0.2866
     21  N        -41.0820   29.4460  -12.8530 N.3   178  ASP178     -0.1225
     22  CA       -41.3860   28.7960  -14.1300 C.3   178  ASP178      0.1805
     23  C        -41.1780   27.3260  -13.9710 C.2   178  ASP178      0.2598
     24  O        -40.7840   26.8760  -12.8910 O.2   178  ASP178     -0.2718
     25  CB       -40.5270   29.3360  -15.2940 C.3   178  ASP178      0.1424
     26  CG       -39.0180   29.0810  -15.1320 C.2   178  ASP178      0.3668
     27  OD1      -38.2280   29.8620  -15.7010 O.co2 178  ASP178     -0.2456
     28  OD2      -38.6020   28.1170  -14.4660 O.co2 178  ASP178     -0.2456
     29  N        -41.3980   26.5740  -15.0440 N.am  179  GLN179     -0.1965
     30  CA       -41.3160   25.1220  -14.9700 C.3   179  GLN179      0.1733
     31  C        -39.9430   24.5670  -15.3050 C.2   179  GLN179      0.2617
     32  O        -39.8190   23.4490  -15.8000 O.2   179  GLN179     -0.2715
     33  CB       -42.4530   24.4740  -15.7520 C.3   179  GLN179      0.0408
     34  CG       -43.7710   24.5950  -14.9500 C.3   179  GLN179      0.0908
     35  CD       -45.0090   24.1340  -15.6790 C.2   179  GLN179      0.2608
     36  OE1      -45.0480   23.0440  -16.2940 O.2   179  GLN179     -0.2717
     37  NE2      -46.0560   24.9590  -15.6050 N.am  179  GLN179     -0.0878
     38  N        -38.9000   25.3260  -14.9900 N.am  180  GLY180     -0.1940
     39  CA       -37.5470   24.7920  -15.0940 C.3   180  GLY180      0.2014
     40  C        -37.3800   23.5070  -14.2900 C.2   180  GLY180      0.2638
     41  O        -38.0190   23.3300  -13.2370 O.2   180  GLY180     -0.2714
     42  N        -36.5180   22.6030  -14.7620 N.am  181  ALA181     -0.1977
     43  CA       -36.3170   21.3050  -14.0820 C.3   181  ALA181      0.1597
     44  C        -35.9420   21.4460  -12.5850 C.2   181  ALA181      0.2287
     45  O        -36.3560   20.6310  -11.7720 O.2   181  ALA181     -0.2864
     46  CB       -35.2970   20.4240  -14.8450 C.3   181  ALA181      0.0319
     47  N        -44.1630   28.1580  -20.3930 N.3   205  TYR205     -0.1241
     48  CA       -43.6210   29.0550  -21.4140 C.3   205  TYR205      0.1605
     49  C        -44.2910   30.4370  -21.4250 C.2   205  TYR205      0.2264
     50  O        -44.7210   30.9250  -22.4780 O.2   205  TYR205     -0.2867
     51  CB       -43.6870   28.3840  -22.7930 C.3   205  TYR205      0.0534
     52  CG       -42.8830   27.0990  -22.8650 C.ar  205  TYR205     -0.0201
     53  CD1      -41.5020   27.1340  -23.0790 C.ar  205  TYR205     -0.0009
     54  CD2      -43.4950   25.8610  -22.7180 C.ar  205  TYR205     -0.0009
     55  CE1      -40.7530   25.9750  -23.1520 C.ar  205  TYR205      0.0417
     56  CE2      -42.7590   24.6880  -22.7860 C.ar  205  TYR205      0.0417
     57  CZ       -41.3780   24.7530  -23.0020 C.ar  205  TYR205      0.1957
     58  OH       -40.6120   23.5930  -23.0850 O.3   205  TYR205     -0.2866
     59  N        -43.1400   33.6460  -19.3680 N.3   207  PRO207     -0.2102
     60  CA       -42.3740   34.3230  -18.3450 C.3   207  PRO207      0.1504
     61  C        -43.0060   35.6170  -17.8060 C.2   207  PRO207      0.2575
     62  O        -42.6190   36.0540  -16.7280 O.2   207  PRO207     -0.2718
     63  CB       -41.0190   34.5560  -19.0140 C.3   207  PRO207      0.0282
     64  CG       -41.2490   34.3260  -20.4450 C.3   207  PRO207      0.0208
     65  CD       -42.3320   33.3610  -20.5620 C.3   207  PRO207      0.0893
     66  N        -43.9500   36.2090  -18.5310 N.am  208  GLN208     -0.1980
     67  CA       -44.7280   37.3180  -18.0080 C.3   208  GLN208      0.1601
     68  C        -45.3600   36.9720  -16.6400 C.2   208  GLN208      0.2287
     69  O        -45.5090   37.8510  -15.7570 O.2   208  GLN208     -0.2864
     70  CB       -45.8230   37.7120  -19.0080 C.3   208  GLN208      0.0394
     71  CG       -45.3170   38.0550  -20.4210 C.3   208  GLN208      0.0908
     72  CD       -45.2250   36.8550  -21.3550 C.2   208  GLN208      0.2608
     73  OE1      -44.3970   35.9590  -21.1880 O.2   208  GLN208     -0.2717
     74  NE2      -46.0770   36.8500  -22.3610 N.am  208  GLN208     -0.0878
     75  N        -43.1720   38.0100  -14.1460 N.3   211  GLY211     -0.1225
     76  CA       -42.5010   39.1740  -14.7080 C.3   211  GLY211      0.1811
     77  C        -41.6300   39.9690  -13.7560 C.2   211  GLY211      0.2280
     78  O        -40.6310   40.5640  -14.1790 O.2   211  GLY211     -0.2866
     79  N        -38.0840   38.1440  -13.9140 N.3   214  GLU214     -0.1245
     80  CA       -37.5980   38.2720  -15.2710 C.3   214  GLU214      0.1567
     81  C        -37.0930   39.6780  -15.4140 C.2   214  GLU214      0.2260
     82  O        -35.9390   39.8870  -15.8430 O.2   214  GLU214     -0.2867
     83  CB       -38.6830   37.9460  -16.3090 C.3   214  GLU214      0.0388
     84  CG       -39.0880   36.4490  -16.3530 C.3   214  GLU214      0.1160
     85  CD       -37.8920   35.4960  -16.4770 C.2   214  GLU214      0.3649
     86  OE1      -36.7770   35.9380  -16.7750 O.co2 214  GLU214     -0.2457
     87  OE2      -38.0370   34.2730  -16.2810 O.co2 214  GLU214     -0.2457
     88  N        -41.3480   23.9770  -28.7370 N.3   322  ARG322     -0.1245
     89  CA       -40.0890   24.0060  -29.4140 C.3   322  ARG322      0.1563
     90  C        -40.1960   23.2800  -30.7690 C.2   322  ARG322      0.2260
     91  O        -39.6640   22.1780  -30.9510 O.2   322  ARG322     -0.2867
     92  CB       -38.9750   23.5200  -28.4660 C.3   322  ARG322      0.0307
     93  CG       -38.4140   24.6810  -27.5340 C.3   322  ARG322      0.0489
     94  CD       -37.7910   24.1900  -26.1960 C.3   322  ARG322      0.2205
     95  NE       -36.8570   25.1790  -25.6020 N.pl3 322  ARG322     -0.0865
     96  CZ       -36.6480   25.3890  -24.2820 C.cat 322  ARG322      0.5346
     97  NH1      -37.3180   24.7010  -23.3410 N.pl3 322  ARG322      0.1354
     98  NH2      -35.7550   26.3070  -23.8970 N.pl3 322  ARG322      0.1354
@<TRIPOS>BOND
     1    91    90    2
     2    90    89    1
     3    89    88    1
     4    89    92    1
     5    92    93    1
     6    93    94    1
     7    94    95    1
     8    95    96    2
     9    96    98    1
    10    96    97    1
    11    55    53   ar
    12    55    57   ar
    13    58    57    1
    14    53    52   ar
    15    57    56   ar
    16    52    51    1
    17    52    54   ar
    18    51    48    1
    19    56    54   ar
    20    50    49    2
    21    74    72   am
    22    49    48    1
    23    48    47    1
    24    72    73    2
    25    72    71    1
    26    65    64    1
    27    65    59    1
    28    64    63    1
    29    71    70    1
    30    59    60    1
    31    63    60    1
    32    70    67    1
    33    66    67    1
    34    66    61   am
    35    60    61    1
    36    67    68    1
    37    61    62    2
    38    86    85   ar
    39    68    69    2
    40    85    84    1
    41    85    87   ar
    42    84    83    1
    43    83    80    1
    44    36    35    2
    45    82    81    2
    46    32    31    2
    47    33    30    1
    48    33    34    1
    49    27    26   ar
    50    35    37   am
    51    35    34    1
    52    81    80    1
    53    31    38   am
    54    31    30    1
    55    25    26    1
    56    25    22    1
    57    12    11    2
    58    80    79    1
    59    26    28   ar
    60    39    38    1
    61    39    40    1
    62    29    30    1
    63    29    23   am
    64     8     6   ar
    65    46    43    1
    66    42    40   am
    67    42    43    1
    68    76    75    1
    69    76    77    1
    70     7     6   ar
    71    11    10    1
    72    40    41    2
    73    78    77    2
    74    22    23    1
    75    22    21    1
    76     6     5    1
    77    43    44    1
    78    23    24    2
    79    13    10    1
    80    13    14    1
    81    10     9    1
    82     9     3   am
    83     5     2    1
    84    44    45    2
    85    14    16   ar
    86    14    15   ar
    87     3     2    1
    88     3     4    2
    89     2     1    1
    90    16    18   ar
    91    15    17   ar
    92    18    19   ar
    93    17    19   ar
    94    19    20    1
