@<TRIPOS>MOLECULE
tmp/3s3qA00.pdb
 199 194 0 0 0
SMALL
GASTEIGER

@<TRIPOS>ATOM
      1  N          8.3300   17.4870   22.9060 N.3    25  GLN25      -0.1245
      2  CA         9.3880   17.3190   23.9110 C.3    25  GLN25       0.1566
      3  C          9.6090   18.5490   24.7760 C.2    25  GLN25       0.2260
      4  O         10.2010   18.4440   25.8580 O.2    25  GLN25      -0.2867
      5  CB        10.7370   17.0710   23.2290 C.3    25  GLN25       0.0367
      6  CG        10.8470   15.7990   22.3910 C.3    25  GLN25       0.0905
      7  CD        12.1150   15.8580   21.5820 C.2    25  GLN25       0.2608
      8  OE1       13.2160   15.9450   22.1390 O.2    25  GLN25      -0.2717
      9  NE2       11.9760   15.8580   20.2690 N.am   25  GLN25      -0.0878
     10  N         13.7940   20.0830   26.0690 N.3    28  CYS28      -0.1221
     11  CA        14.3950   18.8880   26.6540 C.3    28  CYS28       0.1808
     12  C         14.7320   17.9280   25.5030 C.2    28  CYS28       0.2601
     13  O         13.9080   17.7120   24.6230 O.2    28  CYS28      -0.2717
     14  CB        13.4000   18.2480   27.6520 C.3    28  CYS28       0.0970
     15  SG        13.8220   16.6180   28.3160 S.3    28  CYS28      -0.0800
     16  N         15.9440   17.3780   25.5080 N.am   29  GLY29      -0.1957
     17  CA        16.3550   16.4110   24.4790 C.3    29  GLY29       0.1869
     18  C         15.7900   15.0320   24.7290 C.2    29  GLY29       0.2309
     19  O         16.5270   14.0560   24.7960 O.2    29  GLY29      -0.2863
     20  N         13.6210   13.3190   22.8650 N.3    31  CYS31      -0.1221
     21  CA        13.1830   12.6190   21.6560 C.3    31  CYS31       0.1808
     22  C         13.2610   11.1120   21.7840 C.2    31  CYS31       0.2601
     23  O         12.3480   10.4050   21.3610 O.2    31  CYS31      -0.2717
     24  CB        14.0140   13.0510   20.4510 C.3    31  CYS31       0.0970
     25  SG        15.7810   12.6960   20.5880 S.3    31  CYS31      -0.0800
     26  N         14.3510   10.6240   22.3730 N.am   32  TRP32      -0.1976
     27  CA        14.5620    9.1820   22.5420 C.3    32  TRP32       0.1640
     28  C         13.4050    8.5370   23.3080 C.2    32  TRP32       0.2290
     29  O         12.9770    7.4050   22.9960 O.2    32  TRP32      -0.2864
     30  CB        15.8990    8.9340   23.2660 C.3    32  TRP32       0.0576
     31  CG        15.9140    9.4340   24.7240 C.ar   32  TRP32       0.0006
     32  CD1       16.3190   10.6550   25.1900 C.ar   32  TRP32       0.0946
     33  CD2       15.5020    8.6880   25.8640 C.ar   32  TRP32       0.0152
     34  NE1       16.1970   10.7040   26.5570 N.ar   32  TRP32      -0.2442
     35  CE2       15.6900    9.5070   26.9930 C.ar   32  TRP32       0.0810
     36  CE3       15.0120    7.3820   26.0410 C.ar   32  TRP32       0.0012
     37  CZ2       15.3760    9.0830   28.2800 C.ar   32  TRP32       0.0191
     38  CZ3       14.6880    6.9600   27.3230 C.ar   32  TRP32       0.0001
     39  CH2       14.8740    7.8070   28.4310 C.ar   32  TRP32       0.0015
     40  N         20.5080    6.6290   29.4120 N.3    69  GLY69      -0.1210
     41  CA        21.3350    7.7640   29.0060 C.3    69  GLY69       0.1956
     42  C         21.2260    8.9630   29.9330 C.2    69  GLY69       0.2611
     43  O         21.1650    8.8150   31.1650 O.2    69  GLY69      -0.2717
     44  N         21.1950   10.1480   29.3310 N.am   70  LEU70      -0.1979
     45  CA        21.3400   11.3980   30.0740 C.3    70  LEU70       0.1596
     46  C         20.0560   12.2310   30.1640 C.2    70  LEU70       0.2287
     47  O         20.1210   13.4460   30.3700 O.2    70  LEU70      -0.2864
     48  CB        22.4600   12.2360   29.4460 C.3    70  LEU70       0.0297
     49  CG        23.8200   11.5710   29.2080 C.3    70  LEU70       0.0022
     50  CD1       24.8180   12.6100   28.6800 C.3    70  LEU70       0.0001
     51  CD2       24.3620   10.8640   30.4690 C.3    70  LEU70       0.0001
     52  N         17.1890   14.5930   29.7250 N.3    72  CYS72      -0.1221
     53  CA        17.0040   15.7100   28.8130 C.3    72  CYS72       0.1808
     54  C         18.2420   15.9930   27.9580 C.2    72  CYS72       0.2601
     55  O         18.1550   16.7410   27.0120 O.2    72  CYS72      -0.2717
     56  CB        16.5750   16.9810   29.5480 C.3    72  CYS72       0.0970
     57  SG        14.8390   16.9850   30.0270 S.3    72  CYS72      -0.0800
     58  N         19.3910   15.4160   28.3020 N.am   73  GLU73      -0.1965
     59  CA        20.5850   15.6020   27.4710 C.3    73  GLU73       0.1733
     60  C         20.7680   14.4770   26.4510 C.2    73  GLU73       0.2617
     61  O         21.8050   14.3900   25.7780 O.2    73  GLU73      -0.2715
     62  CB        21.8440   15.7990   28.3240 C.3    73  GLU73       0.0429
     63  CG        22.0170   17.2400   28.8260 C.3    73  GLU73       0.1163
     64  CD        23.1680   17.3810   29.8150 C.2    73  GLU73       0.3649
     65  OE1       23.2840   16.5360   30.7400 O.co2  73  GLU73      -0.2457
     66  OE2       23.9570   18.3400   29.6740 O.co2  73  GLU73      -0.2457
     67  N         19.7580   13.6120   26.3290 N.am   74  GLY74      -0.1940
     68  CA        19.7610   12.6140   25.2750 C.3    74  GLY74       0.2014
     69  C         19.8710   11.2090   25.7950 C.2    74  GLY74       0.2639
     70  O         20.3650   10.9890   26.9080 O.2    74  GLY74      -0.2714
     71  N         19.4200   10.2670   24.9750 N.am   75  GLY75      -0.1939
     72  CA        19.2470    8.8920   25.4080 C.3    75  GLY75       0.2014
     73  C         19.5380    7.8140   24.3790 C.2    75  GLY75       0.2639
     74  O         20.0770    8.0800   23.2830 O.2    75  GLY75      -0.2714
     75  N         19.1740    6.5890   24.7540 N.am   76  ILE76      -0.1963
     76  CA        19.5880    5.3700   24.0560 C.3    76  ILE76       0.1727
     77  C         18.3700    4.4630   23.8740 C.2    76  ILE76       0.2616
     78  O         17.6730    4.1620   24.8420 O.2    76  ILE76      -0.2715
     79  CB        20.6390    4.5840   24.9120 C.3    76  ILE76       0.0290
     80  CG1       21.6990    5.5410   25.4950 C.3    76  ILE76       0.0022
     81  CG2       21.2610    3.4040   24.0870 C.3    76  ILE76       0.0023
     82  CD1       22.5680    4.9140   26.5860 C.3    76  ILE76       0.0001
     83  N         18.1270    4.0120   22.6440 N.am   77  LEU77      -0.1977
     84  CA        16.8500    3.3830   22.3010 C.3    77  LEU77       0.1596
     85  C         16.6830    1.9750   22.8840 C.2    77  LEU77       0.2287
     86  O         15.6220    1.6410   23.3920 O.2    77  LEU77      -0.2864
     87  CB        16.6630    3.3470   20.7710 C.3    77  LEU77       0.0297
     88  CG        16.6540    4.6830   20.0320 C.3    77  LEU77       0.0022
     89  CD1       16.1830    4.4480   18.5740 C.3    77  LEU77       0.0001
     90  CD2       15.8360    5.7740   20.7470 C.3    77  LEU77       0.0001
     91  N         12.5680   26.0080   16.3790 N.3   112  HIS112     -0.1241
     92  CA        13.2120   26.5560   15.1600 C.3   112  HIS112      0.1621
     93  C         12.2300   26.7130   14.0100 C.2   112  HIS112      0.2264
     94  O         12.5630   26.4230   12.8480 O.2   112  HIS112     -0.2867
     95  CB        14.4190   25.6890   14.7400 C.3   112  HIS112      0.0745
     96  CG        15.2370   25.1950   15.9000 C.ar  112  HIS112      0.0817
     97  ND1       16.0320   26.0240   16.6620 N.ar  112  HIS112     -0.2268
     98  CD2       15.3410   23.9620   16.4520 C.ar  112  HIS112      0.1154
     99  CE1       16.6130   25.3170   17.6160 C.ar  112  HIS112      0.1986
    100  NE2       16.2030   24.0630   17.5140 N.ar  112  HIS112     -0.2212
    101  N         17.9780   24.0780   27.8420 N.3   124  ILE124     -0.1245
    102  CA        17.3450   22.7850   28.1080 C.3   124  ILE124      0.1561
    103  C         17.0500   22.6490   29.6140 C.2   124  ILE124      0.2260
    104  O         17.8970   23.0320   30.4350 O.2   124  ILE124     -0.2867
    105  CB        18.3110   21.6480   27.6600 C.3   124  ILE124      0.0252
    106  CG1       18.7670   21.8950   26.2110 C.3   124  ILE124      0.0019
    107  CG2       17.7130   20.2600   27.8890 C.3   124  ILE124      0.0019
    108  CD1       18.9320   20.6700   25.3670 C.3   124  ILE124      0.0001
    109  N         16.2190    5.9600   15.0320 N.3   175  GLY175     -0.1210
    110  CA        17.1980    7.0170   15.2390 C.3   175  GLY175      0.1956
    111  C         17.7120    7.4670   13.8840 C.2   175  GLY175      0.2611
    112  O         17.7470    6.6790   12.9190 O.2   175  GLY175     -0.2717
    113  N         18.0810    8.7440   13.7790 N.am  176  PHE176     -0.1976
    114  CA        18.7320    9.2190   12.5490 C.3   176  PHE176      0.1639
    115  C         19.6580   10.3950   12.8390 C.2   176  PHE176      0.2290
    116  O         19.5710   11.0130   13.9040 O.2   176  PHE176     -0.2864
    117  CB        17.7290    9.5060   11.4060 C.3   176  PHE176      0.0560
    118  CG        16.9630   10.8120   11.5630 C.ar  176  PHE176     -0.0200
    119  CD1       15.8930   10.9050   12.4680 C.ar  176  PHE176     -0.0042
    120  CD2       17.2950   11.9220   10.7740 C.ar  176  PHE176     -0.0042
    121  CE1       15.1680   12.1200   12.6380 C.ar  176  PHE176     -0.0003
    122  CE2       16.5860   13.1500   10.9150 C.ar  176  PHE176     -0.0003
    123  CZ        15.5100   13.2440   11.8510 C.ar  176  PHE176     -0.0000
    124  N         20.8030   14.0350   12.4880 N.3   178  VAL178     -0.1245
    125  CA        20.2080   15.3300   12.2560 C.3   178  VAL178      0.1561
    126  C         21.2940   16.3480   11.9060 C.2   178  VAL178      0.2260
    127  O         22.2900   16.5000   12.6330 O.2   178  VAL178     -0.2867
    128  CB        19.3000   15.7840   13.4420 C.3   178  VAL178      0.0252
    129  CG1       20.0820   15.9420   14.7550 C.3   178  VAL178      0.0019
    130  CG2       18.5210   17.0450   13.0730 C.3   178  VAL178      0.0019
    131  N         17.9550   20.1900    8.7260 N.3   182  PHE182     -0.1227
    132  CA        16.7150   19.6500    9.3120 C.3   182  PHE182      0.1736
    133  C         15.9190   20.7280   10.0700 C.2   182  PHE182      0.2595
    134  O         14.6750   20.7630    9.9900 O.2   182  PHE182     -0.2718
    135  CB        16.9950   18.4280   10.1950 C.3   182  PHE182      0.0547
    136  CG        15.7500   17.7510   10.7100 C.ar  182  PHE182     -0.0202
    137  CD1       15.0800   16.7950    9.9380 C.ar  182  PHE182     -0.0042
    138  CD2       15.2370   18.0810   11.9580 C.ar  182  PHE182     -0.0042
    139  CE1       13.9380   16.1720   10.4110 C.ar  182  PHE182     -0.0003
    140  CE2       14.0870   17.4550   12.4460 C.ar  182  PHE182     -0.0003
    141  CZ        13.4360   16.5140   11.6780 C.ar  182  PHE182     -0.0000
    142  N         16.6300   21.6240   10.7680 N.am  183  LEU183     -0.1980
    143  CA        15.9900   22.7340   11.5030 C.3   183  LEU183      0.1596
    144  C         15.1660   23.6610   10.6210 C.2   183  LEU183      0.2287
    145  O         14.2920   24.4190   11.1150 O.2   183  LEU183     -0.2864
    146  CB        17.0270   23.5740   12.2420 C.3   183  LEU183      0.0297
    147  CG        17.8020   22.8380   13.3260 C.3   183  LEU183      0.0022
    148  CD1       18.4610   23.8550   14.2570 C.3   183  LEU183      0.0001
    149  CD2       16.9090   21.8600   14.1180 C.3   183  LEU183      0.0001
    150  N         24.1960   17.8670   14.0170 N.3   198  LEU198     -0.1245
    151  CA        23.7320   18.3030   15.3080 C.3   198  LEU198      0.1561
    152  C         23.5250   17.1080   16.2140 C.2   198  LEU198      0.2260
    153  O         22.8580   17.2190   17.2440 O.2   198  LEU198     -0.2867
    154  CB        22.4370   19.1060   15.1770 C.3   198  LEU198      0.0270
    155  CG        22.5480   20.4280   14.3960 C.3   198  LEU198      0.0019
    156  CD1       21.1580   20.9730   14.1310 C.3   198  LEU198      0.0001
    157  CD2       23.3800   21.4350   15.1690 C.3   198  LEU198      0.0001
    158  N         22.0950   13.2510   16.9780 N.3   200  GLY200     -0.1210
    159  CA        21.0340   12.3330   16.5850 C.3   200  GLY200      0.1956
    160  C         19.6600   12.7050   17.0990 C.2   200  GLY200      0.2612
    161  O         19.5100   13.4570   18.0640 O.2   200  GLY200     -0.2717
    162  N         18.6400   12.1650   16.4360 N.am  201  HIS201     -0.1961
    163  CA        17.2610   12.4340   16.7940 C.3   201  HIS201      0.1787
    164  C         16.5480   11.0960   16.7020 C.2   201  HIS201      0.2620
    165  O         16.9920   10.2080   15.9650 O.2   201  HIS201     -0.2715
    166  CB        16.6930   13.4560   15.8020 C.3   201  HIS201      0.0785
    167  CG        15.2870   13.9070   16.0760 C.ar  201  HIS201      0.0821
    168  ND1       14.6570   13.7370   17.2890 N.ar  201  HIS201     -0.2267
    169  CD2       14.4010   14.5600   15.2820 C.ar  201  HIS201      0.1154
    170  CE1       13.4380   14.2460   17.2290 C.ar  201  HIS201      0.1986
    171  NE2       13.2600   14.7610   16.0270 N.ar  201  HIS201     -0.2212
    172  N         15.4990   10.9330   17.4950 N.am  202  ALA202     -0.1977
    173  CA        14.7580    9.6740   17.5610 C.3   202  ALA202      0.1597
    174  C         13.3140   10.0290   17.3280 C.2   202  ALA202      0.2287
    175  O         12.7880   10.9370   17.9620 O.2   202  ALA202     -0.2864
    176  CB        14.9260    9.0010   18.9320 C.3   202  ALA202      0.0319
    177  N          7.7100   17.6250   17.9880 N.3   223  TRP223     -0.1241
    178  CA         7.9300   19.0460   18.1320 C.3   223  TRP223      0.1605
    179  C          6.6350   19.8650   17.9480 C.2   223  TRP223      0.2264
    180  O          6.6670   21.0000   17.4700 O.2   223  TRP223     -0.2867
    181  CB         8.9940   19.4580   17.1240 C.3   223  TRP223      0.0550
    182  CG        10.3990   19.2670   17.6300 C.ar  223  TRP223      0.0003
    183  CD1       10.7920   18.8210   18.8690 C.ar  223  TRP223      0.0946
    184  CD2       11.5890   19.5930   16.9260 C.ar  223  TRP223      0.0152
    185  NE1       12.1720   18.8280   18.9590 N.ar  223  TRP223     -0.2442
    186  CE2       12.6800   19.3180   17.7860 C.ar  223  TRP223      0.0810
    187  CE3       11.8430   20.1080   15.6510 C.ar  223  TRP223      0.0012
    188  CZ2       14.0090   19.5280   17.3990 C.ar  223  TRP223      0.0191
    189  CZ3       13.1540   20.3240   15.2720 C.ar  223  TRP223      0.0001
    190  CH2       14.2270   20.0220   16.1410 C.ar  223  TRP223      0.0015
    191  N         18.8120    2.3630   12.4780 N.3   247  GLU247     -0.1245
    192  CA        18.6430    2.3950   13.9400 C.3   247  GLU247      0.1567
    193  C         17.1680    2.2550   14.3420 C.2   247  GLU247      0.2260
    194  O         16.6330    2.9900   15.2110 O.2   247  GLU247     -0.2867
    195  CB        19.2990    3.6400   14.5550 C.3   247  GLU247      0.0388
    196  CG        19.5630    3.5100   16.0620 C.3   247  GLU247      0.1160
    197  CD        20.2240    4.7390   16.6590 C.2   247  GLU247      0.3649
    198  OE1       20.3860    5.7380   15.9390 O.co2 247  GLU247     -0.2457
    199  OE2       20.5750    4.7120   17.8530 O.co2 247  GLU247     -0.2457
@<TRIPOS>BOND
     1   131   132    1
     2   132   133    1
     3   132   135    1
     4   137   139   ar
     5   137   136   ar
     6   134   133    2
     7   133   142   am
     8   135   136    1
     9   139   141   ar
    10   144   145    2
    11   144   143    1
    12   136   138   ar
    13   142   143    1
    14   120   122   ar
    15   120   118   ar
    16   122   123   ar
    17   117   118    1
    18   117   114    1
    19   143   146    1
    20   118   119   ar
    21   141   140   ar
    22   123   121   ar
    23   126   125    1
    24   126   127    2
    25   138   140   ar
    26   146   147    1
    27   125   124    1
    28   125   128    1
    29   119   121   ar
    30   191   192    1
    31   114   115    1
    32   114   113    1
    33   115   116    2
    34    94    93    2
    35   112   111    2
    36   130   128    1
    37   147   149    1
    38   147   148    1
    39   128   129    1
    40   113   111   am
    41   111   110    1
    42   192   193    1
    43   192   195    1
    44    93    92    1
    45   150   151    1
    46   156   155    1
    47   193   194    2
    48   155   157    1
    49   155   154    1
    50   195   196    1
    51    95    92    1
    52    95    96    1
    53   109   110    1
    54    92    91    1
    55   154   151    1
    56   189   187   ar
    57   189   190   ar
    58   169   171   ar
    59   169   167   ar
    60   151   152    1
    61   187   184   ar
    62   166   167    1
    63   166   163    1
    64    96    98   ar
    65    96    97   ar
    66   198   197   ar
    67   165   164    2
    68   171   170   ar
    69   196   197    1
    70   167   168   ar
    71   190   188   ar
    72   152   153    2
    73   162   163    1
    74   162   160   am
    75    98   100   ar
    76   159   158    1
    77   159   160    1
    78   197   199   ar
    79    97    99   ar
    80   164   163    1
    81   164   172   am
    82   184   182   ar
    83   184   186   ar
    84   160   161    2
    85   181   182    1
    86   181   178    1
    87   170   168   ar
    88   174   173    1
    89   174   175    2
    90   188   186   ar
    91   180   179    2
    92   172   173    1
    93   100    99   ar
    94   173   176    1
    95   182   183   ar
    96   186   185   ar
    97   179   178    1
    98   177   178    1
    99    89    88    1
   100   183   185   ar
   101    88    90    1
   102    88    87    1
   103     9     7   am
   104    24    25    1
   105    24    21    1
   106    87    84    1
   107    23    22    2
   108     7     8    2
   109     7     6    1
   110    21    22    1
   111    21    20    1
   112    22    26   am
   113    84    83    1
   114    84    85    1
   115    26    27    1
   116     6     5    1
   117    27    30    1
   118    27    28    1
   119    83    77   am
   120    85    86    2
   121     1     2    1
   122    29    28    2
   123     5     2    1
   124    30    31    1
   125    74    73    2
   126    77    76    1
   127    77    78    2
   128     2     3    1
   129    76    75    1
   130    76    79    1
   131    81    79    1
   132    73    75   am
   133    73    72    1
   134    17    18    1
   135    17    16    1
   136    13    12    2
   137    31    32   ar
   138    31    33   ar
   139    18    19    2
   140     3     4    2
   141    79    80    1
   142    71    72    1
   143    71    69   am
   144    32    34   ar
   145    68    69    1
   146    68    67    1
   147   108   106    1
   148    80    82    1
   149    12    16   am
   150    12    11    1
   151    61    60    2
   152    69    70    2
   153    33    36   ar
   154    33    35   ar
   155    36    38   ar
   156    10    11    1
   157   106   105    1
   158    67    60   am
   159    60    59    1
   160    34    35   ar
   161    11    14    1
   162    35    37   ar
   163    55    54    2
   164    38    39   ar
   165    59    58    1
   166    59    62    1
   167    14    15    1
   168   105   107    1
   169   105   102    1
   170   101   102    1
   171    54    58   am
   172    54    53    1
   173   102   103    1
   174    37    39   ar
   175    15    57    1
   176    62    63    1
   177    50    49    1
   178    53    56    1
   179    53    52    1
   180    63    64    1
   181    41    40    1
   182    41    42    1
   183    49    48    1
   184    49    51    1
   185    44    42   am
   186    44    45    1
   187    48    45    1
   188    56    57    1
   189   103   104    2
   190    66    64   ar
   191    64    65   ar
   192    42    43    2
   193    45    46    1
   194    46    47    2
