@<TRIPOS>MOLECULE
tmp/3s3rA00.pdb
 186 181 0 0 0
SMALL
GASTEIGER

@<TRIPOS>ATOM
      1  N          2.0700  -22.2090   -8.5720 N.3    25  GLN25      -0.1231
      2  CA         1.2810  -22.3420   -9.7880 C.3    25  GLN25       0.1698
      3  C          1.4690  -23.6990  -10.4690 C.2    25  GLN25       0.2592
      4  O          0.7230  -24.0420  -11.3810 O.2    25  GLN25      -0.2718
      5  CB         1.5220  -21.1410  -10.7290 C.3    25  GLN25       0.0381
      6  CG         2.8080  -21.1460  -11.5400 C.3    25  GLN25       0.0905
      7  CD         3.1270  -19.7750  -12.1450 C.2    25  GLN25       0.2608
      8  OE1        3.3410  -18.8240  -11.4260 O.2    25  GLN25      -0.2717
      9  NE2        3.1770  -19.6920  -13.4570 N.am   25  GLN25      -0.0878
     10  N          2.4600  -24.4590   -9.9970 N.am   26  SER26      -0.1952
     11  CA         2.7480  -25.8320  -10.4500 C.3    26  SER26       0.1924
     12  C          3.2380  -25.8950  -11.8990 C.2    26  SER26       0.2314
     13  O          3.6350  -24.8790  -12.4600 O.2    26  SER26      -0.2863
     14  CB         1.5330  -26.7160  -10.2480 C.3    26  SER26       0.2116
     15  OG         1.9180  -28.0530  -10.0650 O.3    26  SER26      -0.2180
     16  N          2.4770  -25.3960  -14.8320 N.3    28  CYS28      -0.1221
     17  CA         1.4380  -24.7020  -15.5530 C.3    28  CYS28       0.1808
     18  C          1.8410  -23.2310  -15.6120 C.2    28  CYS28       0.2601
     19  O          2.4010  -22.7040  -14.6440 O.2    28  CYS28      -0.2717
     20  CB         0.1020  -24.8790  -14.8370 C.3    28  CYS28       0.0970
     21  SG        -1.2560  -23.8180  -15.4380 S.3    28  CYS28      -0.0800
     22  N          1.5740  -22.5700  -16.7410 N.am   29  GLY29      -0.1957
     23  CA         1.9400  -21.1610  -16.9200 C.3    29  GLY29       0.1869
     24  C          0.8640  -20.1950  -16.4510 C.2    29  GLY29       0.2309
     25  O          0.5230  -19.2410  -17.1500 O.2    29  GLY29      -0.2863
     26  N          0.7310  -18.0080  -13.9980 N.3    31  CYS31      -0.1221
     27  CA         1.1700  -16.8320  -13.2270 C.3    31  CYS31       0.1808
     28  C          0.1710  -15.7300  -13.3600 C.2    31  CYS31       0.2601
     29  O         -0.2700  -15.1920  -12.3650 O.2    31  CYS31      -0.2717
     30  CB         2.5360  -16.3160  -13.6540 C.3    31  CYS31       0.0970
     31  SG         2.6140  -15.7310  -15.3800 S.3    31  CYS31      -0.0800
     32  N         -0.2260  -15.4390  -14.5870 N.am   32  TRP32      -0.1976
     33  CA        -1.1670  -14.3760  -14.8530 C.3    32  TRP32       0.1640
     34  C         -2.4030  -14.4990  -13.9680 C.2    32  TRP32       0.2290
     35  O         -2.9720  -13.4810  -13.5300 O.2    32  TRP32      -0.2864
     36  CB        -1.5560  -14.3680  -16.3380 C.3    32  TRP32       0.0576
     37  CG        -2.4250  -15.5330  -16.7710 C.ar   32  TRP32       0.0006
     38  CD1       -2.0110  -16.7260  -17.3150 C.ar   32  TRP32       0.0946
     39  CD2       -3.8660  -15.6150  -16.6900 C.ar   32  TRP32       0.0152
     40  NE1       -3.1020  -17.5280  -17.5930 N.ar   32  TRP32      -0.2442
     41  CE2       -4.2450  -16.8780  -17.2110 C.ar   32  TRP32       0.0810
     42  CE3       -4.8660  -14.7470  -16.2200 C.ar   32  TRP32       0.0012
     43  CZ2       -5.5770  -17.2820  -17.2860 C.ar   32  TRP32       0.0191
     44  CZ3       -6.1840  -15.1500  -16.3020 C.ar   32  TRP32       0.0001
     45  CH2       -6.5300  -16.4040  -16.8340 C.ar   32  TRP32       0.0015
     46  N         -6.6430  -15.3420  -22.6520 N.3    69  GLY69      -0.1210
     47  CA        -5.4560  -15.9170  -23.2500 C.3    69  GLY69       0.1956
     48  C         -5.5290  -17.4150  -23.3940 C.2    69  GLY69       0.2611
     49  O         -6.5100  -17.9570  -23.8980 O.2    69  GLY69      -0.2717
     50  N         -4.4900  -18.0830  -22.9090 N.am   70  LEU70      -0.1979
     51  CA        -4.1850  -19.4460  -23.3120 C.3    70  LEU70       0.1596
     52  C         -4.0530  -20.4220  -22.1470 C.2    70  LEU70       0.2287
     53  O         -3.4680  -21.5090  -22.2970 O.2    70  LEU70      -0.2864
     54  CB        -2.8820  -19.4380  -24.1070 C.3    70  LEU70       0.0297
     55  CG        -2.7690  -18.7020  -25.4420 C.3    70  LEU70       0.0022
     56  CD1       -1.4370  -19.1250  -26.0880 C.3    70  LEU70       0.0001
     57  CD2       -3.9570  -18.9440  -26.3740 C.3    70  LEU70       0.0001
     58  N         -2.8730  -22.4730  -19.2940 N.3    72  CYS72      -0.1221
     59  CA        -1.5740  -22.8670  -18.7560 C.3    72  CYS72       0.1808
     60  C         -0.4760  -22.4020  -19.6970 C.2    72  CYS72       0.2601
     61  O          0.7030  -22.4180  -19.3490 O.2    72  CYS72      -0.2717
     62  CB        -1.4950  -24.3700  -18.4870 C.3    72  CYS72       0.0970
     63  SG        -2.2070  -24.9040  -16.8910 S.3    72  CYS72      -0.0800
     64  N         -0.8890  -21.9370  -20.8700 N.am   73  GLU73      -0.1965
     65  CA         0.0200  -21.4300  -21.8920 C.3    73  GLU73       0.1733
     66  C          0.2350  -19.9010  -21.8760 C.2    73  GLU73       0.2617
     67  O          0.9690  -19.3680  -22.6970 O.2    73  GLU73      -0.2715
     68  CB        -0.5060  -21.8570  -23.2500 C.3    73  GLU73       0.0429
     69  CG        -0.4610  -23.3250  -23.4690 C.3    73  GLU73       0.1163
     70  CD         0.8680  -23.7250  -24.0180 C.2    73  GLU73       0.3649
     71  OE1        1.0150  -23.6640  -25.2600 O.co2  73  GLU73      -0.2457
     72  OE2        1.7650  -24.0800  -23.2180 O.co2  73  GLU73      -0.2457
     73  N         -0.4150  -19.1900  -20.9670 N.am   74  GLY74      -0.1940
     74  CA        -0.1710  -17.7560  -20.8430 C.3    74  GLY74       0.2014
     75  C         -1.4220  -16.9070  -20.9290 C.2    74  GLY74       0.2639
     76  O         -2.3160  -17.1840  -21.7250 O.2    74  GLY74      -0.2714
     77  N         -1.4820  -15.8570  -20.1230 N.am   75  GLY75      -0.1939
     78  CA        -2.6960  -15.0550  -20.0560 C.3    75  GLY75       0.2014
     79  C         -2.5260  -13.5530  -20.0410 C.2    75  GLY75       0.2639
     80  O         -1.4220  -13.0560  -19.8640 O.2    75  GLY75      -0.2714
     81  N         -3.6430  -12.8540  -20.2390 N.am   76  ILE76      -0.1963
     82  CA        -3.6980  -11.3860  -20.3320 C.3    76  ILE76       0.1727
     83  C         -4.1720  -10.8020  -18.9920 C.2    76  ILE76       0.2616
     84  O         -5.1660  -11.2550  -18.4130 O.2    76  ILE76      -0.2715
     85  CB        -4.6390  -10.9370  -21.4830 C.3    76  ILE76       0.0290
     86  CG1       -4.7080  -12.0080  -22.5850 C.3    76  ILE76       0.0022
     87  CG2       -4.1730   -9.6180  -22.0790 C.3    76  ILE76       0.0023
     88  CD1       -5.6330  -11.6900  -23.8300 C.3    76  ILE76       0.0001
     89  N         -3.4620   -9.8030  -18.4860 N.am   77  LEU77      -0.1977
     90  CA        -3.7410   -9.2990  -17.1280 C.3    77  LEU77       0.1596
     91  C         -5.0320   -8.5240  -17.0310 C.2    77  LEU77       0.2287
     92  O         -5.8340   -8.7730  -16.1280 O.2    77  LEU77      -0.2864
     93  CB        -2.5750   -8.4720  -16.5820 C.3    77  LEU77       0.0297
     94  CG        -1.4550   -9.2950  -15.9390 C.3    77  LEU77       0.0022
     95  CD1       -0.9630  -10.3870  -16.8730 C.3    77  LEU77       0.0001
     96  CD2       -0.2970   -8.3970  -15.5260 C.3    77  LEU77       0.0001
     97  N         10.8210  -24.8200   -8.6660 N.3   111  HIS111     -0.1241
     98  CA        11.1020  -24.0250   -9.8560 C.3   111  HIS111      0.1621
     99  C         12.5230  -23.5030   -9.8020 C.2   111  HIS111      0.2264
    100  O         12.7980  -22.5140   -9.1100 O.2   111  HIS111     -0.2867
    101  CB        10.1460  -22.8310   -9.9450 C.3   111  HIS111      0.0745
    102  CG         8.7010  -23.2000   -9.8550 C.ar  111  HIS111      0.0817
    103  ND1        7.8650  -23.2100  -10.9510 N.ar  111  HIS111     -0.2268
    104  CD2        7.9410  -23.5730   -8.7990 C.ar  111  HIS111      0.1154
    105  CE1        6.6500  -23.5670  -10.5730 C.ar  111  HIS111      0.1986
    106  NE2        6.6690  -23.7930   -9.2720 N.ar  111  HIS111     -0.2212
    107  N          4.5050  -29.0220  -19.2050 N.3   124  ILE124     -0.1245
    108  CA         3.4050  -28.1400  -18.8660 C.3   124  ILE124      0.1561
    109  C          2.1290  -28.9710  -18.9720 C.2   124  ILE124      0.2260
    110  O          1.9880  -29.7770  -19.9030 O.2   124  ILE124     -0.2867
    111  CB         3.3520  -26.9120  -19.8310 C.3   124  ILE124      0.0252
    112  CG1        4.7200  -26.2150  -19.9210 C.3   124  ILE124      0.0019
    113  CG2        2.2610  -25.9210  -19.4120 C.3   124  ILE124      0.0019
    114  CD1        5.1240  -25.4270  -18.6620 C.3   124  ILE124      0.0001
    115  N          3.1750   -7.2510  -14.5070 N.3   175  GLY175     -0.1210
    116  CA         3.9520   -8.0730  -15.4170 C.3   175  GLY175      0.1956
    117  C          5.3170   -7.4740  -15.6190 C.2   175  GLY175      0.2611
    118  O          5.5080   -6.2660  -15.4990 O.2   175  GLY175     -0.2717
    119  N          6.2930   -8.3230  -15.9020 N.am  176  PHE176     -0.1976
    120  CA         7.6260   -7.8620  -16.2350 C.3   176  PHE176      0.1639
    121  C          8.2480   -8.8280  -17.2140 C.2   176  PHE176      0.2290
    122  O          7.7190   -9.9230  -17.4210 O.2   176  PHE176     -0.2864
    123  CB         8.4720   -7.6690  -14.9760 C.3   176  PHE176      0.0560
    124  CG         8.9810   -8.9480  -14.3470 C.ar  176  PHE176     -0.0200
    125  CD1        8.2000   -9.6550  -13.4290 C.ar  176  PHE176     -0.0042
    126  CD2       10.2730   -9.4110  -14.6280 C.ar  176  PHE176     -0.0042
    127  CE1        8.6860  -10.8260  -12.8260 C.ar  176  PHE176     -0.0003
    128  CE2       10.7470  -10.5660  -14.0350 C.ar  176  PHE176     -0.0003
    129  CZ         9.9420  -11.2750  -13.1190 C.ar  176  PHE176     -0.0000
    130  N         10.8660  -11.4890  -18.4210 N.3   178  VAL178     -0.1245
    131  CA        11.8770  -12.4120  -17.9000 C.3   178  VAL178      0.1561
    132  C         13.0020  -12.5980  -18.8920 C.2   178  VAL178      0.2260
    133  O         12.7740  -12.9320  -20.0590 O.2   178  VAL178     -0.2867
    134  CB        11.3050  -13.7820  -17.3170 C.3   178  VAL178      0.0252
    135  CG1        9.9220  -14.1010  -17.8330 C.3   178  VAL178      0.0019
    136  CG2       12.2470  -14.9610  -17.5600 C.3   178  VAL178      0.0019
    137  N         12.8570  -14.5850  -22.4180 N.3   198  LEU198     -0.1245
    138  CA        12.1700  -15.8630  -22.3610 C.3   198  LEU198      0.1561
    139  C         10.6520  -15.7110  -22.4080 C.2   198  LEU198      0.2260
    140  O          9.9460  -16.6080  -22.8860 O.2   198  LEU198     -0.2867
    141  CB        12.5880  -16.6140  -21.1010 C.3   198  LEU198      0.0270
    142  CG        14.0220  -17.1540  -21.1590 C.3   198  LEU198      0.0019
    143  CD1       14.4320  -17.7190  -19.8070 C.3   198  LEU198      0.0001
    144  CD2       14.1950  -18.2000  -22.2890 C.3   198  LEU198      0.0001
    145  N          7.1140  -13.2860  -20.4360 N.3   200  GLY200     -0.1210
    146  CA         6.6790  -12.3810  -19.3850 C.3   200  GLY200      0.1956
    147  C          6.1850  -13.1350  -18.1800 C.2   200  GLY200      0.2612
    148  O          5.7580  -14.2760  -18.2960 O.2   200  GLY200     -0.2717
    149  N          6.2370  -12.5020  -17.0200 N.am  201  HIS201     -0.1961
    150  CA         5.8140  -13.1360  -15.7710 C.3   201  HIS201      0.1787
    151  C          4.8990  -12.1370  -15.0670 C.2   201  HIS201      0.2620
    152  O          5.1230  -10.8990  -15.1390 O.2   201  HIS201     -0.2715
    153  CB         7.0540  -13.4700  -14.9320 C.3   201  HIS201      0.0785
    154  CG         6.7810  -14.2370  -13.6720 C.ar  201  HIS201      0.0821
    155  ND1        5.5710  -14.8360  -13.3980 N.ar  201  HIS201     -0.2267
    156  CD2        7.5900  -14.5360  -12.6290 C.ar  201  HIS201      0.1154
    157  CE1        5.6360  -15.4470  -12.2280 C.ar  201  HIS201      0.1986
    158  NE2        6.8520  -15.2830  -11.7410 N.ar  201  HIS201     -0.2212
    159  N          3.8470  -12.6540  -14.4330 N.am  202  ALA202     -0.1977
    160  CA         2.9450  -11.7900  -13.6880 C.3   202  ALA202      0.1597
    161  C          3.0580  -12.1170  -12.2120 C.2   202  ALA202      0.2287
    162  O          3.0500  -13.2700  -11.8230 O.2   202  ALA202     -0.2864
    163  CB         1.5300  -11.9220  -14.1810 C.3   202  ALA202      0.0319
    164  N          5.9690  -19.3970   -6.8720 N.3   223  TRP223     -0.1241
    165  CA         6.7350  -20.6090   -7.1150 C.3   223  TRP223      0.1605
    166  C          6.9870  -21.2680   -5.7640 C.2   223  TRP223      0.2264
    167  O          8.0210  -21.8740   -5.5460 O.2   223  TRP223     -0.2867
    168  CB         8.0590  -20.2530   -7.8150 C.3   223  TRP223      0.0550
    169  CG         7.9490  -19.9860   -9.3010 C.ar  223  TRP223      0.0003
    170  CD1        6.8650  -20.2390  -10.1130 C.ar  223  TRP223      0.0946
    171  CD2        8.9730  -19.4690  -10.1600 C.ar  223  TRP223      0.0152
    172  NE1        7.1490  -19.8900  -11.4100 N.ar  223  TRP223     -0.2442
    173  CE2        8.4340  -19.4210  -11.4750 C.ar  223  TRP223      0.0810
    174  CE3       10.2950  -19.0410   -9.9530 C.ar  223  TRP223      0.0012
    175  CZ2        9.1730  -18.9600  -12.5800 C.ar  223  TRP223      0.0191
    176  CZ3       11.0380  -18.5750  -11.0660 C.ar  223  TRP223      0.0001
    177  CH2       10.4660  -18.5400  -12.3580 C.ar  223  TRP223      0.0015
    178  N          3.0240   -2.6130  -16.5840 N.3   247  GLU247     -0.1245
    179  CA         1.9230   -3.5710  -16.6900 C.3   247  GLU247      0.1567
    180  C          1.1540   -3.6800  -15.3760 C.2   247  GLU247      0.2260
    181  O          0.6860   -4.7690  -15.0050 O.2   247  GLU247     -0.2867
    182  CB         2.4820   -4.9610  -17.0400 C.3   247  GLU247      0.0388
    183  CG         3.3000   -5.0220  -18.3370 C.3   247  GLU247      0.1160
    184  CD         2.4380   -4.7800  -19.5770 C.2   247  GLU247      0.3649
    185  OE1        1.2410   -5.2000  -19.5630 O.co2 247  GLU247     -0.2457
    186  OE2        2.9680   -4.1730  -20.5470 O.co2 247  GLU247     -0.2457
@<TRIPOS>BOND
     1    57    55    1
     2    56    55    1
     3    55    54    1
     4    71    70   ar
     5    54    51    1
     6    70    69    1
     7    70    72   ar
     8    49    48    2
     9    88    86    1
    10    69    68    1
    11    48    47    1
    12    48    50   am
    13    51    50    1
    14    51    52    1
    15    47    46    1
    16    68    65    1
    17   140   139    2
    18    67    66    2
    19    86    85    1
    20   137   138    1
    21   139   138    1
    22   138   141    1
    23    53    52    2
    24   144   142    1
    25    87    85    1
    26    65    66    1
    27    65    64    1
    28    66    73   am
    29    76    75    2
    30    85    82    1
    31   142   141    1
    32   142   143    1
    33    73    74    1
    34    75    74    1
    35    75    77   am
    36    64    60   am
    37   186   184   ar
    38   145   146    1
    39    82    81    1
    40    82    83    1
    41    81    79   am
    42    77    78    1
    43   133   132    2
    44    78    79    1
    45    79    80    2
    46   112   111    1
    47   112   114    1
    48   110   109    2
    49   111   113    1
    50   111   108    1
    51    60    61    2
    52    60    59    1
    53   184   185   ar
    54   184   183    1
    55   146   147    1
    56    58    59    1
    57   107   108    1
    58    83    89   am
    59    83    84    2
    60   109   108    1
    61   132   131    1
    62    59    62    1
    63    62    63    1
    64    89    90    1
    65   130   131    1
    66   183   182    1
    67   148   147    2
    68   147   149   am
    69   131   134    1
    70   135   134    1
    71    40    38   ar
    72    40    41   ar
    73   136   134    1
    74   122   121    2
    75    38    37   ar
    76    43    41   ar
    77    43    45   ar
    78   121   120    1
    79    41    39   ar
    80    25    24    2
    81    90    91    1
    82    90    93    1
    83   182   179    1
    84    91    92    2
    85   149   150    1
    86    23    22    1
    87    23    24    1
    88    63    21    1
    89    95    94    1
    90    45    44   ar
    91    37    39   ar
    92    37    36    1
    93    22    18   am
    94    39    42   ar
    95   179   178    1
    96   179   180    1
    97    93    94    1
    98    36    33    1
    99    44    42   ar
   100   120   119    1
   101   120   123    1
   102    94    96    1
   103   119   117   am
   104   150   151    1
   105   150   153    1
   106   117   118    2
   107   117   116    1
   108    18    17    1
   109    18    19    2
   110    17    20    1
   111    17    16    1
   112    21    20    1
   113   116   115    1
   114    31    30    1
   115   180   181    2
   116   152   151    2
   117   151   159   am
   118   123   124    1
   119   153   154    1
   120    33    32    1
   121    33    34    1
   122   126   124   ar
   123   126   128   ar
   124    32    28   am
   125   159   160    1
   126   124   125   ar
   127   163   160    1
   128   128   129   ar
   129    26    27    1
   130    34    35    2
   131   160   161    1
   132   154   155   ar
   133   154   156   ar
   134    30    27    1
   135     9     7   am
   136   125   127   ar
   137   155   157   ar
   138    28    27    1
   139    28    29    2
   140   129   127   ar
   141   156   158   ar
   142   175   177   ar
   143   175   173   ar
   144    13    12    2
   145   177   176   ar
   146   157   158   ar
   147   161   162    2
   148     7     6    1
   149     7     8    2
   150    12    11    1
   151     6     5    1
   152   173   172   ar
   153   173   171   ar
   154   172   170   ar
   155     4     3    2
   156   176   174   ar
   157   103   105   ar
   158   103   102   ar
   159     5     2    1
   160   105   106   ar
   161     3    10   am
   162     3     2    1
   163    11    14    1
   164    11    10    1
   165    14    15    1
   166   171   174   ar
   167   171   169   ar
   168   170   169   ar
   169   101    98    1
   170   101   102    1
   171    98    99    1
   172    98    97    1
   173   102   104   ar
   174    99   100    2
   175     2     1    1
   176   169   168    1
   177   106   104   ar
   178   168   165    1
   179   165   164    1
   180   165   166    1
   181   166   167    2
