@<TRIPOS>MOLECULE
tmp/3s3sA00.pdb
 192 190 0 0 0
SMALL
GASTEIGER

@<TRIPOS>ATOM
      1  N         38.0560  -41.3150   25.9930 N.3   169  GLN169     -0.1231
      2  CA        38.2490  -40.3290   24.9310 C.3   169  GLN169      0.1698
      3  C         38.8710  -40.9460   23.6680 C.2   169  GLN169      0.2592
      4  O         38.7750  -42.1550   23.4440 O.2   169  GLN169     -0.2718
      5  CB        39.0650  -39.1270   25.4360 C.3   169  GLN169      0.0381
      6  CG        40.3630  -39.4680   26.1370 C.3   169  GLN169      0.0905
      7  CD        40.8520  -38.3320   27.0430 C.2   169  GLN169      0.2608
      8  OE1       40.0810  -37.7730   27.8370 O.2   169  GLN169     -0.2717
      9  NE2       42.1380  -37.9950   26.9350 N.am  169  GLN169     -0.0878
     10  N         39.5080  -40.1100   22.8520 N.am  170  GLY170     -0.1957
     11  CA        40.0720  -40.5490   21.5860 C.3   170  GLY170      0.1869
     12  C         39.0250  -40.4260   20.5120 C.2   170  GLY170      0.2309
     13  O         38.5720  -39.3290   20.2130 O.2   170  GLY170     -0.2863
     14  N         40.2900  -44.2600   23.7120 N.3   176  LYS176     -0.1245
     15  CA        41.3350  -44.2080   24.7320 C.3   176  LYS176      0.1561
     16  C         40.7590  -44.0220   26.1580 C.2   176  LYS176      0.2260
     17  O         39.7210  -43.3810   26.3580 O.2   176  LYS176     -0.2867
     18  CB        42.3310  -43.1090   24.3950 C.3   176  LYS176      0.0271
     19  CG        43.0170  -43.2880   23.0470 C.3   176  LYS176      0.0035
     20  CD        44.0600  -44.3500   23.0280 C.3   176  LYS176      0.0206
     21  CE        45.0160  -44.4100   21.8250 C.3   176  LYS176      0.1093
     22  NZ        44.3060  -45.0520   20.6790 N.3   176  LYS176     -0.1314
     23  N         38.3580  -30.9940   27.9980 N.3   252  CYS252     -0.1221
     24  CA        36.8880  -30.8190   28.2120 C.3   252  CYS252      0.1808
     25  C         36.2900  -31.8920   29.0890 C.2   252  CYS252      0.2601
     26  O         35.2600  -31.6930   29.6750 O.2   252  CYS252     -0.2717
     27  CB        36.0850  -30.7070   26.9180 C.3   252  CYS252      0.0970
     28  SG        35.8680  -32.1780   25.8860 S.3   252  CYS252     -0.0800
     29  N         36.9430  -33.0460   29.1590 N.am  253  TRP253     -0.1976
     30  CA        36.4880  -34.1240   30.0230 C.3   253  TRP253      0.1640
     31  C         36.6150  -33.7160   31.4770 C.2   253  TRP253      0.2290
     32  O         36.0200  -34.3400   32.3460 O.2   253  TRP253     -0.2864
     33  CB        37.3260  -35.3780   29.8020 C.3   253  TRP253      0.0576
     34  CG        38.7900  -35.1240   29.9550 C.ar  253  TRP253      0.0006
     35  CD1       39.5160  -35.1860   31.1010 C.ar  253  TRP253      0.0946
     36  CD2       39.7060  -34.7550   28.9190 C.ar  253  TRP253      0.0152
     37  NE1       40.8300  -34.8810   30.8490 N.ar  253  TRP253     -0.2442
     38  CE2       40.9750  -34.6130   29.5150 C.ar  253  TRP253      0.0810
     39  CE3       39.5770  -34.5290   27.5460 C.ar  253  TRP253      0.0012
     40  CZ2       42.1120  -34.2570   28.7850 C.ar  253  TRP253      0.0191
     41  CZ3       40.7110  -34.1830   26.8170 C.ar  253  TRP253      0.0001
     42  CH2       41.9580  -34.0510   27.4370 C.ar  253  TRP253      0.0015
     43  N         31.4590  -38.8760   18.2990 N.3   277  ASN277     -0.1225
     44  CA        30.9010  -38.5180   17.0060 C.3   277  ASN277      0.1785
     45  C         31.9450  -38.7110   15.9080 C.2   277  ASN277      0.2598
     46  O         33.1450  -38.7450   16.1930 O.2   277  ASN277     -0.2718
     47  CB        30.4290  -37.0680   17.0120 C.3   277  ASN277      0.1169
     48  CG        29.5760  -36.7360   18.2220 C.2   277  ASN277      0.2627
     49  OD1       28.4270  -37.1640   18.3270 O.2   277  ASN277     -0.2716
     50  ND2       30.1330  -35.9590   19.1360 N.am  277  ASN277     -0.0877
     51  N         31.4990  -38.8340   14.6590 N.am  278  SER278     -0.1938
     52  CA        32.4270  -38.9630   13.5380 C.3   278  SER278      0.2055
     53  C         31.9010  -38.3010   12.2650 C.2   278  SER278      0.2642
     54  O         30.6900  -38.1540   12.0690 O.2   278  SER278     -0.2714
     55  CB        32.7030  -40.4350   13.2510 C.3   278  SER278      0.2130
     56  OG        31.5730  -41.0220   12.6350 O.3   278  SER278     -0.2179
     57  N         32.8270  -37.9170   11.3930 N.am  279  ALA279     -0.1977
     58  CA        32.4810  -37.2840   10.1250 C.3   279  ALA279      0.1597
     59  C         33.0780  -38.0570    8.9560 C.2   279  ALA279      0.2287
     60  O         34.0510  -38.7900    9.1200 O.2   279  ALA279     -0.2864
     61  CB        32.9630  -35.8470   10.1050 C.3   279  ALA279      0.0319
     62  N         30.8900  -29.8790    7.3710 N.3   285  ILE285     -0.1245
     63  CA        32.2110  -29.6770    7.9550 C.3   285  ILE285      0.1561
     64  C         32.6500  -28.2180    7.7920 C.2   285  ILE285      0.2260
     65  O         33.1160  -27.6000    8.7480 O.2   285  ILE285     -0.2867
     66  CB        33.2820  -30.6150    7.3480 C.3   285  ILE285      0.0252
     67  CG1       33.0380  -32.0740    7.7510 C.3   285  ILE285      0.0019
     68  CG2       34.6670  -30.2030    7.8220 C.3   285  ILE285      0.0019
     69  CD1       31.7730  -32.6930    7.1870 C.3   285  ILE285      0.0001
     70  N         31.2770  -26.0720   10.5350 N.3   288  PHE288     -0.1227
     71  CA        31.8980  -26.1970   11.8510 C.3   288  PHE288      0.1736
     72  C         33.2980  -25.5770   11.9590 C.2   288  PHE288      0.2595
     73  O         33.7730  -25.3170   13.0650 O.2   288  PHE288     -0.2718
     74  CB        31.9340  -27.6640   12.2720 C.3   288  PHE288      0.0547
     75  CG        30.5730  -28.2540   12.5020 C.ar  288  PHE288     -0.0202
     76  CD1       30.2250  -29.4640   11.9390 C.ar  288  PHE288     -0.0042
     77  CD2       29.6450  -27.6000   13.2970 C.ar  288  PHE288     -0.0042
     78  CE1       28.9750  -30.0080   12.1460 C.ar  288  PHE288     -0.0003
     79  CE2       28.3990  -28.1390   13.5100 C.ar  288  PHE288     -0.0003
     80  CZ        28.0590  -29.3460   12.9250 C.ar  288  PHE288     -0.0000
     81  N         33.9550  -25.3390   10.8240 N.am  289  ARG289     -0.1980
     82  CA        35.2810  -24.7150   10.8440 C.3   289  ARG289      0.1597
     83  C         35.2060  -23.1840   10.8630 C.2   289  ARG289      0.2287
     84  O         34.5400  -22.5650   10.0280 O.2   289  ARG289     -0.2864
     85  CB        36.1260  -25.1980    9.6700 C.3   289  ARG289      0.0334
     86  CG        36.5370  -26.6640    9.9280 C.3   289  ARG289      0.0492
     87  CD        37.6670  -27.0390    8.9990 C.3   289  ARG289      0.2205
     88  NE        37.0670  -26.6780    7.6990 N.pl3 289  ARG289     -0.0865
     89  CZ        37.5800  -26.9910    6.5210 C.cat 289  ARG289      0.5346
     90  NH1       38.7040  -27.7150    6.4380 N.pl3 289  ARG289      0.1354
     91  NH2       36.9990  -26.4910    5.4420 N.pl3 289  ARG289      0.1354
     92  N         29.0960  -26.3040   18.5890 N.3   292  MET292     -0.1230
     93  CA        30.0160  -27.1490   17.8470 C.3   292  MET292      0.1702
     94  C         29.7060  -28.6290   18.0460 C.2   292  MET292      0.2592
     95  O         29.1260  -29.0170   19.0610 O.2   292  MET292     -0.2718
     96  CB        31.4350  -26.8730   18.3410 C.3   292  MET292      0.0401
     97  CG        32.4870  -27.8130   17.7920 C.3   292  MET292      0.0596
     98  SD        32.7600  -27.5330   16.0450 S.3   292  MET292     -0.1393
     99  CE        33.2550  -25.8110   16.0720 C.3   292  MET292      0.0692
    100  N         30.0820  -29.4560   17.0730 N.am  293  ILE293     -0.1966
    101  CA        30.1550  -30.8970   17.3100 C.3   293  ILE293      0.1727
    102  C         31.6270  -31.3570   17.3640 C.2   293  ILE293      0.2616
    103  O         32.4310  -30.9510   16.5320 O.2   293  ILE293     -0.2715
    104  CB        29.3350  -31.6960   16.2840 C.3   293  ILE293      0.0290
    105  CG1       27.8620  -31.2600   16.3360 C.3   293  ILE293      0.0022
    106  CG2       29.4820  -33.2030   16.5360 C.3   293  ILE293      0.0023
    107  CD1       26.9440  -32.0410   15.4280 C.3   293  ILE293      0.0001
    108  N         31.9740  -32.1730   18.3610 N.am  294  TRP294     -0.1960
    109  CA        33.3600  -32.5770   18.6080 C.3   294  TRP294      0.1771
    110  C         33.5350  -34.0670   18.3330 C.2   294  TRP294      0.2620
    111  O         32.5500  -34.7930   18.2240 O.2   294  TRP294     -0.2715
    112  CB        33.7720  -32.2480   20.0630 C.3   294  TRP294      0.0590
    113  CG        33.5880  -30.7950   20.4120 C.ar  294  TRP294      0.0006
    114  CD1       32.4060  -30.1530   20.6270 C.ar  294  TRP294      0.0946
    115  CD2       34.6130  -29.8030   20.5650 C.ar  294  TRP294      0.0152
    116  NE1       32.6280  -28.8290   20.9050 N.ar  294  TRP294     -0.2442
    117  CE2       33.9740  -28.5860   20.8670 C.ar  294  TRP294      0.0810
    118  CE3       36.0060  -29.8300   20.4860 C.ar  294  TRP294      0.0012
    119  CZ2       34.6780  -27.4050   21.0840 C.ar  294  TRP294      0.0191
    120  CZ3       36.7010  -28.6590   20.7000 C.ar  294  TRP294      0.0001
    121  CH2       36.0360  -27.4610   20.9960 C.ar  294  TRP294      0.0015
    122  N         34.7780  -34.5330   18.2040 N.am  295  ASN295     -0.1958
    123  CA        34.9950  -35.9780   18.0760 C.3   295  ASN295      0.1819
    124  C         34.4260  -36.7650   19.2680 C.2   295  ASN295      0.2621
    125  O         33.9380  -37.8870   19.0970 O.2   295  ASN295     -0.2715
    126  CB        36.4720  -36.3270   17.8410 C.3   295  ASN295      0.1195
    127  CG        37.3750  -35.8290   18.9380 C.2   295  ASN295      0.2630
    128  OD1       37.1820  -34.7330   19.4620 O.2   295  ASN295     -0.2716
    129  ND2       38.3710  -36.6370   19.3010 N.am  295  ASN295     -0.0877
    130  N         34.4810  -36.1760   20.4660 N.am  296  PHE296     -0.1960
    131  CA        33.8160  -36.7710   21.6360 C.3   296  PHE296      0.1771
    132  C         33.2760  -35.7220   22.6190 C.2   296  PHE296      0.2619
    133  O         33.6290  -34.5390   22.5460 O.2   296  PHE296     -0.2715
    134  CB        34.7310  -37.7800   22.3590 C.3   296  PHE296      0.0574
    135  CG        35.8530  -37.1440   23.1270 C.ar  296  PHE296     -0.0200
    136  CD1       35.6560  -36.7060   24.4360 C.ar  296  PHE296     -0.0042
    137  CD2       37.1030  -36.9910   22.5560 C.ar  296  PHE296     -0.0042
    138  CE1       36.6860  -36.1230   25.1500 C.ar  296  PHE296     -0.0003
    139  CE2       38.1330  -36.4050   23.2530 C.ar  296  PHE296     -0.0003
    140  CZ        37.9330  -35.9710   24.5520 C.ar  296  PHE296     -0.0000
    141  N         32.4190  -36.1650   23.5380 N.am  297  HIS297     -0.1973
    142  CA        31.8250  -35.2740   24.5250 C.3   297  HIS297      0.1656
    143  C         31.4750  -36.0360   25.8120 C.2   297  HIS297      0.2291
    144  O         30.9340  -37.1440   25.7640 O.2   297  HIS297     -0.2864
    145  CB        30.5830  -34.5790   23.9590 C.3   297  HIS297      0.0771
    146  CG        29.9300  -33.6360   24.9260 C.ar  297  HIS297      0.0820
    147  ND1       30.6300  -32.6500   25.5910 N.ar  297  HIS297     -0.2267
    148  CD2       28.6490  -33.5450   25.3610 C.ar  297  HIS297      0.1154
    149  CE1       29.8030  -31.9770   26.3740 C.ar  297  HIS297      0.1986
    150  NE2       28.5950  -32.4990   26.2500 N.ar  297  HIS297     -0.2212
    151  N         29.0140  -29.0190   31.1400 N.3   322  THR322     -0.1204
    152  CA        29.7560  -28.3400   30.0850 C.3   322  THR322      0.1979
    153  C         29.2500  -26.9170   29.8340 C.2   322  THR322      0.2459
    154  O         28.0420  -26.6650   29.8640 O.2   322  THR322     -0.2732
    155  CB        29.6820  -29.1360   28.7620 C.3   322  THR322      0.1783
    156  OG1       30.9770  -29.1850   28.1530 O.3   322  THR322     -0.2211
    157  CG2       28.6680  -28.5090   27.7980 C.3   322  THR322      0.0376
    158  N         30.1870  -25.9850   29.5910 N.am  323  PRO323     -0.2728
    159  CA        29.9800  -24.5660   29.2740 C.3   323  PRO323      0.1401
    160  C         28.8710  -24.3260   28.2660 C.2   323  PRO323      0.2269
    161  O         29.1120  -24.6050   27.0970 O.2   323  PRO323     -0.2865
    162  CB        31.3180  -24.1660   28.6580 C.3   323  PRO323      0.0296
    163  CG        32.3030  -24.9730   29.4290 C.3   323  PRO323      0.0237
    164  CD        31.6210  -26.2990   29.7290 C.3   323  PRO323      0.0939
    165  N         18.5680  -30.5340   24.9590 N.3   346  PHE346     -0.1241
    166  CA        20.0180  -30.3440   24.8990 C.3   346  PHE346      0.1605
    167  C         20.7820  -31.6720   24.9700 C.2   346  PHE346      0.2264
    168  O         21.7540  -31.8840   24.2370 O.2   346  PHE346     -0.2867
    169  CB        20.4980  -29.3920   25.9920 C.3   346  PHE346      0.0534
    170  CG        21.9920  -29.1650   25.9900 C.ar  346  PHE346     -0.0203
    171  CD1       22.5250  -27.9400   25.5910 C.ar  346  PHE346     -0.0042
    172  CD2       22.8680  -30.1770   26.3840 C.ar  346  PHE346     -0.0042
    173  CE1       23.9030  -27.7210   25.5990 C.ar  346  PHE346     -0.0003
    174  CE2       24.2470  -29.9760   26.3810 C.ar  346  PHE346     -0.0003
    175  CZ        24.7640  -28.7390   25.9930 C.ar  346  PHE346     -0.0000
    176  N         22.9320  -33.9370   21.8930 N.3   350  GLU350     -0.1245
    177  CA        24.2800  -34.4920   22.0320 C.3   350  GLU350      0.1567
    178  C         24.4310  -35.8940   21.4100 C.2   350  GLU350      0.2260
    179  O         25.5180  -36.2600   20.9550 O.2   350  GLU350     -0.2867
    180  CB        24.7230  -34.5260   23.5000 C.3   350  GLU350      0.0388
    181  CG        25.0370  -33.1600   24.1260 C.3   350  GLU350      0.1160
    182  CD        26.0670  -32.3550   23.3320 C.2   350  GLU350      0.3649
    183  OE1       27.1260  -32.9090   22.9340 O.co2 350  GLU350     -0.2457
    184  OE2       25.8020  -31.1570   23.0880 O.co2 350  GLU350     -0.2457
    185  N         27.6190  -37.1800    8.4500 N.3   367  LEU367     -0.1245
    186  CA        27.7370  -36.8350    9.8610 C.3   367  LEU367      0.1561
    187  C         27.0510  -37.8960   10.6980 C.2   367  LEU367      0.2260
    188  O         25.8790  -38.2170   10.4830 O.2   367  LEU367     -0.2867
    189  CB        27.1430  -35.4550   10.1610 C.3   367  LEU367      0.0270
    190  CG        26.9840  -35.0900   11.6470 C.3   367  LEU367      0.0019
    191  CD1       28.3380  -35.0400   12.3500 C.3   367  LEU367      0.0001
    192  CD2       26.2440  -33.7710   11.8220 C.3   367  LEU367      0.0001
@<TRIPOS>BOND
     1    91    89    1
     2    90    89    1
     3    89    88    2
     4    69    67    1
     5    66    67    1
     6    66    68    1
     7    66    63    1
     8    62    63    1
     9    88    87    1
    10    64    63    1
    11    64    65    2
    12   185   186    1
    13    59    60    2
    14    59    58    1
    15    87    86    1
    16    85    86    1
    17    85    82    1
    18   186   189    1
    19   186   187    1
    20    84    83    2
    21    61    58    1
    22    58    57    1
    23   189   190    1
    24   188   187    2
    25    70    71    1
    26    81    82    1
    27    81    72   am
    28    82    83    1
    29    57    53   am
    30   190   192    1
    31   190   191    1
    32    71    72    1
    33    71    74    1
    34    76    78   ar
    35    76    75   ar
    36    72    73    2
    37    54    53    2
    38    78    80   ar
    39    53    52    1
    40    74    75    1
    41    75    77   ar
    42    56    55    1
    43    80    79   ar
    44    55    52    1
    45    77    79   ar
    46    52    51    1
    47    51    45   am
    48   107   105    1
    49    45    46    2
    50    45    44    1
    51    98    99    1
    52    98    97    1
    53   104   105    1
    54   104   106    1
    55   104   101    1
    56   103   102    2
    57    44    47    1
    58    44    43    1
    59    47    48    1
    60   100   101    1
    61   100    94   am
    62   101   102    1
    63   102   108   am
    64    97    96    1
    65   126   123    1
    66   126   127    1
    67    93    94    1
    68    93    96    1
    69    93    92    1
    70    94    95    2
    71   123   122    1
    72   123   124    1
    73   122   110   am
    74    48    49    2
    75    48    50   am
    76   111   110    2
    77   110   109    1
    78   108   109    1
    79   109   112    1
    80   127   129   am
    81   127   128    2
    82   125   124    2
    83   124   130   am
    84   112   113    1
    85    13    12    2
    86   113   115   ar
    87   113   114   ar
    88   130   131    1
    89   118   115   ar
    90   118   120   ar
    91    12    11    1
    92   115   117   ar
    93   114   116   ar
    94    22    21    1
    95   120   121   ar
    96   117   116   ar
    97   117   119   ar
    98   179   178    2
    99   121   119   ar
   100   178   177    1
   101    11    10    1
   102   131   134    1
   103   131   132    1
   104    21    20    1
   105   176   177    1
   106   177   180    1
   107   134   135    1
   108   133   132    2
   109   137   135   ar
   110   137   139   ar
   111   132   141   am
   112    10     3   am
   113   183   182   ar
   114    20    19    1
   115    19    18    1
   116   184   182   ar
   117   135   136   ar
   118   139   140   ar
   119   182   181    1
   120     4     3    2
   121   180   181    1
   122   141   142    1
   123     3     2    1
   124    14    15    1
   125   145   142    1
   126   145   146    1
   127   168   167    2
   128    18    15    1
   129   136   138   ar
   130   142   143    1
   131   140   138   ar
   132    15    16    1
   133   166   165    1
   134   166   167    1
   135   166   169    1
   136   146   148   ar
   137   146   147   ar
   138     2     5    1
   139     2     1    1
   140   148   150   ar
   141     5     6    1
   142   171   173   ar
   143   171   170   ar
   144   147   149   ar
   145   173   175   ar
   146   144   143    2
   147    28    27    1
   148   170   169    1
   149   170   172   ar
   150   175   174   ar
   151     6     7    1
   152    16    17    2
   153   150   149   ar
   154   174   172   ar
   155    41    42   ar
   156    41    39   ar
   157    27    24    1
   158     9     7   am
   159     7     8    2
   160   161   160    2
   161    42    40   ar
   162    39    36   ar
   163   157   155    1
   164    23    24    1
   165   156   155    1
   166    24    25    1
   167   160   159    1
   168   162   159    1
   169   162   163    1
   170   155   152    1
   171    40    38   ar
   172    36    38   ar
   173    36    34   ar
   174    25    29   am
   175    25    26    2
   176    29    30    1
   177   159   158    1
   178   163   164    1
   179    38    37   ar
   180   158   164    1
   181   158   153   am
   182    33    34    1
   183    33    30    1
   184   153   154    2
   185   153   152    1
   186    34    35   ar
   187    30    31    1
   188   152   151    1
   189    37    35   ar
   190    31    32    2
