@<TRIPOS>MOLECULE
tmp/3s3tC00.pdb
 157 149 0 0 0
SMALL
GASTEIGER

@<TRIPOS>ATOM
      1  N         11.5850  -15.3240   -6.3590 N.3    10  PRO10      -0.2102
      2  CA        12.2970  -14.9340   -5.1030 C.3    10  PRO10       0.1504
      3  C         11.7300  -15.7000   -3.9290 C.2    10  PRO10       0.2576
      4  O         10.5120  -15.7630   -3.7520 O.2    10  PRO10      -0.2718
      5  CB        12.0460  -13.4310   -4.9920 C.3    10  PRO10       0.0282
      6  CG        11.6310  -12.9990   -6.3120 C.3    10  PRO10       0.0208
      7  CD        10.8990  -14.1820   -6.9640 C.3    10  PRO10       0.0893
      8  N         12.6080  -16.3260   -3.1660 N.am   11  VAL11      -0.1966
      9  CA        12.2500  -17.1120   -2.0210 C.3    11  VAL11       0.1727
     10  C         12.9590  -16.6260   -0.7620 C.2    11  VAL11       0.2616
     11  O         14.1540  -16.2940   -0.7950 O.2    11  VAL11      -0.2715
     12  CB        12.5470  -18.6050   -2.2350 C.3    11  VAL11       0.0290
     13  CG1       11.6080  -19.1850   -3.3110 C.3    11  VAL11       0.0023
     14  CG2       14.0490  -18.8960   -2.5440 C.3    11  VAL11       0.0023
     15  N         12.2240  -16.5860    0.3550 N.am   12  ASP12      -0.1971
     16  CA        12.8890  -16.4430    1.6520 C.3    12  ASP12       0.1709
     17  C         12.8790  -17.8460    2.2520 C.2    12  ASP12       0.2293
     18  O         12.7950  -18.7950    1.4940 O.2    12  ASP12      -0.2864
     19  CB        12.2140  -15.3930    2.5260 C.3    12  ASP12       0.1436
     20  CG        10.7500  -15.6700    2.7700 C.2    12  ASP12       0.3671
     21  OD1       10.2410  -16.7840    2.5010 O.co2  12  ASP12      -0.2456
     22  OD2       10.1160  -14.7300    3.2310 O.co2  12  ASP12      -0.2456
     23  N          6.9000  -19.0150    0.7920 N.3    17  ALA17      -0.1245
     24  CA         7.8150  -18.9040   -0.3420 C.3    17  ALA17       0.1562
     25  C          8.0680  -20.2440   -1.0490 C.2    17  ALA17       0.2260
     26  O          8.1480  -20.3110   -2.2950 O.2    17  ALA17      -0.2867
     27  CB         9.1390  -18.2770    0.0590 C.3    17  ALA17       0.0290
     28  N          5.3320  -20.9520   -3.1930 N.3    20  ALA20      -0.1245
     29  CA         5.4860  -20.1480   -4.4310 C.3    20  ALA20       0.1562
     30  C          6.4950  -20.7930   -5.3780 C.2    20  ALA20       0.2260
     31  O          6.3480  -20.7460   -6.6090 O.2    20  ALA20      -0.2867
     32  CB         5.8770  -18.6970   -4.1540 C.3    20  ALA20       0.0290
     33  N         15.8070  -17.1800   -6.3330 N.3    38  LEU38      -0.1231
     34  CA        16.6860  -16.1330   -5.8200 C.3    38  LEU38       0.1693
     35  C         16.3480  -15.8790   -4.3680 C.2    38  LEU38       0.2592
     36  O         15.1940  -15.5170   -4.0440 O.2    38  LEU38      -0.2718
     37  CB        16.4600  -14.8330   -6.6340 C.3    38  LEU38       0.0284
     38  CG        17.0760  -13.5840   -6.0130 C.3    38  LEU38       0.0019
     39  CD1       18.6100  -13.6560   -6.1730 C.3    38  LEU38       0.0001
     40  CD2       16.5460  -12.3250   -6.6470 C.3    38  LEU38       0.0001
     41  N         17.3250  -16.0960   -3.4980 N.am   39  TYR39      -0.1962
     42  CA        17.2400  -15.8250   -2.0620 C.3    39  TYR39       0.1771
     43  C         18.0800  -14.5700   -1.7770 C.2    39  TYR39       0.2619
     44  O         19.2990  -14.5320   -2.0910 O.2    39  TYR39      -0.2715
     45  CB        17.7790  -17.0120   -1.2520 C.3    39  TYR39       0.0574
     46  CG        17.6150  -16.8670    0.2470 C.ar   39  TYR39      -0.0198
     47  CD1       18.4320  -16.0030    0.9870 C.ar   39  TYR39      -0.0009
     48  CD2       16.6640  -17.6180    0.9380 C.ar   39  TYR39      -0.0009
     49  CE1       18.2880  -15.8770    2.3730 C.ar   39  TYR39       0.0417
     50  CE2       16.5010  -17.4740    2.3160 C.ar   39  TYR39       0.0417
     51  CZ        17.3020  -16.5890    3.0200 C.ar   39  TYR39       0.1957
     52  OH        17.1510  -16.4220    4.3810 O.3    39  TYR39      -0.2866
     53  N         17.4780  -13.5540   -1.1760 N.am   40  VAL40      -0.1977
     54  CA        18.2580  -12.3980   -0.8010 C.3    40  VAL40       0.1596
     55  C         18.6060  -12.4230    0.6900 C.2    40  VAL40       0.2287
     56  O         17.7320  -12.4830    1.5520 O.2    40  VAL40      -0.2864
     57  CB        17.5450  -11.1100   -1.1590 C.3    40  VAL40       0.0276
     58  CG1       18.4430   -9.9440   -0.8270 C.3    40  VAL40       0.0022
     59  CG2       17.1860  -11.1370   -2.6610 C.3    40  VAL40       0.0022
     60  N         19.5190  -10.4710    3.6780 N.3    42  ASP42      -0.1239
     61  CA        19.3380   -9.0600    4.0470 C.3    42  ASP42       0.1674
     62  C         20.5470   -8.5780    4.8690 C.2    42  ASP42       0.2266
     63  O         20.7960   -9.0510    5.9700 O.2    42  ASP42      -0.2867
     64  CB        17.9850   -8.8550    4.7850 C.3    42  ASP42       0.1410
     65  CG        17.6810   -7.3840    5.1020 C.2    42  ASP42       0.3668
     66  OD1       18.5890   -6.5400    5.0070 O.co2  42  ASP42      -0.2456
     67  OD2       16.5040   -7.0820    5.4440 O.co2  42  ASP42      -0.2456
     68  N         16.1840   -7.0480    0.3250 N.3    93  PRO93      -0.2116
     69  CA        15.4280   -7.9920   -0.5090 C.3    93  PRO93       0.1372
     70  C         14.5370   -7.3500   -1.6090 C.2    93  PRO93       0.2244
     71  O         14.6990   -7.6710   -2.7610 O.2    93  PRO93      -0.2868
     72  CB        14.6240   -8.7780    0.5140 C.3    93  PRO93       0.0268
     73  CG        15.6150   -8.8390    1.7030 C.3    93  PRO93       0.0207
     74  CD        16.1300   -7.4430    1.7560 C.3    93  PRO93       0.0892
     75  N         15.3260   -7.7470   -5.6940 N.3    97  ILE97      -0.1245
     76  CA        14.4130   -8.4380   -6.5940 C.3    97  ILE97       0.1561
     77  C         14.0790   -7.5490   -7.7600 C.2    97  ILE97       0.2260
     78  O         14.1510   -7.9620   -8.8870 O.2    97  ILE97      -0.2867
     79  CB        13.1140   -8.8440   -5.8480 C.3    97  ILE97       0.0252
     80  CG1       13.4230   -9.9810   -4.8770 C.3    97  ILE97       0.0019
     81  CG2       12.0280   -9.3740   -6.7910 C.3    97  ILE97       0.0019
     82  CD1       12.3010  -10.1470   -3.8240 C.3    97  ILE97       0.0001
     83  N          5.8260  -14.9290   -6.4860 N.3   112  LEU112     -0.1231
     84  CA         6.0330  -14.5830   -5.0890 C.3   112  LEU112      0.1693
     85  C          5.0170  -15.2030   -4.1780 C.2   112  LEU112      0.2592
     86  O          3.8090  -15.2980   -4.5160 O.2   112  LEU112     -0.2718
     87  CB         5.9190  -13.0660   -4.8850 C.3   112  LEU112      0.0284
     88  CG         6.9220  -12.1820   -5.5860 C.3   112  LEU112      0.0019
     89  CD1        6.3670  -10.7510   -5.6450 C.3   112  LEU112      0.0001
     90  CD2        8.2510  -12.2190   -4.8840 C.3   112  LEU112      0.0001
     91  N          5.4380  -15.5950   -2.9680 N.am  113  GLY113     -0.1957
     92  CA         4.4440  -15.8720   -1.9520 C.3   113  GLY113      0.1869
     93  C          3.7110  -14.6110   -1.5210 C.2   113  GLY113      0.2309
     94  O          4.2750  -13.4760   -1.4970 O.2   113  GLY113     -0.2863
     95  N          2.8700  -13.9730    1.6290 N.3   115  THR115     -0.1203
     96  CA         3.5470  -13.5890    2.8600 C.3   115  THR115      0.1994
     97  C          4.8630  -14.3690    2.9540 C.2   115  THR115      0.2618
     98  O          5.2210  -15.1380    2.0490 O.2   115  THR115     -0.2717
     99  CB         2.6790  -13.8720    4.0740 C.3   115  THR115      0.1784
    100  OG1        2.4600  -15.2990    4.1510 O.3   115  THR115     -0.2211
    101  CG2        1.3580  -13.1300    3.9020 C.3   115  THR115      0.0376
    102  N          5.6110  -14.1110    4.0190 N.am  116  GLY116     -0.1942
    103  CA         6.9740  -14.6030    4.1490 C.3   116  GLY116      0.2014
    104  C          7.2320  -14.9290    5.6000 C.2   116  GLY116      0.2640
    105  O          6.3210  -15.3710    6.3130 O.2   116  GLY116     -0.2714
    106  N          8.4590  -14.7080    6.0630 N.am  117  THR117     -0.1936
    107  CA         8.8100  -15.2090    7.3870 C.3   117  THR117      0.2028
    108  C          8.2410  -14.3400    8.4970 C.2   117  THR117      0.2642
    109  O          8.0080  -14.8120    9.6060 O.2   117  THR117     -0.2714
    110  CB        10.3680  -15.2910    7.5940 C.3   117  THR117      0.1808
    111  OG1       10.9390  -13.9780    7.5720 O.3   117  THR117     -0.2208
    112  CG2       11.0090  -16.1300    6.5510 C.3   117  THR117      0.0379
    113  N          8.0060  -13.0600    8.2240 N.am  118  ASN118     -0.1957
    114  CA         7.7840  -12.1320    9.3010 C.3   118  ASN118      0.1819
    115  C          6.3590  -11.8700    9.7080 C.2   118  ASN118      0.2622
    116  O          6.0630  -11.7470   10.9200 O.2   118  ASN118     -0.2715
    117  CB         8.4950  -10.7900    8.9940 C.3   118  ASN118      0.1195
    118  CG         9.8850  -10.7120    9.5990 C.2   118  ASN118      0.2630
    119  OD1       10.6600  -11.6690    9.5520 O.2   118  ASN118     -0.2716
    120  ND2       10.2200   -9.5560   10.1340 N.am  118  ASN118     -0.0877
    121  N          5.4530  -11.7760    8.7440 N.am  119  SER119     -0.1950
    122  CA         4.1570  -11.2420    9.0960 C.3   119  SER119      0.1924
    123  C          2.9490  -12.1320    8.6890 C.2   119  SER119      0.2314
    124  O          1.8430  -11.6160    8.5850 O.2   119  SER119     -0.2863
    125  CB         3.9780   -9.8080    8.5330 C.3   119  SER119      0.2116
    126  OG         5.0120   -8.8460    8.9000 O.3   119  SER119     -0.2180
    127  N         -0.6970   -9.7570    8.3160 N.3   123  VAL123     -0.1245
    128  CA        -1.0490   -9.1910    7.0050 C.3   123  VAL123      0.1561
    129  C         -1.4780  -10.3040    6.0580 C.2   123  VAL123      0.2260
    130  O         -1.0910  -11.4460    6.2830 O.2   123  VAL123     -0.2867
    131  CB         0.1800   -8.4540    6.3820 C.3   123  VAL123      0.0252
    132  CG1        0.7660   -7.4770    7.3900 C.3   123  VAL123      0.0019
    133  CG2        1.2440   -9.4410    5.8890 C.3   123  VAL123      0.0019
    134  N          2.6060   -9.3960    2.2790 N.3   126  GLY126     -0.1210
    135  CA         3.7870   -8.7710    2.8920 C.3   126  GLY126      0.1956
    136  C          4.3550   -7.6200    2.0900 C.2   126  GLY126      0.2613
    137  O          3.9740   -7.4190    0.9050 O.2   126  GLY126     -0.2717
    138  N          5.1990   -6.8220    2.7350 N.am  127  SER127     -0.1938
    139  CA         5.7200   -5.5970    2.1040 C.3   127  SER127      0.2055
    140  C          6.7240   -5.8740    0.9600 C.2   127  SER127      0.2644
    141  O          6.9040   -5.0380    0.0910 O.2   127  SER127     -0.2714
    142  CB         6.3670   -4.6640    3.1510 C.3   127  SER127      0.2130
    143  OG         7.4990   -5.3020    3.7210 O.3   127  SER127     -0.2179
    144  N          7.3260   -7.0270    0.9200 N.am  128  THR128     -0.1936
    145  CA         8.2470   -7.3730   -0.2020 C.3   128  THR128      0.2028
    146  C          7.3940   -7.6310   -1.4420 C.2   128  THR128      0.2642
    147  O          7.6660   -7.0800   -2.5130 O.2   128  THR128     -0.2714
    148  CB         9.1430   -8.6090    0.0930 C.3   128  THR128      0.1808
    149  OG1        9.9140   -8.3890    1.2820 O.3   128  THR128     -0.2208
    150  CG2       10.1490   -8.9510   -1.0820 C.3   128  THR128      0.0379
    151  N          6.3620   -8.4560   -1.2880 N.am  129  THR129     -0.1950
    152  CA         5.3760   -8.6710   -2.3610 C.3   129  THR129      0.1897
    153  C          4.7460   -7.4160   -2.8740 C.2   129  THR129      0.2313
    154  O          4.7510   -7.2090   -4.0630 O.2   129  THR129     -0.2863
    155  CB         4.3440   -9.7010   -1.9650 C.3   129  THR129      0.1794
    156  OG1        5.0420  -10.9280   -1.7620 O.3   129  THR129     -0.2208
    157  CG2        3.2370   -9.8760   -3.0530 C.3   129  THR129      0.0378
@<TRIPOS>BOND
     1    78    77    2
     2    77    76    1
     3     7     1    1
     4     7     6    1
     5    81    79    1
     6    40    38    1
     7    37    38    1
     8    37    34    1
     9    31    30    2
    10    76    79    1
    11    76    75    1
    12    83    84    1
    13     1     2    1
    14    33    34    1
    15     6     5    1
    16    39    38    1
    17    79    80    1
    18    34    35    1
    19    89    88    1
    20    88    87    1
    21    88    90    1
    22    30    29    1
    23     2     5    1
    24     2     3    1
    25    84    87    1
    26    84    85    1
    27    80    82    1
    28    86    85    2
    29    29    32    1
    30    29    28    1
    31    35    36    2
    32    35    41   am
    33    85    91   am
    34   154   153    2
    35     3     4    2
    36     3     8   am
    37    41    42    1
    38    13    12    1
    39     8     9    1
    40   157   155    1
    41    91    92    1
    42   153   152    1
    43    71    70    2
    44    59    57    1
    45    14    12    1
    46   147   146    2
    47   152   155    1
    48   152   151    1
    49    26    25    2
    50    12     9    1
    51    44    43    2
    52    42    43    1
    53    42    45    1
    54     9    10    1
    55   155   156    1
    56    92    93    1
    57    43    53   am
    58    70    69    1
    59    93    94    2
    60   146   151   am
    61   146   145    1
    62    45    46    1
    63    53    54    1
    64    57    58    1
    65    57    54    1
    66   150   148    1
    67    25    24    1
    68    54    55    1
    69    11    10    2
    70    10    15   am
    71    69    68    1
    72    69    72    1
    73    24    27    1
    74    24    23    1
    75   145   148    1
    76   145   144    1
    77   141   140    2
    78   148   149    1
    79    46    48   ar
    80    46    47   ar
    81    68    74    1
    82    15    16    1
    83    72    73    1
    84    55    56    2
    85   137   136    2
    86   144   140   am
    87    48    50   ar
    88   140   139    1
    89    47    49   ar
    90    18    17    2
    91    95    96    1
    92    16    17    1
    93    16    19    1
    94    73    74    1
    95    98    97    2
    96   136   138   am
    97   136   135    1
    98   139   138    1
    99   139   142    1
   100   134   135    1
   101    50    51   ar
   102    49    51   ar
   103    21    20   ar
   104    19    20    1
   105    20    22   ar
   106    96    97    1
   107    96    99    1
   108    97   102   am
   109    51    52    1
   110   142   143    1
   111    60    61    1
   112   101    99    1
   113   102   103    1
   114    61    64    1
   115    61    62    1
   116    99   100    1
   117   103   104    1
   118    64    65    1
   119    62    63    2
   120    66    65   ar
   121    65    67   ar
   122   104   106   am
   123   104   105    2
   124   133   131    1
   125   129   130    2
   126   129   128    1
   127   106   107    1
   128   131   128    1
   129   131   132    1
   130   112   110    1
   131   128   127    1
   132   107   110    1
   133   107   108    1
   134   111   110    1
   135   113   108   am
   136   113   114    1
   137   108   109    2
   138   125   126    1
   139   125   122    1
   140   124   123    2
   141   123   122    1
   142   121   122    1
   143   121   115   am
   144   117   114    1
   145   117   118    1
   146   114   115    1
   147   119   118    2
   148   118   120   am
   149   115   116    2
