@<TRIPOS>MOLECULE
tmp/3s3vA00.pdb
 161 155 0 0 0
SMALL
GASTEIGER

@<TRIPOS>ATOM
      1  N         21.8920   12.1680    1.6950 N.3     7  ILE7       -0.1231
      2  CA        21.2490   11.2590    2.6430 C.3     7  ILE7        0.1692
      3  C         21.2700    9.8410    2.1350 C.2     7  ILE7        0.2592
      4  O         20.9120    9.6130    0.9770 O.2     7  ILE7       -0.2718
      5  CB        19.8620   11.8220    3.0240 C.3     7  ILE7        0.0266
      6  CG1       19.1390   10.9640    4.1330 C.3     7  ILE7        0.0019
      7  CG2       18.8680   11.9250    1.7970 C.3     7  ILE7        0.0020
      8  CD1       17.9280   11.6200    4.8710 C.3     7  ILE7        0.0001
      9  N         21.5960    8.8890    3.0010 N.am    8  VAL8       -0.1966
     10  CA        21.7580    7.4780    2.6550 C.3     8  VAL8        0.1727
     11  C         21.5290    6.5670    3.8280 C.2     8  VAL8        0.2616
     12  O         21.6970    7.0240    4.9970 O.2     8  VAL8       -0.2715
     13  CB        23.2020    7.2500    2.0980 C.3     8  VAL8        0.0290
     14  CG1       24.3070    7.2750    3.2280 C.3     8  VAL8        0.0023
     15  CG2       23.3070    5.8880    1.2740 C.3     8  VAL8        0.0023
     16  N         21.1310    5.3110    3.5690 N.am    9  ALA9       -0.1977
     17  CA        21.1740    4.2050    4.5470 C.3     9  ALA9        0.1597
     18  C         22.1730    3.1930    4.0060 C.2     9  ALA9        0.2287
     19  O         22.1730    2.8630    2.7970 O.2     9  ALA9       -0.2864
     20  CB        19.8620    3.6090    4.7990 C.3     9  ALA9        0.0319
     21  N         16.2970   -2.5320   -2.0220 N.3    22  LEU22      -0.1245
     22  CA        16.9650   -2.4750   -0.6860 C.3    22  LEU22       0.1561
     23  C         17.6900   -3.7640   -0.4220 C.2    22  LEU22       0.2260
     24  O         17.0970   -4.8350   -0.6810 O.2    22  LEU22      -0.2867
     25  CB        15.9260   -2.0780    0.3800 C.3    22  LEU22       0.0270
     26  CG        16.0230   -0.5420    0.0400 C.3    22  LEU22       0.0019
     27  CD1       14.7630    0.2580   -0.0640 C.3    22  LEU22       0.0001
     28  CD2       17.0370    0.2600    0.8710 C.3    22  LEU22       0.0001
     29  N         12.5540    3.9790    9.4410 N.3    30  GLU30      -0.1231
     30  CA        13.7860    4.5400    8.7770 C.3    30  GLU30       0.1699
     31  C         13.3620    5.3330    7.5020 C.2    30  GLU30       0.2588
     32  O         13.8210    6.4920    7.2670 O.2    30  GLU30      -0.2718
     33  CB        14.7380    3.4350    8.4990 C.3    30  GLU30       0.0402
     34  CG        16.2590    3.8680    8.3460 C.3    30  GLU30       0.1161
     35  CD        16.5420    4.7290    7.1490 C.2    30  GLU30       0.3649
     36  OE1       17.2710    5.7500    7.3180 O.co2  30  GLU30      -0.2457
     37  OE2       16.0650    4.4430    6.0490 O.co2  30  GLU30      -0.2457
     38  N         12.3830    4.7970    6.7640 N.am   31  PHE31      -0.2029
     39  CA        11.8520    5.5860    5.6320 C.3    31  PHE31       0.1325
     40  C         11.0980    6.8380    6.0730 C.3    31  PHE31       0.2039
     41  O         11.2150    7.9110    5.3680 O.3    31  PHE31      -0.2185
     42  CB        10.8680    4.7850    4.8230 C.3    31  PHE31       0.0507
     43  CG        11.4530    3.7690    3.9620 C.ar   31  PHE31      -0.0204
     44  CD1       12.7890    3.7930    3.6060 C.ar   31  PHE31      -0.0042
     45  CD2       10.6530    2.7290    3.4070 C.ar   31  PHE31      -0.0042
     46  CE1       13.3380    2.8250    2.6750 C.ar   31  PHE31      -0.0003
     47  CE2       11.1630    1.7300    2.5570 C.ar   31  PHE31      -0.0003
     48  CZ        12.5170    1.7960    2.1250 C.ar   31  PHE31      -0.0000
     49  N         11.8720    8.7570    8.5370 N.3    33  TYR33      -0.1227
     50  CA        12.9630    9.7080    8.7750 C.3    33  TYR33       0.1736
     51  C         13.4880   10.3580    7.4480 C.2    33  TYR33       0.2595
     52  O         13.6220   11.5900    7.4380 O.2    33  TYR33      -0.2718
     53  CB        14.1090    8.9300    9.4510 C.3    33  TYR33       0.0548
     54  CG        15.3960    9.7650    9.6290 C.ar   33  TYR33      -0.0200
     55  CD1       16.5210    9.5220    8.7950 C.ar   33  TYR33      -0.0009
     56  CD2       15.4740   10.7450   10.6120 C.ar   33  TYR33      -0.0009
     57  CE1       17.7040   10.2620    8.9660 C.ar   33  TYR33       0.0417
     58  CE2       16.7080   11.5390   10.8300 C.ar   33  TYR33       0.0417
     59  CZ        17.7880   11.2430    9.9670 C.ar   33  TYR33       0.1957
     60  OH        18.9480   11.9670   10.1510 O.3    33  TYR33      -0.2866
     61  N         13.6800    9.5130    6.4550 N.am   34  PHE34      -0.1962
     62  CA        14.1300   10.0320    5.1320 C.3    34  PHE34       0.1771
     63  C         13.0780   11.0550    4.6610 C.2    34  PHE34       0.2619
     64  O         13.4620   12.1510    4.2210 O.2    34  PHE34      -0.2715
     65  CB        14.2560    8.9060    4.1330 C.3    34  PHE34       0.0574
     66  CG        14.4090    9.4110    2.6920 C.ar   34  PHE34      -0.0200
     67  CD1       15.6950    9.5610    2.1190 C.ar   34  PHE34      -0.0042
     68  CD2       13.2730    9.6780    1.9760 C.ar   34  PHE34      -0.0042
     69  CE1       15.8340   10.0390    0.8130 C.ar   34  PHE34      -0.0003
     70  CE2       13.3890   10.1840    0.6800 C.ar   34  PHE34      -0.0003
     71  CZ        14.6690   10.3180    0.0740 C.ar   34  PHE34      -0.0000
     72  N         11.7800   10.7140    4.7470 N.am   35  LYS35      -0.1977
     73  CA        10.7490   11.7010    4.2480 C.3    35  LYS35       0.1596
     74  C         10.7140   12.9710    5.0240 C.2    35  LYS35       0.2287
     75  O         10.6580   14.0730    4.4540 O.2    35  LYS35      -0.2864
     76  CB         9.3560   10.9880    4.3550 C.3    35  LYS35       0.0298
     77  CG         9.3570    9.7500    3.6800 C.3    35  LYS35       0.0038
     78  CD         9.8340    9.6650    2.3550 C.3    35  LYS35       0.0206
     79  CE         9.2730   10.6720    1.3710 C.3    35  LYS35       0.1093
     80  NZ         9.8310   10.0360    0.3670 N.3    35  LYS35      -0.1314
     81  N         18.9330   13.1110   -8.0300 N.3    52  MET52      -0.1245
     82  CA        19.2590   11.6430   -8.0940 C.3    52  MET52       0.1570
     83  C         19.6720   11.2310   -9.4930 C.2    52  MET52       0.2261
     84  O         19.2410   11.8830  -10.4600 O.2    52  MET52      -0.2867
     85  CB        18.0990   10.7930   -7.6050 C.3    52  MET52       0.0387
     86  CG        16.9220   10.7510   -8.5950 C.3    52  MET52       0.0595
     87  SD        15.3990   10.1250   -7.8100 S.3    52  MET52      -0.1393
     88  CE        14.8370   11.6550   -6.9810 C.3    52  MET52       0.0692
     89  N         18.6080    5.4910   -9.7550 N.3    56  THR56      -0.1218
     90  CA        17.9060    5.6950   -8.4690 C.3    56  THR56       0.1862
     91  C         16.4410    6.0930   -8.7370 C.2    56  THR56       0.2287
     92  O         15.5080    5.6070   -8.0780 O.2    56  THR56      -0.2866
     93  CB        18.6140    6.7940   -7.6600 C.3    56  THR56       0.1770
     94  OG1       19.9860    6.3070   -7.3290 O.3    56  THR56      -0.2211
     95  CG2       17.9010    7.1010   -6.3960 C.3    56  THR56       0.0375
     96  N         14.4720    3.0750   -9.5430 N.3    59  SER59      -0.1202
     97  CA        14.3130    2.1740   -8.3640 C.3    59  SER59       0.2020
     98  C         13.1620    2.4970   -7.5310 C.2    59  SER59       0.2619
     99  O         12.7940    1.6110   -6.6730 O.2    59  SER59      -0.2717
    100  CB        15.5990    2.0960   -7.5410 C.3    59  SER59       0.2103
    101  OG        15.8000    3.2330   -6.6800 O.3    59  SER59      -0.2182
    102  N         12.6220    3.7070   -7.6460 N.am   60  ILE60      -0.1966
    103  CA        11.4970    4.0690   -6.7740 C.3    60  ILE60       0.1712
    104  C         10.1830    3.4670   -7.2970 C.2    60  ILE60       0.2458
    105  O          9.9290    3.5610   -8.5050 O.2    60  ILE60      -0.2730
    106  CB        11.3220    5.5950   -6.7160 C.3    60  ILE60       0.0289
    107  CG1       12.6590    6.3300   -6.3150 C.3    60  ILE60       0.0022
    108  CG2       10.1310    5.9480   -5.7460 C.3    60  ILE60       0.0023
    109  CD1       12.5980    7.7800   -6.5870 C.3    60  ILE60       0.0001
    110  N          9.4060    2.7880   -6.4110 N.am   61  PRO61      -0.2727
    111  CA         8.0980    2.2680   -6.8700 C.3    61  PRO61       0.1402
    112  C          7.3070    3.4100   -7.4440 C.2    61  PRO61       0.2269
    113  O          7.3190    4.5410   -6.8910 O.2    61  PRO61      -0.2865
    114  CB         7.4790    1.7220   -5.5800 C.3    61  PRO61       0.0296
    115  CG         8.7330    1.2380   -4.8460 C.3    61  PRO61       0.0237
    116  CD         9.6920    2.4120   -5.0000 C.3    61  PRO61       0.0939
    117  N          5.5050    6.1640   -5.4440 N.3    64  PHE64      -0.1241
    118  CA         6.3040    7.1070   -4.5700 C.3    64  PHE64       0.1605
    119  C          7.1310    8.0660   -5.3770 C.2    64  PHE64       0.2264
    120  O          8.0090    8.7570   -4.7890 O.2    64  PHE64      -0.2867
    121  CB         7.2160    6.3000   -3.6340 C.3    64  PHE64       0.0534
    122  CG         6.4670    5.4410   -2.6330 C.ar   64  PHE64      -0.0203
    123  CD1        5.6110    6.0270   -1.7020 C.ar   64  PHE64      -0.0042
    124  CD2        6.6760    4.0420   -2.5780 C.ar   64  PHE64      -0.0042
    125  CE1        4.9100    5.1910   -0.7330 C.ar   64  PHE64      -0.0003
    126  CE2        6.0100    3.2440   -1.6610 C.ar   64  PHE64      -0.0003
    127  CZ         5.1330    3.8280   -0.7130 C.ar   64  PHE64      -0.0000
    128  N          8.9090   12.2620   -5.5090 N.3    67  LEU67      -0.1245
    129  CA         8.8150   12.4650   -4.0330 C.3    67  LEU67       0.1561
    130  C          7.9350   13.7020   -3.7920 C.2    67  LEU67       0.2260
    131  O          8.3090   14.8210   -4.2140 O.2    67  LEU67      -0.2867
    132  CB        10.2770   12.6550   -3.5830 C.3    67  LEU67       0.0270
    133  CG        11.0970   11.3370   -3.4200 C.3    67  LEU67       0.0019
    134  CD1       11.2860   10.6220   -4.6100 C.3    67  LEU67       0.0001
    135  CD2       12.4920   11.7210   -2.8970 C.3    67  LEU67       0.0001
    136  N         20.2440   12.1310   -3.2360 N.3   115  VAL115     -0.1301
    137  CA        19.6830   10.8150   -2.7720 C.3   115  VAL115      0.1246
    138  C         20.2550    9.6300   -3.6300 C.3   115  VAL115      0.2009
    139  O         19.6160    8.5340   -3.5170 O.3   115  VAL115     -0.2188
    140  CB        18.1670   10.8970   -2.6270 C.3   115  VAL115      0.0202
    141  CG1       17.6890   12.0760   -1.7960 C.3   115  VAL115      0.0016
    142  CG2       17.4810   10.9620   -4.0620 C.3   115  VAL115      0.0016
    143  N         26.8820   10.3450   -5.2600 N.3   121  TYR121     -0.1241
    144  CA        27.4520   10.6010   -3.8920 C.3   121  TYR121      0.1605
    145  C         28.9530   10.8750   -3.9970 C.2   121  TYR121      0.2264
    146  O         29.4720   11.7860   -3.3310 O.2   121  TYR121     -0.2867
    147  CB        27.1980    9.4130   -2.9910 C.3   121  TYR121      0.0534
    148  CG        25.7740    9.1010   -2.6280 C.ar  121  TYR121     -0.0201
    149  CD1       25.2760    7.7720   -2.6630 C.ar  121  TYR121     -0.0009
    150  CD2       24.9910   10.0500   -2.0300 C.ar  121  TYR121     -0.0009
    151  CE1       23.9790    7.4290   -2.1970 C.ar  121  TYR121      0.0417
    152  CE2       23.6740    9.7620   -1.5180 C.ar  121  TYR121      0.0417
    153  CZ        23.1870    8.4260   -1.5790 C.ar  121  TYR121      0.1957
    154  OH        21.8860    8.1260   -1.0910 O.3   121  TYR121     -0.2866
    155  N         22.4570    6.7340    7.7430 N.3   136  THR136     -0.1218
    156  CA        21.8660    5.7260    8.6700 C.3   136  THR136      0.1862
    157  C         22.7590    4.4980    8.5750 C.2   136  THR136      0.2287
    158  O         22.9510    3.9450    7.5070 O.2   136  THR136     -0.2866
    159  CB        20.4260    5.3550    8.2680 C.3   136  THR136      0.1770
    160  OG1       19.6280    6.5230    8.3390 O.3   136  THR136     -0.2211
    161  CG2       19.8670    4.3100    9.2690 C.3   136  THR136      0.0375
@<TRIPOS>BOND
     1    84    83    2
     2    89    90    1
     3    96    97    1
     4    83    82    1
     5    91    90    1
     6    91    92    2
     7    86    87    1
     8    86    85    1
     9   105   104    2
    10    90    93    1
    11    97   100    1
    12    97    98    1
    13    82    81    1
    14    82    85    1
    15    87    88    1
    16    93    94    1
    17    93    95    1
    18   102    98   am
    19   102   103    1
    20   100   101    1
    21    98    99    2
    22   112   113    2
    23   112   111    1
    24   104   103    1
    25   104   110   am
    26   111   110    1
    27   111   114    1
    28   103   106    1
    29   106   107    1
    30   106   108    1
    31   109   107    1
    32   110   116    1
    33   114   115    1
    34   128   129    1
    35   117   118    1
    36   119   120    2
    37   119   118    1
    38   143   144    1
    39   116   115    1
    40   134   133    1
    41   118   121    1
    42   131   130    2
    43   142   140    1
    44   129   130    1
    45   129   132    1
    46   145   144    1
    47   145   146    2
    48   144   147    1
    49   121   122    1
    50   138   139    1
    51   138   137    1
    52   132   133    1
    53   133   135    1
    54   136   137    1
    55   147   148    1
    56   137   140    1
    57   149   148   ar
    58   149   151   ar
    59   122   124   ar
    60   122   123   ar
    61   148   150   ar
    62   140   141    1
    63   124   126   ar
    64   151   153   ar
    65   150   152   ar
    66    21    22    1
    67   123   125   ar
    68   126   127   ar
    69   153   152   ar
    70   153   154    1
    71   125   127   ar
    72    22    23    1
    73    22    25    1
    74    24    23    2
    75    27    26    1
    76    26    25    1
    77    26    28    1
    78    71    70   ar
    79    71    69   ar
    80    80    79    1
    81    70    68   ar
    82    69    67   ar
    83     4     3    2
    84    15    13    1
    85    79    78    1
    86     1     2    1
    87     7     5    1
    88    68    66   ar
    89    13    10    1
    90    13    14    1
    91    67    66   ar
    92    48    47   ar
    93    48    46   ar
    94     3     2    1
    95     3     9   am
    96    78    77    1
    97    47    45   ar
    98     2     5    1
    99    10     9    1
   100    10    11    1
   101    46    44   ar
   102    66    65    1
   103    19    18    2
   104     5     6    1
   105    45    43   ar
   106    16    11   am
   107    16    17    1
   108    44    43   ar
   109    77    76    1
   110    11    12    2
   111    43    42    1
   112    18    17    1
   113     6     8    1
   114    65    62    1
   115    64    63    2
   116    73    76    1
   117    73    72    1
   118    73    74    1
   119    75    74    2
   120    17    20    1
   121    63    72   am
   122    63    62    1
   123    42    39    1
   124    62    61    1
   125    41    40    1
   126    39    40    1
   127    39    38    1
   128    37    35   ar
   129    61    51   am
   130    38    31   am
   131    35    36   ar
   132    35    34    1
   133    32    31    2
   134    52    51    2
   135    51    50    1
   136    31    30    1
   137   158   157    2
   138   155   156    1
   139   159   160    1
   140   159   156    1
   141   159   161    1
   142    34    33    1
   143    33    30    1
   144    49    50    1
   145   157   156    1
   146    50    53    1
   147    30    29    1
   148    55    57   ar
   149    55    54   ar
   150    57    59   ar
   151    53    54    1
   152    54    56   ar
   153    59    60    1
   154    59    58   ar
   155    56    58   ar
