@<TRIPOS>MOLECULE
tmp/3s3vA01.pdb
 88 86 0 0 0
SMALL
GASTEIGER

@<TRIPOS>ATOM
      1  N         19.0080   -2.8000   -7.6520 N.3    20  GLY20      -0.1210
      2  CA        18.0420   -1.6950   -7.6160 C.3    20  GLY20       0.1956
      3  C         17.0200   -1.8160   -6.4910 C.2    20  GLY20       0.2612
      4  O         16.0470   -1.0890   -6.5470 O.2    20  GLY20      -0.2717
      5  N         17.1620   -2.7380   -5.5580 N.am   21  ASP21      -0.1959
      6  CA        16.2090   -2.9070   -4.3920 C.3    21  ASP21       0.1840
      7  C         17.0620   -2.6760   -3.1200 C.2    21  ASP21       0.2621
      8  O         18.3050   -2.6370   -3.1210 O.2    21  ASP21      -0.2715
      9  CB        15.6650   -4.3480   -4.4230 C.3    21  ASP21       0.1450
     10  CG        14.4400   -4.5990   -3.5620 C.2    21  ASP21       0.3671
     11  OD1       13.8900   -3.6640   -2.9880 O.co2  21  ASP21      -0.2456
     12  OD2       13.9620   -5.8040   -3.4980 O.co2  21  ASP21      -0.2456
     13  N         16.2970   -2.5320   -2.0220 N.am   22  LEU22      -0.1977
     14  CA        16.9650   -2.4750   -0.6860 C.3    22  LEU22       0.1596
     15  C         17.6900   -3.7640   -0.4220 C.2    22  LEU22       0.2287
     16  O         17.0970   -4.8350   -0.6810 O.2    22  LEU22      -0.2864
     17  CB        15.9260   -2.0780    0.3800 C.3    22  LEU22       0.0297
     18  CG        16.0230   -0.5420    0.0400 C.3    22  LEU22       0.0022
     19  CD1       14.7630    0.2580   -0.0640 C.3    22  LEU22       0.0001
     20  CD2       17.0370    0.2600    0.8710 C.3    22  LEU22       0.0001
     21  N         12.3290   -3.8500    4.2540 N.3    26  PRO26      -0.2116
     22  CA        11.8670   -2.4790    4.4700 C.3    26  PRO26       0.1372
     23  C         11.7060   -2.1120    5.9420 C.2    26  PRO26       0.2244
     24  O         11.1300   -2.9130    6.6990 O.2    26  PRO26      -0.2868
     25  CB        10.5180   -2.4570    3.7790 C.3    26  PRO26       0.0268
     26  CG        10.7010   -3.5060    2.7200 C.3    26  PRO26       0.0207
     27  CD        11.3660   -4.5910    3.4040 C.3    26  PRO26       0.0892
     28  N         12.3830    4.7970    6.7640 N.3    31  PHE31      -0.1298
     29  CA        11.8520    5.5860    5.6320 C.3    31  PHE31       0.1290
     30  C         11.0980    6.8380    6.0730 C.3    31  PHE31       0.2013
     31  O         11.2150    7.9110    5.3680 O.3    31  PHE31      -0.2188
     32  CB        10.8680    4.7850    4.8230 C.3    31  PHE31       0.0480
     33  CG        11.4530    3.7690    3.9620 C.ar   31  PHE31      -0.0206
     34  CD1       12.7890    3.7930    3.6060 C.ar   31  PHE31      -0.0042
     35  CD2       10.6530    2.7290    3.4070 C.ar   31  PHE31      -0.0042
     36  CE1       13.3380    2.8250    2.6750 C.ar   31  PHE31      -0.0003
     37  CE2       11.1630    1.7300    2.5570 C.ar   31  PHE31      -0.0003
     38  CZ        12.5170    1.7960    2.1250 C.ar   31  PHE31      -0.0000
     39  N         11.7800   10.7140    4.7470 N.3    35  LYS35      -0.1245
     40  CA        10.7490   11.7010    4.2480 C.3    35  LYS35       0.1561
     41  C         10.7140   12.9710    5.0240 C.2    35  LYS35       0.2260
     42  O         10.6580   14.0730    4.4540 O.2    35  LYS35      -0.2867
     43  CB         9.3560   10.9880    4.3550 C.3    35  LYS35       0.0271
     44  CG         9.3570    9.7500    3.6800 C.3    35  LYS35       0.0035
     45  CD         9.8340    9.6650    2.3550 C.3    35  LYS35       0.0206
     46  CE         9.2730   10.6720    1.3710 C.3    35  LYS35       0.1093
     47  NZ         9.8310   10.0360    0.3670 N.3    35  LYS35      -0.1314
     48  N         14.4720    3.0750   -9.5430 N.3    59  SER59      -0.1202
     49  CA        14.3130    2.1740   -8.3640 C.3    59  SER59       0.2020
     50  C         13.1620    2.4970   -7.5310 C.2    59  SER59       0.2619
     51  O         12.7940    1.6110   -6.6730 O.2    59  SER59      -0.2717
     52  CB        15.5990    2.0960   -7.5410 C.3    59  SER59       0.2103
     53  OG        15.8000    3.2330   -6.6800 O.3    59  SER59      -0.2182
     54  N         12.6220    3.7070   -7.6460 N.am   60  ILE60      -0.1966
     55  CA        11.4970    4.0690   -6.7740 C.3    60  ILE60       0.1712
     56  C         10.1830    3.4670   -7.2970 C.2    60  ILE60       0.2458
     57  O          9.9290    3.5610   -8.5050 O.2    60  ILE60      -0.2730
     58  CB        11.3220    5.5950   -6.7160 C.3    60  ILE60       0.0289
     59  CG1       12.6590    6.3300   -6.3150 C.3    60  ILE60       0.0022
     60  CG2       10.1310    5.9480   -5.7460 C.3    60  ILE60       0.0023
     61  CD1       12.5980    7.7800   -6.5870 C.3    60  ILE60       0.0001
     62  N          9.4060    2.7880   -6.4110 N.am   61  PRO61      -0.2727
     63  CA         8.0980    2.2680   -6.8700 C.3    61  PRO61       0.1402
     64  C          7.3070    3.4100   -7.4440 C.2    61  PRO61       0.2269
     65  O          7.3190    4.5410   -6.8910 O.2    61  PRO61      -0.2865
     66  CB         7.4790    1.7220   -5.5800 C.3    61  PRO61       0.0296
     67  CG         8.7330    1.2380   -4.8460 C.3    61  PRO61       0.0237
     68  CD         9.6920    2.4120   -5.0000 C.3    61  PRO61       0.0939
     69  N          4.3500    4.4500   -7.2690 N.3    63  LYS63      -0.1231
     70  CA         3.4550    5.1740   -6.3390 C.3    63  LYS63       0.1693
     71  C          4.1660    6.2480   -5.4950 C.2    63  LYS63       0.2592
     72  O          3.5330    7.1410   -4.8600 O.2    63  LYS63      -0.2718
     73  CB         2.7410    4.1950   -5.4250 C.3    63  LYS63       0.0285
     74  CG         3.6250    3.6960   -4.3290 C.3    63  LYS63       0.0035
     75  CD         2.9100    3.9240   -2.9740 C.3    63  LYS63       0.0206
     76  CE         1.5620    3.2010   -2.8920 C.3    63  LYS63       0.1093
     77  NZ         1.2140    2.4720   -1.5900 N.3    63  LYS63      -0.1314
     78  N          5.5050    6.1640   -5.4440 N.am   64  PHE64      -0.1976
     79  CA         6.3040    7.1070   -4.5700 C.3    64  PHE64       0.1639
     80  C          7.1310    8.0660   -5.3770 C.2    64  PHE64       0.2290
     81  O          8.0090    8.7570   -4.7890 O.2    64  PHE64      -0.2864
     82  CB         7.2160    6.3000   -3.6340 C.3    64  PHE64       0.0560
     83  CG         6.4670    5.4410   -2.6330 C.ar   64  PHE64      -0.0200
     84  CD1        5.6110    6.0270   -1.7020 C.ar   64  PHE64      -0.0042
     85  CD2        6.6760    4.0420   -2.5780 C.ar   64  PHE64      -0.0042
     86  CE1        4.9100    5.1910   -0.7330 C.ar   64  PHE64      -0.0003
     87  CE2        6.0100    3.2440   -1.6610 C.ar   64  PHE64      -0.0003
     88  CZ         5.1330    3.8280   -0.7130 C.ar   64  PHE64      -0.0000
@<TRIPOS>BOND
     1    48    49    1
     2    57    56    2
     3    49    52    1
     4    49    50    1
     5     1     2    1
     6    54    50   am
     7    54    55    1
     8     2     3    1
     9    52    53    1
    10    50    51    2
    11    64    65    2
    12    64    63    1
    13    56    55    1
    14    56    62   am
    15    69    70    1
    16    63    62    1
    17    63    66    1
    18    55    58    1
    19    58    59    1
    20    58    60    1
    21    61    59    1
    22     4     3    2
    23     3     5   am
    24    62    68    1
    25    70    71    1
    26    70    73    1
    27    66    67    1
    28     5     6    1
    29    71    78   am
    30    71    72    2
    31    78    79    1
    32    73    74    1
    33    80    81    2
    34    80    79    1
    35    68    67    1
    36    79    82    1
    37     9     6    1
    38     9    10    1
    39     6     7    1
    40    74    75    1
    41    82    83    1
    42    10    12   ar
    43    10    11   ar
    44     8     7    2
    45     7    13   am
    46    75    76    1
    47    76    77    1
    48    83    85   ar
    49    83    84   ar
    50    85    87   ar
    51    13    14    1
    52    84    86   ar
    53    87    88   ar
    54    86    88   ar
    55    14    15    1
    56    14    17    1
    57    16    15    2
    58    19    18    1
    59    18    17    1
    60    18    20    1
    61    47    46    1
    62    46    45    1
    63    38    37   ar
    64    38    36   ar
    65    45    44    1
    66    37    35   ar
    67    36    34   ar
    68    26    27    1
    69    26    25    1
    70    27    21    1
    71    35    33   ar
    72    34    33   ar
    73    44    43    1
    74    25    22    1
    75    33    32    1
    76    40    43    1
    77    40    39    1
    78    40    41    1
    79    21    22    1
    80    42    41    2
    81    22    23    1
    82    32    29    1
    83    31    30    1
    84    29    30    1
    85    29    28    1
    86    23    24    2
