@<TRIPOS>MOLECULE
tmp/3s3wA00.pdb
 97 88 0 0 0
SMALL
GASTEIGER

@<TRIPOS>ATOM
      1  N         20.9210   52.2720   23.4790 N.3    40  THR40      -0.1218
      2  CA        21.0570   51.8140   22.1020 C.3    40  THR40       0.1862
      3  C         20.1370   50.6310   21.8290 C.2    40  THR40       0.2287
      4  O         20.2750   49.5710   22.4430 O.2    40  THR40      -0.2866
      5  CB        22.5090   51.4220   21.7770 C.3    40  THR40       0.1770
      6  OG1       23.3210   52.6020   21.7310 O.3    40  THR40      -0.2211
      7  CG2       22.5810   50.7130   20.4330 C.3    40  THR40       0.0375
      8  N         22.5530   55.6470   14.7830 N.3   160  ARG160     -0.1245
      9  CA        21.9820   54.7120   15.7460 C.3   160  ARG160      0.1563
     10  C         20.5240   54.9920   16.0760 C.2   160  ARG160      0.2260
     11  O         20.1120   56.1460   16.2040 O.2   160  ARG160     -0.2867
     12  CB        22.7800   54.7290   17.0540 C.3   160  ARG160      0.0307
     13  CG        24.2020   54.2320   16.9320 C.3   160  ARG160      0.0489
     14  CD        24.4710   53.1060   17.9030 C.3   160  ARG160      0.2205
     15  NE        25.1790   53.5010   19.0950 N.pl3 160  ARG160     -0.0865
     16  CZ        26.3920   53.1360   19.5010 C.cat 160  ARG160      0.5346
     17  NH1       26.8010   53.6340   20.6530 N.pl3 160  ARG160      0.1354
     18  NH2       27.1860   52.3170   18.8190 N.pl3 160  ARG160      0.1354
     19  N         22.6290   42.0420   20.4950 N.3   205  SER205     -0.1202
     20  CA        23.5300   43.1460   20.2050 C.3   205  SER205      0.2020
     21  C         23.9640   43.0780   18.7470 C.2   205  SER205      0.2619
     22  O         24.0140   42.0100   18.1470 O.2   205  SER205     -0.2717
     23  CB        24.7530   43.1010   21.1230 C.3   205  SER205      0.2103
     24  OG        25.6960   44.1060   20.7850 O.3   205  SER205     -0.2182
     25  N         24.2820   44.2310   18.1810 N.am  206  GLN206     -0.1965
     26  CA        24.5490   44.3250   16.7540 C.3   206  GLN206      0.1733
     27  C         25.8970   43.7530   16.3490 C.2   206  GLN206      0.2616
     28  O         26.1170   43.4270   15.1880 O.2   206  GLN206     -0.2715
     29  CB        24.3980   45.7710   16.3020 C.3   206  GLN206      0.0408
     30  CG        22.9980   46.2800   16.5390 C.3   206  GLN206      0.0908
     31  CD        22.9040   47.7790   16.5140 C.2   206  GLN206      0.2608
     32  OE1       23.2610   48.4340   15.5240 O.2   206  GLN206     -0.2717
     33  NE2       22.4240   48.3440   17.6140 N.am  206  GLN206     -0.0878
     34  N         26.7960   43.6180   17.3140 N.am  207  ASP207     -0.1971
     35  CA        28.1170   43.0620   17.0370 C.3   207  ASP207      0.1709
     36  C         28.1540   41.5610   17.3160 C.2   207  ASP207      0.2293
     37  O         29.2170   40.9440   17.3280 O.2   207  ASP207     -0.2864
     38  CB        29.2020   43.7890   17.8360 C.3   207  ASP207      0.1436
     39  CG        28.9660   43.7270   19.3270 C.2   207  ASP207      0.3671
     40  OD1       28.0380   43.0090   19.7560 O.co2 207  ASP207     -0.2456
     41  OD2       29.7160   44.3920   20.0700 O.co2 207  ASP207     -0.2456
     42  N         18.0420   45.6930   29.0180 N.3   231  GLU231     -0.1245
     43  CA        19.4110   45.4220   28.5930 C.3   231  GLU231      0.1567
     44  C         20.3190   45.1810   29.7920 C.2   231  GLU231      0.2260
     45  O         20.3150   45.9510   30.7540 O.2   231  GLU231     -0.2867
     46  CB        19.9590   46.5670   27.7390 C.3   231  GLU231      0.0388
     47  CG        21.4420   46.4350   27.4180 C.3   231  GLU231      0.1160
     48  CD        21.9390   47.5150   26.4750 C.2   231  GLU231      0.3649
     49  OE1       21.1210   48.0570   25.7020 O.co2 231  GLU231     -0.2457
     50  OE2       23.1490   47.8220   26.5080 O.co2 231  GLU231     -0.2457
     51  N         24.2840   44.5090   30.7650 N.3   233  ARG233     -0.1245
     52  CA        25.6820   44.5220   30.3560 C.3   233  ARG233      0.1563
     53  C         26.5240   43.7970   31.3970 C.2   233  ARG233      0.2260
     54  O         26.5430   44.1770   32.5690 O.2   233  ARG233     -0.2867
     55  CB        26.1640   45.9680   30.1730 C.3   233  ARG233      0.0307
     56  CG        27.6600   46.1490   29.8720 C.3   233  ARG233      0.0489
     57  CD        28.0840   45.6480   28.4920 C.3   233  ARG233      0.2205
     58  NE        27.0820   45.9570   27.5050 N.pl3 233  ARG233     -0.0865
     59  CZ        27.0820   46.8810   26.5510 C.cat 233  ARG233      0.5346
     60  NH1       28.0990   47.6970   26.2960 N.pl3 233  ARG233      0.1354
     61  NH2       25.9910   46.9460   25.8140 N.pl3 233  ARG233      0.1354
     62  N         30.3640   42.4410   32.4020 N.3   235  ILE235     -0.1245
     63  CA        31.7930   42.5550   32.1580 C.3   235  ILE235      0.1561
     64  C         32.5460   41.5690   33.0400 C.2   235  ILE235      0.2260
     65  O         32.2650   41.4510   34.2320 O.2   235  ILE235     -0.2867
     66  CB        32.2980   43.9790   32.4500 C.3   235  ILE235      0.0252
     67  CG1       31.4960   45.0030   31.6450 C.3   235  ILE235      0.0019
     68  CG2       33.7830   44.0940   32.1450 C.3   235  ILE235      0.0019
     69  CD1       31.6260   44.8380   30.1470 C.3   235  ILE235      0.0001
     70  N         33.9700   40.8740   16.6630 N.3   250  THR250     -0.1218
     71  CA        33.9990   40.8920   18.1220 C.3   250  THR250      0.1862
     72  C         33.7700   39.4880   18.6630 C.2   250  THR250      0.2287
     73  O         32.9890   38.7220   18.0980 O.2   250  THR250     -0.2866
     74  CB        32.9300   41.8400   18.7010 C.3   250  THR250      0.1770
     75  OG1       33.2920   43.1980   18.4260 O.3   250  THR250     -0.2211
     76  CG2       32.8070   41.6540   20.2070 C.3   250  THR250      0.0375
     77  N         34.7200   38.4400   27.5480 N.3   313  CYS313     -0.1221
     78  CA        34.9240   39.4260   28.6030 C.3   313  CYS313      0.1808
     79  C         33.7950   40.4500   28.6140 C.2   313  CYS313      0.2601
     80  O         33.6290   41.2000   29.5760 O.2   313  CYS313     -0.2717
     81  CB        36.2750   40.1220   28.4350 C.3   313  CYS313      0.0970
     82  SG        37.6910   39.0530   28.7640 S.3   313  CYS313     -0.0800
     83  N         33.0120   40.4610   27.5410 N.am  314  ASN314     -0.1974
     84  CA        31.9530   41.4430   27.3740 C.3   314  ASN314      0.1688
     85  C         30.7030   40.8080   26.7730 C.2   314  ASN314      0.2292
     86  O         30.6900   40.4270   25.6040 O.2   314  ASN314     -0.2864
     87  CB        32.4490   42.5820   26.4800 C.3   314  ASN314      0.1181
     88  CG        31.5470   43.7980   26.5240 C.2   314  ASN314      0.2629
     89  OD1       30.3240   43.6810   26.6130 O.2   314  ASN314     -0.2716
     90  ND2       32.1500   44.9790   26.4580 N.am  314  ASN314     -0.0877
     91  N         26.3400   41.0680   26.3410 N.3   316  THR316     -0.1218
     92  CA        25.1080   41.8340   26.4560 C.3   316  THR316      0.1862
     93  C         23.8970   40.9090   26.3870 C.2   316  THR316      0.2287
     94  O         23.6310   40.2880   25.3580 O.2   316  THR316     -0.2866
     95  CB        24.9980   42.9110   25.3620 C.3   316  THR316      0.1770
     96  OG1       26.0970   43.8230   25.4750 O.3   316  THR316     -0.2211
     97  CG2       23.6930   43.6810   25.5050 C.3   316  THR316      0.0375
@<TRIPOS>BOND
     1     8     9    1
     2    28    27    2
     3    32    31    2
     4     9    10    1
     5     9    12    1
     6    10    11    2
     7    29    30    1
     8    29    26    1
     9    27    26    1
    10    27    34   am
    11    31    30    1
    12    31    33   am
    13    70    71    1
    14    26    25    1
    15    13    12    1
    16    13    14    1
    17    35    34    1
    18    35    36    1
    19    35    38    1
    20    36    37    2
    21    38    39    1
    22    14    15    1
    23    73    72    2
    24    71    72    1
    25    71    74    1
    26    22    21    2
    27    25    21   am
    28    75    74    1
    29    74    76    1
    30    21    20    1
    31    18    16    1
    32    15    16    2
    33    39    40   ar
    34    39    41   ar
    35    16    17    1
    36    20    19    1
    37    20    23    1
    38     7     5    1
    39    24    23    1
    40     6     5    1
    41     5     2    1
    42     3     2    1
    43     3     4    2
    44     2     1    1
    45    94    93    2
    46    95    96    1
    47    95    97    1
    48    95    92    1
    49    86    85    2
    50    49    48   ar
    51    61    59    1
    52    60    59    1
    53    91    92    1
    54    93    92    1
    55    90    88   am
    56    48    50   ar
    57    48    47    1
    58    87    88    1
    59    87    84    1
    60    88    89    2
    61    59    58    2
    62    85    84    1
    63    84    83    1
    64    47    46    1
    65    58    57    1
    66    83    79   am
    67    77    78    1
    68    46    43    1
    69    81    78    1
    70    81    82    1
    71    57    56    1
    72    43    42    1
    73    43    44    1
    74    78    79    1
    75    79    80    2
    76    44    45    2
    77    56    55    1
    78    69    67    1
    79    55    52    1
    80    52    51    1
    81    52    53    1
    82    53    54    2
    83    67    66    1
    84    68    66    1
    85    63    62    1
    86    63    66    1
    87    63    64    1
    88    64    65    2
