@<TRIPOS>MOLECULE
tmp/3s42A00.pdb
 115 106 0 0 0
SMALL
GASTEIGER

@<TRIPOS>ATOM
      1  N          1.1190    5.7410  -42.0860 N.3    62  ARG62      -0.1245
      2  CA         0.1020    4.6260  -42.0900 C.3    62  ARG62       0.1563
      3  C         -0.7100    4.7180  -43.3510 C.2    62  ARG62       0.2260
      4  O         -1.7880    5.3370  -43.4110 O.2    62  ARG62      -0.2867
      5  CB        -0.6880    4.6270  -40.7990 C.3    62  ARG62       0.0307
      6  CG         0.0910    4.0500  -39.6010 C.3    62  ARG62       0.0489
      7  CD         0.2150    2.5680  -39.6860 C.3    62  ARG62       0.2205
      8  NE        -1.0960    1.9260  -39.7110 N.pl3  62  ARG62      -0.0865
      9  CZ        -1.8840    1.7430  -38.6630 C.cat  62  ARG62       0.5346
     10  NH1       -1.4390    2.0240  -37.4530 N.pl3  62  ARG62       0.1354
     11  NH2       -3.1310    1.2970  -38.8690 N.pl3  62  ARG62       0.1354
     12  N         -0.4850   -1.1690  -42.9180 N.3    96  ARG96      -0.1245
     13  CA        -0.8520   -2.0910  -41.8720 C.3    96  ARG96       0.1563
     14  C         -2.0960   -2.8750  -42.3260 C.2    96  ARG96       0.2260
     15  O         -2.9750   -2.3900  -43.0490 O.2    96  ARG96      -0.2867
     16  CB        -1.0900   -1.3600  -40.5550 C.3    96  ARG96       0.0307
     17  CG        -1.3710   -2.1900  -39.3550 C.3    96  ARG96       0.0489
     18  CD        -0.2680   -3.1670  -38.9590 C.3    96  ARG96       0.2205
     19  NE         1.0170   -2.5580  -38.6320 N.pl3  96  ARG96      -0.0865
     20  CZ         2.1670   -2.7810  -39.2570 C.cat  96  ARG96       0.5346
     21  NH1        2.2540   -3.6560  -40.2820 N.pl3  96  ARG96       0.1354
     22  NH2        3.2450   -2.1960  -38.8040 N.pl3  96  ARG96       0.1354
     23  N          1.8500   -8.3190  -35.0520 N.3   157  HIS157     -0.1241
     24  CA         1.0180   -7.7130  -34.0240 C.3   157  HIS157      0.1621
     25  C         -0.0800   -8.6500  -33.5660 C.2   157  HIS157      0.2264
     26  O         -0.6810   -9.3630  -34.4030 O.2   157  HIS157     -0.2867
     27  CB         0.3130   -6.4230  -34.6440 C.3   157  HIS157      0.0745
     28  CG         1.2700   -5.5600  -35.4100 C.ar  157  HIS157      0.0817
     29  ND1        1.6130   -5.8530  -36.7170 N.ar  157  HIS157     -0.2268
     30  CD2        1.9870   -4.4740  -35.0630 C.ar  157  HIS157      0.1154
     31  CE1        2.5220   -4.9890  -37.1140 C.ar  157  HIS157      0.1986
     32  NE2        2.7820   -4.1310  -36.1380 N.ar  157  HIS157     -0.2212
     33  N         -3.3830   -7.9240  -31.1600 N.3   159  PHE159     -0.1241
     34  CA        -4.1330   -6.9630  -30.3760 C.3   159  PHE159      0.1605
     35  C         -5.0470   -7.5530  -29.3210 C.2   159  PHE159      0.2264
     36  O         -5.7710   -6.8310  -28.5810 O.2   159  PHE159     -0.2867
     37  CB        -4.9740   -6.0510  -31.3110 C.3   159  PHE159      0.0534
     38  CG        -4.1770   -5.0240  -31.9250 C.ar  159  PHE159     -0.0203
     39  CD1       -4.1670   -3.7650  -31.3700 C.ar  159  PHE159     -0.0042
     40  CD2       -3.3460   -5.2680  -32.9960 C.ar  159  PHE159     -0.0042
     41  CE1       -3.3680   -2.7790  -31.9060 C.ar  159  PHE159     -0.0003
     42  CE2       -2.5270   -4.2310  -33.5470 C.ar  159  PHE159     -0.0003
     43  CZ        -2.5050   -3.0260  -32.9190 C.ar  159  PHE159     -0.0000
     44  N         10.1970   -6.3640  -35.3810 N.3   184  LYS184     -0.1245
     45  CA         9.2980   -5.5780  -34.5240 C.3   184  LYS184      0.1561
     46  C          8.0660   -6.3700  -34.1560 C.2   184  LYS184      0.2260
     47  O          7.4340   -7.0230  -35.0440 O.2   184  LYS184     -0.2867
     48  CB         8.7770   -4.3570  -35.2810 C.3   184  LYS184      0.0271
     49  CG         7.7280   -3.5500  -34.5780 C.3   184  LYS184      0.0035
     50  CD         6.6540   -3.0000  -35.5150 C.3   184  LYS184      0.0206
     51  CE         5.5610   -2.2090  -34.7690 C.3   184  LYS184      0.1093
     52  NZ         4.5080   -1.8040  -35.7390 N.3   184  LYS184     -0.1314
     53  N          4.4340   -6.3020  -31.5310 N.3   186  ALA186     -0.1245
     54  CA         3.5420   -5.6980  -30.5750 C.3   186  ALA186      0.1562
     55  C          2.5320   -6.7130  -30.1550 C.2   186  ALA186      0.2260
     56  O          1.8540   -7.3290  -30.9960 O.2   186  ALA186     -0.2867
     57  CB         2.8810   -4.4430  -31.1570 C.3   186  ALA186      0.0290
     58  N          6.8850   -4.2190  -27.9100 N.3   217  MET217     -0.1245
     59  CA         5.9600   -3.4830  -27.0210 C.3   217  MET217      0.1570
     60  C          4.8140   -4.3820  -26.6240 C.2   217  MET217      0.2261
     61  O          4.4050   -5.2690  -27.3790 O.2   217  MET217     -0.2867
     62  CB         5.4250   -2.1900  -27.6770 C.3   217  MET217      0.0387
     63  CG         4.5770   -2.4220  -28.8650 C.3   217  MET217      0.0595
     64  SD         4.7690   -1.1410  -30.1390 S.3   217  MET217     -0.1393
     65  CE         6.3110   -1.8760  -30.7290 C.3   217  MET217      0.0692
     66  N          1.0770   -3.6020  -25.4550 N.3   219  MET219     -0.1245
     67  CA         0.1150   -2.5340  -25.6050 C.3   219  MET219      0.1570
     68  C         -0.7720   -2.3540  -24.3750 C.2   219  MET219      0.2261
     69  O         -0.6520   -3.0800  -23.3940 O.2   219  MET219     -0.2867
     70  CB        -0.6990   -2.8180  -26.8900 C.3   219  MET219      0.0387
     71  CG         0.2340   -2.8170  -28.1280 C.3   219  MET219      0.0595
     72  SD        -0.6630   -2.9950  -29.6910 S.3   219  MET219     -0.1393
     73  CE        -0.8880   -4.7520  -29.7030 C.3   219  MET219      0.0692
     74  N          7.0460    0.4880  -23.1390 N.3   227  ARG227     -0.1245
     75  CA         7.3320    1.5440  -24.0820 C.3   227  ARG227      0.1563
     76  C          8.4000    2.4460  -23.5730 C.2   227  ARG227      0.2260
     77  O          8.9910    3.2800  -24.2970 O.2   227  ARG227     -0.2867
     78  CB         6.0570    2.3520  -24.3410 C.3   227  ARG227      0.0307
     79  CG         4.9020    1.5140  -24.8690 C.3   227  ARG227      0.0489
     80  CD         3.7210    2.4230  -25.2860 C.3   227  ARG227      0.2205
     81  NE         2.6170    1.6940  -25.8160 N.pl3 227  ARG227     -0.0865
     82  CZ         2.4680    1.3280  -27.1050 C.cat 227  ARG227      0.5346
     83  NH1        3.3920    1.5470  -28.0180 N.pl3 227  ARG227      0.1354
     84  NH2        1.3510    0.7140  -27.5000 N.pl3 227  ARG227      0.1354
     85  N          6.8150    3.8370  -29.8390 N.3   239  PHE239     -0.1241
     86  CA         5.8010    4.6980  -30.4650 C.3   239  PHE239      0.1605
     87  C          5.1750    5.6170  -29.4590 C.2   239  PHE239      0.2264
     88  O          4.7670    5.2070  -28.3730 O.2   239  PHE239     -0.2867
     89  CB         4.6990    3.8380  -31.0790 C.3   239  PHE239      0.0534
     90  CG         5.1150    3.0850  -32.3240 C.ar  239  PHE239     -0.0203
     91  CD1        5.8990    1.9470  -32.2530 C.ar  239  PHE239     -0.0042
     92  CD2        4.6180    3.4410  -33.5880 C.ar  239  PHE239     -0.0042
     93  CE1        6.2940    1.2610  -33.3960 C.ar  239  PHE239     -0.0003
     94  CE2        4.9860    2.7180  -34.7010 C.ar  239  PHE239     -0.0003
     95  CZ         5.8100    1.6280  -34.6180 C.ar  239  PHE239     -0.0000
     96  N         -2.2030    6.2510  -31.5070 N.3   246  SER246     -0.1202
     97  CA        -2.4810    5.4250  -32.6850 C.3   246  SER246      0.2020
     98  C         -2.5810    3.9150  -32.3680 C.2   246  SER246      0.2618
     99  O         -2.8170    3.0790  -33.2550 O.2   246  SER246     -0.2717
    100  CB        -1.4670    5.6530  -33.8290 C.3   246  SER246      0.2103
    101  OG        -0.1190    5.2440  -33.5780 O.3   246  SER246     -0.2182
    102  N         -2.3370    3.5790  -31.1060 N.am  247  ALA247     -0.1979
    103  CA        -2.4130    2.2110  -30.6000 C.3   247  ALA247      0.1597
    104  C         -2.6000    2.3790  -29.0950 C.2   247  ALA247      0.2287
    105  O         -2.0980    3.3680  -28.5040 O.2   247  ALA247     -0.2864
    106  CB        -1.1600    1.3840  -30.9340 C.3   247  ALA247      0.0319
    107  N          0.0400    4.1570  -26.0330 N.3   250  GLN250     -0.1245
    108  CA         0.9770    5.2180  -26.4020 C.3   250  GLN250      0.1566
    109  C          0.7240    6.4760  -25.5070 C.2   250  GLN250      0.2260
    110  O         -0.4230    6.7730  -25.1290 O.2   250  GLN250     -0.2867
    111  CB         0.8140    5.6420  -27.8280 C.3   250  GLN250      0.0367
    112  CG         1.1950    4.5960  -28.8370 C.3   250  GLN250      0.0905
    113  CD         0.8900    5.0370  -30.2460 C.2   250  GLN250      0.2608
    114  OE1        0.2890    6.0620  -30.4180 O.2   250  GLN250     -0.2717
    115  NE2        1.2480    4.2370  -31.2300 N.am  250  GLN250     -0.0878
@<TRIPOS>BOND
     1     4     3    2
     2     3     2    1
     3    15    14    2
     4    12    13    1
     5    14    13    1
     6     2     1    1
     7     2     5    1
     8    13    16    1
     9     5     6    1
    10    16    17    1
    11    21    20    1
    12     8     7    1
    13     8     9    2
    14     7     6    1
    15    17    18    1
    16    20    22    1
    17    20    19    2
    18    18    19    1
    19    11     9    1
    20     9    10    1
    21    31    29   ar
    22    31    32   ar
    23    29    28   ar
    24    32    30   ar
    25    52    51    1
    26    50    51    1
    27    50    49    1
    28    28    30   ar
    29    28    27    1
    30    44    45    1
    31    48    49    1
    32    48    45    1
    33    23    24    1
    34    47    46    2
    35    94    95   ar
    36    94    92   ar
    37    27    24    1
    38    95    93   ar
    39    45    46    1
    40    26    25    2
    41    24    25    1
    42   100   101    1
    43   100    97    1
    44    92    90   ar
    45    42    40   ar
    46    42    43   ar
    47    93    91   ar
    48    99    98    2
    49    40    38   ar
    50    43    41   ar
    51    97    98    1
    52    97    96    1
    53    98   102   am
    54    90    91   ar
    55    90    89    1
    56    38    39   ar
    57    38    37    1
    58    41    39   ar
    59    53    54    1
    60    37    34    1
    61   115   113   am
    62    33    34    1
    63    57    54    1
    64   102   103    1
    65    89    86    1
    66    56    55    2
    67   106   103    1
    68    65    64    1
    69   103   104    1
    70    54    55    1
    71    86    85    1
    72    86    87    1
    73   114   113    2
    74    34    35    1
    75   113   112    1
    76    64    63    1
    77    73    72    1
    78    72    71    1
    79    87    88    2
    80    35    36    2
    81   104   105    2
    82    63    62    1
    83   112   111    1
    84    71    70    1
    85    83    82    1
    86    58    59    1
    87   111   108    1
    88    62    59    1
    89    84    82    1
    90    61    60    2
    91    82    81    2
    92    59    60    1
    93    70    67    1
    94   108   107    1
    95   108   109    1
    96    81    80    1
    97    67    66    1
    98    67    68    1
    99   109   110    2
   100    80    79    1
   101    79    78    1
   102    68    69    2
   103    78    75    1
   104    77    76    2
   105    75    76    1
   106    75    74    1
