@<TRIPOS>MOLECULE
tmp/3s43A00.pdb
 83 76 0 0 0
SMALL
GASTEIGER

@<TRIPOS>ATOM
      1  N          3.0220   23.6660   17.2280 N.3     8  ARG8       -0.1245
      2  CA         4.1960   24.3910   16.7320 C.3     8  ARG8        0.1563
      3  C          3.7890   25.7990   16.3110 C.2     8  ARG8        0.2260
      4  O          2.8140   25.9500   15.6030 O.2     8  ARG8       -0.2867
      5  CB         4.8330   23.6640   15.5560 C.3     8  ARG8        0.0307
      6  CG         5.5330   22.3590   15.9330 C.3     8  ARG8        0.0489
      7  CD         6.2920   21.7510   14.7400 C.3     8  ARG8        0.2205
      8  NE         7.1290   20.6270   15.1990 N.pl3   8  ARG8       -0.0865
      9  CZ         7.8670   19.9210   14.3580 C.cat   8  ARG8        0.5346
     10  NH1        7.8580   20.2070   13.0780 N.pl3   8  ARG8        0.1354
     11  NH2        8.5700   18.9500   14.8890 N.pl3   8  ARG8        0.1354
     12  N          8.9320   28.2280   11.5080 N.3    23  LEU23      -0.1245
     13  CA         8.8000   28.0570   12.9430 C.3    23  LEU23       0.1561
     14  C          9.4140   29.2320   13.6950 C.2    23  LEU23       0.2260
     15  O         10.5730   29.5710   13.4360 O.2    23  LEU23      -0.2867
     16  CB         9.5130   26.7590   13.2840 C.3    23  LEU23       0.0270
     17  CG         9.5250   26.2080   14.6900 C.3    23  LEU23       0.0019
     18  CD1        8.1180   25.8160   15.0820 C.3    23  LEU23       0.0001
     19  CD2       10.4780   25.0430   14.7850 C.3    23  LEU23       0.0001
     20  N         11.2760   30.3560   16.6590 N.3    25  ASP25      -0.1239
     21  CA        12.0800   29.4650   17.5180 C.3    25  ASP25       0.1674
     22  C         13.0000   30.2460   18.4200 C.2    25  ASP25       0.2266
     23  O         14.0770   30.6910   18.0560 O.2    25  ASP25      -0.2867
     24  CB        12.8660   28.5230   16.6250 C.3    25  ASP25       0.1410
     25  CG        13.5360   27.4150   17.4010 C.2    25  ASP25       0.3668
     26  OD1       13.5000   27.5030   18.6620 O.co2  25  ASP25      -0.2456
     27  OD2       14.1040   26.5020   16.7520 O.co2  25  ASP25      -0.2456
     28  N         14.7570   29.0310   20.7050 N.3    27  GLY27      -0.1210
     29  CA        15.9420   28.2280   20.9460 C.3    27  GLY27       0.1956
     30  C         16.9850   28.3100   19.8660 C.2    27  GLY27       0.2611
     31  O         18.0750   27.7090   20.0200 O.2    27  GLY27      -0.2717
     32  N         16.7240   29.0080   18.7640 N.am   28  ALA28      -0.1979
     33  CA        17.6350   29.1360   17.6460 C.3    28  ALA28       0.1597
     34  C         18.3260   30.4910   17.6510 C.2    28  ALA28       0.2287
     35  O         17.6240   31.5290   17.6350 O.2    28  ALA28      -0.2864
     36  CB        16.8780   28.9770   16.3380 C.3    28  ALA28       0.0319
     37  N         17.3270   29.9780    9.8030 N.3    32  ILE32      -0.1245
     38  CA        17.7870   29.0230    8.7910 C.3    32  ILE32       0.1561
     39  C         16.5960   28.6100    7.9370 C.2    32  ILE32       0.2260
     40  O         15.5570   28.2130    8.4250 O.2    32  ILE32      -0.2867
     41  CB        18.5110   27.8260    9.4270 C.3    32  ILE32       0.0252
     42  CG1       19.0990   26.8860    8.3700 C.3    32  ILE32       0.0019
     43  CG2       17.6640   27.0960   10.4470 C.3    32  ILE32       0.0019
     44  CD1       20.0270   25.8490    8.9820 C.3    32  ILE32       0.0001
     45  N         24.7920   23.4510   14.4270 N.3    48  GLY48      -0.1210
     46  CA        24.4490   22.0930   14.8840 C.3    48  GLY48       0.1956
     47  C         23.4580   22.1560   16.0150 C.2    48  GLY48       0.2612
     48  O         23.0910   23.2170   16.5030 O.2    48  GLY48      -0.2717
     49  N         23.0790   20.9710   16.4210 N.am   49  GLY49      -0.1942
     50  CA        22.1780   20.7440   17.5070 C.3    49  GLY49       0.2014
     51  C         21.8530   19.2900   17.6530 C.2    49  GLY49       0.2638
     52  O         22.7460   18.4710   17.4870 O.2    49  GLY49      -0.2714
     53  N         20.5970   19.0080   17.9730 N.am   50  ILE50      -0.1977
     54  CA        20.2830   17.5760   18.1070 C.3    50  ILE50       0.1596
     55  C         20.5610   16.8780   16.7870 C.2    50  ILE50       0.2287
     56  O         20.0950   17.3640   15.7530 O.2    50  ILE50      -0.2864
     57  CB        18.8350   17.4610   18.6080 C.3    50  ILE50       0.0276
     58  CG1       18.5910   18.1780   19.9440 C.3    50  ILE50       0.0022
     59  CG2       18.4010   16.0010   18.7000 C.3    50  ILE50       0.0022
     60  CD1       18.5180   17.2770   21.1460 C.3    50  ILE50       0.0001
     61  N         15.6330   20.5780    8.2640 N.3    81  PRO81      -0.2102
     62  CA        14.3610   19.8740    8.0840 C.3    81  PRO81       0.1504
     63  C         13.1300   20.7740    8.1430 C.2    81  PRO81       0.2575
     64  O         12.0300   20.3840    7.7340 O.2    81  PRO81      -0.2718
     65  CB        14.3130   18.9170    9.2910 C.3    81  PRO81       0.0282
     66  CG        15.6880   18.8430    9.8400 C.3    81  PRO81       0.0208
     67  CD        16.3120   20.1690    9.4940 C.3    81  PRO81       0.0893
     68  N         13.2240   21.9970    8.6560 N.am   82  ILE82      -0.1980
     69  CA        12.1630   22.9820    8.7200 C.3    82  ILE82       0.1595
     70  C         12.7140   24.3810    8.6730 C.2    82  ILE82       0.2287
     71  O         13.8450   24.6450    9.1250 O.2    82  ILE82      -0.2864
     72  CB        11.4140   22.7420   10.0470 C.3    82  ILE82       0.0276
     73  CG1       10.1310   23.5850   10.1600 C.3    82  ILE82       0.0022
     74  CG2       12.3460   22.8950   11.2240 C.3    82  ILE82       0.0022
     75  CD1        9.3580   23.1020   11.3820 C.3    82  ILE82       0.0001
     76  N         13.2200   27.9430   10.0260 N.3    84  ILE84      -0.1245
     77  CA        13.3420   28.4490   11.4060 C.3    84  ILE84       0.1561
     78  C         13.6490   29.9260   11.4450 C.2    84  ILE84       0.2260
     79  O         14.6640   30.3470   10.8590 O.2    84  ILE84      -0.2867
     80  CB        14.4760   27.7130   12.1540 C.3    84  ILE84       0.0252
     81  CG1       14.1370   26.2260   12.2740 C.3    84  ILE84       0.0019
     82  CG2       14.8200   28.3190   13.5020 C.3    84  ILE84       0.0019
     83  CD1       15.3070   25.3680   12.6630 C.3    84  ILE84       0.0001
@<TRIPOS>BOND
     1    64    63    2
     2    39    40    2
     3    39    38    1
     4    62    63    1
     5    62    61    1
     6    62    65    1
     7    63    68   am
     8    61    67    1
     9    42    44    1
    10    42    41    1
    11    68    69    1
    12    70    69    1
    13    70    71    2
    14    69    72    1
    15    38    41    1
    16    38    37    1
    17    65    66    1
    18    41    43    1
    19    67    66    1
    20    76    77    1
    21    72    73    1
    22    72    74    1
    23    73    75    1
    24    79    78    2
    25    77    78    1
    26    77    80    1
    27    12    13    1
    28    80    81    1
    29    80    82    1
    30    81    83    1
    31    13    16    1
    32    13    14    1
    33    10     9    1
    34    16    17    1
    35    15    14    2
    36     9    11    1
    37     9     8    2
    38    45    46    1
    39    17    19    1
    40    17    18    1
    41     7     8    1
    42     7     6    1
    43    46    47    1
    44     5     6    1
    45     5     2    1
    46     4     3    2
    47    56    55    2
    48    47    49   am
    49    47    48    2
    50     3     2    1
    51    36    33    1
    52    49    50    1
    53    24    25    1
    54    24    21    1
    55    20    21    1
    56     2     1    1
    57    27    25   ar
    58    55    54    1
    59    25    26   ar
    60    52    51    2
    61    50    51    1
    62    21    22    1
    63    35    34    2
    64    33    34    1
    65    33    32    1
    66    51    53   am
    67    53    54    1
    68    23    22    2
    69    54    57    1
    70    57    59    1
    71    57    58    1
    72    32    30   am
    73    30    31    2
    74    30    29    1
    75    58    60    1
    76    28    29    1
