@<TRIPOS>MOLECULE
tmp/3s45B00.pdb
 102 96 0 0 0
SMALL
GASTEIGER

@<TRIPOS>ATOM
      1  N         28.0050    1.8840   18.4230 N.3    23  LEU23      -0.1245
      2  CA        26.8080    1.7860   17.5830 C.3    23  LEU23       0.1561
      3  C         27.0360    2.4890   16.2600 C.2    23  LEU23       0.2260
      4  O         27.4900    3.6440   16.3000 O.2    23  LEU23      -0.2867
      5  CB        25.6470    2.4580   18.3120 C.3    23  LEU23       0.0270
      6  CG        24.2900    2.5550   17.6580 C.3    23  LEU23       0.0019
      7  CD1       23.7010    1.1880   17.3410 C.3    23  LEU23       0.0001
      8  CD2       23.3360    3.3360   18.5690 C.3    23  LEU23       0.0001
      9  N         25.6850    4.4520   13.5630 N.3    25  ASP25      -0.1239
     10  CA        24.5760    5.4050   13.6110 C.3    25  ASP25       0.1674
     11  C         24.4930    6.3620   12.4430 C.2    25  ASP25       0.2266
     12  O         25.1680    7.4060   12.3950 O.2    25  ASP25      -0.2867
     13  CB        24.7900    6.2210   14.8930 C.3    25  ASP25       0.1410
     14  CG        23.5720    7.0640   15.1760 C.2    25  ASP25       0.3668
     15  OD1       22.6000    7.0050   14.4030 O.co2  25  ASP25      -0.2456
     16  OD2       23.6040    7.7810   16.1900 O.co2  25  ASP25      -0.2456
     17  N         22.2220    8.3470   11.7630 N.3    27  GLY27      -0.1210
     18  CA        21.6050    9.5750   12.2570 C.3    27  GLY27       0.1956
     19  C         22.5310   10.5300   12.9870 C.2    27  GLY27       0.2612
     20  O         22.0880   11.6290   13.4160 O.2    27  GLY27      -0.2717
     21  N         23.8030   10.1590   13.1230 N.am   28  ALA28      -0.1965
     22  CA        24.7990   11.0190   13.7660 C.3    28  ALA28       0.1728
     23  C         25.7520   11.5700   12.7210 C.2    28  ALA28       0.2616
     24  O         26.2790   10.8420   11.8620 O.2    28  ALA28      -0.2715
     25  CB        25.5520   10.2390   14.8370 C.3    28  ALA28       0.0334
     26  N         25.9970   12.8700   12.7620 N.am   29  ASP29      -0.1957
     27  CA        26.9390   13.4670   11.8120 C.3    29  ASP29       0.1840
     28  C         28.3820   13.1730   12.2280 C.2    29  ASP29       0.2622
     29  O         29.2320   12.9550   11.3510 O.2    29  ASP29      -0.2715
     30  CB        26.6350   14.9640   11.7650 C.3    29  ASP29       0.1450
     31  CG        25.1470   15.1990   11.5370 C.2    29  ASP29       0.3671
     32  OD1       24.5860   14.9510   10.4380 O.co2  29  ASP29      -0.2456
     33  OD2       24.4940   15.6460   12.5090 O.co2  29  ASP29      -0.2456
     34  N         28.6260   13.1840   13.5390 N.am   30  ASP30      -0.1971
     35  CA        29.9100   13.0510   14.1920 C.3    30  ASP30       0.1709
     36  C         29.9950   11.7290   14.9650 C.2    30  ASP30       0.2293
     37  O         29.0050   11.0130   15.0950 O.2    30  ASP30      -0.2864
     38  CB        30.1920   14.1820   15.2080 C.3    30  ASP30       0.1436
     39  CG        29.8370   15.5620   14.7150 C.2    30  ASP30       0.3671
     40  OD1       30.5170   16.0340   13.7890 O.co2  30  ASP30      -0.2456
     41  OD2       28.8770   16.1840   15.2260 O.co2  30  ASP30      -0.2456
     42  N         31.0470   10.0960   18.6540 N.3    32  ILE32      -0.1245
     43  CA        31.1560   10.5830   20.0080 C.3    32  ILE32       0.1561
     44  C         31.3380    9.3460   20.8860 C.2    32  ILE32       0.2260
     45  O         30.5320    8.4120   20.7820 O.2    32  ILE32      -0.2867
     46  CB        29.9210   11.3660   20.5110 C.3    32  ILE32       0.0252
     47  CG1       29.3030   12.4130   19.5850 C.3    32  ILE32       0.0019
     48  CG2       30.2280   12.0430   21.8690 C.3    32  ILE32       0.0019
     49  CD1       30.2550   13.3470   18.9070 C.3    32  ILE32       0.0001
     50  N         28.0350   19.9770   20.6170 N.3    47  VAL47      -0.1231
     51  CA        27.2740   18.9630   19.8970 C.3    47  VAL47       0.1692
     52  C         25.8150   18.9030   20.3430 C.2    47  VAL47       0.2593
     53  O         25.5390   18.9360   21.5480 O.2    47  VAL47      -0.2718
     54  CB        27.9430   17.5870   20.1110 C.3    47  VAL47       0.0266
     55  CG1       27.0160   16.4690   19.6780 C.3    47  VAL47       0.0020
     56  CG2       29.2660   17.5290   19.3580 C.3    47  VAL47       0.0020
     57  N         24.8900   18.8270   19.3880 N.am   48  GLY48      -0.1942
     58  CA        23.4630   18.8080   19.7130 C.3    48  GLY48       0.2014
     59  C         22.8660   17.4440   19.4290 C.2    48  GLY48       0.2639
     60  O         23.1410   16.8630   18.3840 O.2    48  GLY48      -0.2714
     61  N         22.0710   16.9410   20.3490 N.am   49  GLY49      -0.1939
     62  CA        21.4330   15.6430   20.2820 C.3    49  GLY49       0.2014
     63  C         19.9570   15.7670   20.5920 C.2    49  GLY49       0.2638
     64  O         19.4340   16.9020   20.5960 O.2    49  GLY49      -0.2714
     65  N         19.2860   14.6640   20.8530 N.am   50  ILE50      -0.1977
     66  CA        17.8350   14.7470   21.0220 C.3    50  ILE50       0.1596
     67  C         17.4320   15.5930   22.2270 C.2    50  ILE50       0.2287
     68  O         16.3630   16.2140   22.2090 O.2    50  ILE50      -0.2864
     69  CB        17.1980   13.3500   21.1530 C.3    50  ILE50       0.0276
     70  CG1       15.7250   13.3460   20.7250 C.3    50  ILE50       0.0022
     71  CG2       17.3940   12.8130   22.5650 C.3    50  ILE50       0.0022
     72  CD1       15.1070   11.9820   20.4820 C.3    50  ILE50       0.0001
     73  N         28.0090   10.9830   26.0780 N.3    80  THR80      -0.1204
     74  CA        26.9240   10.3000   25.3600 C.3    80  THR80       0.1979
     75  C         26.5600    9.0100   26.0820 C.2    80  THR80       0.2460
     76  O         27.4530    8.3370   26.6030 O.2    80  THR80      -0.2732
     77  CB        27.3410   10.0220   23.9050 C.3    80  THR80       0.1783
     78  OG1       26.3220    9.2820   23.2370 O.3    80  THR80      -0.2211
     79  CG2       28.6130    9.1810   23.8440 C.3    80  THR80       0.0376
     80  N         25.2900    8.6260   26.1600 N.am   81  PRO81      -0.2717
     81  CA        24.9500    7.3960   26.8840 C.3    81  PRO81       0.1535
     82  C         25.3450    6.1470   26.1020 C.2    81  PRO81       0.2598
     83  O         25.4440    5.0640   26.6720 O.2    81  PRO81      -0.2715
     84  CB        23.4270    7.5060   27.0520 C.3    81  PRO81       0.0310
     85  CG        22.9690    8.3400   25.8940 C.3    81  PRO81       0.0237
     86  CD        24.0990    9.2960   25.5900 C.3    81  PRO81       0.0939
     87  N         25.5920    6.2760   24.8170 N.am   82  ILE82      -0.1978
     88  CA        25.9580    5.1800   23.9230 C.3    82  ILE82       0.1596
     89  C         27.0840    5.6810   23.0270 C.2    82  ILE82       0.2287
     90  O         26.9330    6.7840   22.4790 O.2    82  ILE82      -0.2864
     91  CB        24.7630    4.7360   23.0460 C.3    82  ILE82       0.0276
     92  CG1       23.5260    4.3720   23.8520 C.3    82  ILE82       0.0022
     93  CG2       25.2100    3.5960   22.1490 C.3    82  ILE82       0.0022
     94  CD1       22.3420    3.7440   23.1510 C.3    82  ILE82       0.0001
     95  N         29.0080    6.2810   19.6990 N.3    84  ILE84      -0.1245
     96  CA        28.4470    6.2000   18.3390 C.3    84  ILE84       0.1561
     97  C         29.5160    6.5020   17.2890 C.2    84  ILE84       0.2260
     98  O         30.3130    7.4670   17.4370 O.2    84  ILE84      -0.2867
     99  CB        27.2570    7.1460   18.1370 C.3    84  ILE84       0.0252
    100  CG1       27.4950    8.5960   18.5730 C.3    84  ILE84       0.0019
    101  CG2       25.9670    6.6790   18.8270 C.3    84  ILE84       0.0019
    102  CD1       26.3200    9.5430   18.3410 C.3    84  ILE84       0.0001
@<TRIPOS>BOND
     1    32    31   ar
     2    29    28    2
     3    31    30    1
     4    31    33   ar
     5    17    18    1
     6    30    27    1
     7    27    28    1
     8    27    26    1
     9    24    23    2
    10    28    34   am
    11    18    19    1
    12    12    11    2
    13    11    10    1
    14    23    26   am
    15    23    22    1
    16    19    21   am
    17    19    20    2
    18    21    22    1
    19    34    35    1
    20     9    10    1
    21    10    13    1
    22    22    25    1
    23    40    39   ar
    24    35    36    1
    25    35    38    1
    26    15    14   ar
    27    39    38    1
    28    39    41   ar
    29    13    14    1
    30    36    37    2
    31    14    16   ar
    32     3     4    2
    33     3     2    1
    34    97    98    2
    35    97    96    1
    36     7     6    1
    37     2     5    1
    38     2     1    1
    39     6     5    1
    40     6     8    1
    41    99    96    1
    42    99   100    1
    43    99   101    1
    44    96    95    1
    45   102   100    1
    46    60    59    2
    47    42    43    1
    48    49    47    1
    49    56    54    1
    50    57    58    1
    51    57    52   am
    52    59    58    1
    53    59    61   am
    54    47    46    1
    55    55    54    1
    56    51    54    1
    57    51    52    1
    58    51    50    1
    59    43    46    1
    60    43    44    1
    61    62    61    1
    62    62    63    1
    63    52    53    2
    64    72    70    1
    65    46    48    1
    66    63    64    2
    67    63    65   am
    68    70    69    1
    69    45    44    2
    70    65    66    1
    71    66    69    1
    72    66    67    1
    73    69    71    1
    74    93    91    1
    75    68    67    2
    76    90    89    2
    77    89    88    1
    78    91    92    1
    79    91    88    1
    80    94    92    1
    81    78    77    1
    82    79    77    1
    83    77    74    1
    84    88    87    1
    85    87    82   am
    86    74    73    1
    87    74    75    1
    88    86    85    1
    89    86    80    1
    90    85    84    1
    91    75    80   am
    92    75    76    2
    93    82    83    2
    94    82    81    1
    95    80    81    1
    96    81    84    1
