@<TRIPOS>MOLECULE
tmp/3s4bB00.pdb
 131 126 0 0 0
SMALL
GASTEIGER

@<TRIPOS>ATOM
      1  N         38.0410    4.5690   20.5740 N.3   351  ARG351     -0.1245
      2  CA        36.9440    5.2280   21.2930 C.3   351  ARG351      0.1563
      3  C         35.9080    4.2230   21.8070 C.2   351  ARG351      0.2260
      4  O         34.7420    4.5740   22.0180 O.2   351  ARG351     -0.2867
      5  CB        36.2180    6.2300   20.3930 C.3   351  ARG351      0.0307
      6  CG        36.9880    7.4930   20.0560 C.3   351  ARG351      0.0489
      7  CD        37.7010    8.1200   21.2430 C.3   351  ARG351      0.2205
      8  NE        38.4290    9.3080   20.8060 N.pl3 351  ARG351     -0.0865
      9  CZ        39.7070    9.3160   20.4510 C.cat 351  ARG351      0.5346
     10  NH1       40.4200    8.2000   20.5110 N.pl3 351  ARG351      0.1354
     11  NH2       40.2760   10.4440   20.0480 N.pl3 351  ARG351      0.1354
     12  N         31.8190    6.4130   27.2890 N.3   357  GLU357     -0.1245
     13  CA        31.5770    5.6720   26.0400 C.3   357  GLU357      0.1567
     14  C         31.2690    4.2130   26.3850 C.2   357  GLU357      0.2260
     15  O         32.0190    3.5800   27.1240 O.2   357  GLU357     -0.2867
     16  CB        32.7970    5.7200   25.1090 C.3   357  GLU357      0.0388
     17  CG        33.2740    7.1130   24.7030 C.3   357  GLU357      0.1160
     18  CD        32.4280    7.7290   23.6020 C.2   357  GLU357      0.3649
     19  OE1       31.4850    7.0550   23.1360 O.co2 357  GLU357     -0.2457
     20  OE2       32.7110    8.8800   23.1990 O.co2 357  GLU357     -0.2457
     21  N         36.4440    7.2700   14.5970 N.3   365  GLY365     -0.1225
     22  CA        36.5660    8.2230   13.5100 C.3   365  GLY365      0.1811
     23  C         37.8790    8.1170   12.7590 C.2   365  GLY365      0.2280
     24  O         38.9480    8.0030   13.3540 O.2   365  GLY365     -0.2866
     25  N         39.2020   10.4890   11.2660 N.3   367  ARG367     -0.1231
     26  CA        39.9530   11.6760   11.6470 C.3   367  ARG367      0.1694
     27  C         40.6040   11.4650   13.0090 C.2   367  ARG367      0.2592
     28  O         41.6830   11.9930   13.2750 O.2   367  ARG367     -0.2718
     29  CB        39.0550   12.9160   11.6770 C.3   367  ARG367      0.0321
     30  CG        38.2090   13.0450   12.9250 C.3   367  ARG367      0.0489
     31  CD        37.6980   14.4680   13.0990 C.3   367  ARG367      0.2205
     32  NE        36.7790   14.8940   12.0430 N.pl3 367  ARG367     -0.0865
     33  CZ        35.4680   14.6630   12.0470 C.cat 367  ARG367      0.5346
     34  NH1       34.7070   15.0970   11.0530 N.pl3 367  ARG367      0.1354
     35  NH2       34.9100   13.9870   13.0360 N.pl3 367  ARG367      0.1354
     36  N         39.9470   10.6800   13.8590 N.am  368  ASP368     -0.1974
     37  CA        40.4360   10.4160   15.2080 C.3   368  ASP368      0.1709
     38  C         41.6460    9.4700   15.2090 C.2   368  ASP368      0.2293
     39  O         42.5740    9.6520   15.9950 O.2   368  ASP368     -0.2864
     40  CB        39.3040    9.8650   16.0850 C.3   368  ASP368      0.1436
     41  CG        38.2050   10.8940   16.3410 C.2   368  ASP368      0.3671
     42  OD1       38.5110   11.9830   16.8730 O.co2 368  ASP368     -0.2456
     43  OD2       37.0340   10.6240   15.9940 O.co2 368  ASP368     -0.2456
     44  N         33.9220    7.9230    7.1680 N.3   403  HIS403     -0.1241
     45  CA        34.0190    8.8370    8.3030 C.3   403  HIS403      0.1621
     46  C         34.3860    8.0830    9.5650 C.2   403  HIS403      0.2264
     47  O         34.9470    8.6480   10.5020 O.2   403  HIS403     -0.2867
     48  CB        32.7000    9.5600    8.5470 C.3   403  HIS403      0.0745
     49  CG        32.6960   10.3740    9.8060 C.ar  403  HIS403      0.0817
     50  ND1       33.0330   11.7070    9.8250 N.ar  403  HIS403     -0.2268
     51  CD2       32.4220   10.0310   11.0870 C.ar  403  HIS403      0.1154
     52  CE1       32.9520   12.1600   11.0670 C.ar  403  HIS403      0.1986
     53  NE2       32.5850   11.1660   11.8490 N.ar  403  HIS403     -0.2212
     54  N         35.4480   18.9460   11.1440 N.3   488  TRP488     -0.1227
     55  CA        35.8910   18.4080   12.4260 C.3   488  TRP488      0.1737
     56  C         34.7420   18.4380   13.4440 C.2   488  TRP488      0.2595
     57  O         34.4900   17.4490   14.1330 O.2   488  TRP488     -0.2718
     58  CB        37.1300   19.1540   12.9380 C.3   488  TRP488      0.0564
     59  CG        37.5150   18.8060   14.3560 C.ar  488  TRP488      0.0003
     60  CD1       38.3970   17.8500   14.7640 C.ar  488  TRP488      0.0946
     61  CD2       37.0060   19.4410   15.5430 C.ar  488  TRP488      0.0152
     62  NE1       38.4750   17.8520   16.1410 N.ar  488  TRP488     -0.2442
     63  CE2       37.6520   18.7910   16.6330 C.ar  488  TRP488      0.0810
     64  CE3       36.1020   20.4570   15.7860 C.ar  488  TRP488      0.0012
     65  CZ2       37.3700   19.1740   17.9550 C.ar  488  TRP488      0.0191
     66  CZ3       35.8410   20.8220   17.0960 C.ar  488  TRP488      0.0001
     67  CH2       36.4750   20.1780   18.1660 C.ar  488  TRP488      0.0015
     68  N         34.0340   19.5610   13.5100 N.am  489  ASN489     -0.1960
     69  CA        32.8810   19.6960   14.3940 C.3   489  ASN489      0.1819
     70  C         31.7050   18.8730   13.8750 C.2   489  ASN489      0.2621
     71  O         31.0260   19.2730   12.9310 O.2   489  ASN489     -0.2715
     72  CB        32.4850   21.1690   14.5020 C.3   489  ASN489      0.1195
     73  CG        31.4770   21.4280   15.6030 C.2   489  ASN489      0.2630
     74  OD1       30.6130   20.5990   15.8770 O.2   489  ASN489     -0.2716
     75  ND2       31.5830   22.5880   16.2390 N.am  489  ASN489     -0.0877
     76  N         31.4690   17.7180   14.4810 N.am  490  ASP490     -0.1971
     77  CA        30.4260   16.8230   13.9990 C.3   490  ASP490      0.1709
     78  C         29.0300   17.4250   14.1180 C.2   490  ASP490      0.2293
     79  O         28.1270   17.0170   13.4020 O.2   490  ASP490     -0.2864
     80  CB        30.4730   15.4910   14.7470 C.3   490  ASP490      0.1436
     81  CG        31.5370   14.5580   14.2100 C.2   490  ASP490      0.3671
     82  OD1       31.6460   14.4110   12.9750 O.co2 490  ASP490     -0.2456
     83  OD2       32.2680   13.9670   15.0290 O.co2 490  ASP490     -0.2456
     84  N         29.0090   20.6800   25.5040 N.3   658  LYS658     -0.1231
     85  CA        29.5160   20.0610   24.2830 C.3   658  LYS658      0.1693
     86  C         29.8410   21.0890   23.2170 C.2   658  LYS658      0.2591
     87  O         30.5640   22.0530   23.4620 O.2   658  LYS658     -0.2718
     88  CB        28.4840   19.0850   23.7290 C.3   658  LYS658      0.0285
     89  CG        28.1050   18.0000   24.6950 C.3   658  LYS658      0.0035
     90  CD        29.1260   16.8890   24.6780 C.3   658  LYS658      0.0206
     91  CE        29.1240   16.1920   23.3320 C.3   658  LYS658      0.1093
     92  NZ        29.9350   14.9500   23.3130 N.3   658  LYS658     -0.1314
     93  N         29.2750   20.8750   22.0360 N.am  659  GLU659     -0.1979
     94  CA        29.5900   21.6810   20.8700 C.3   659  GLU659      0.1602
     95  C         28.8520   23.0280   20.8630 C.2   659  GLU659      0.2287
     96  O         29.1620   23.8990   20.0490 O.2   659  GLU659     -0.2864
     97  CB        29.3080   20.8800   19.5910 C.3   659  GLU659      0.0415
     98  CG        30.3880   19.8380   19.2470 C.3   659  GLU659      0.1163
     99  CD        30.0550   18.4410   19.7420 C.2   659  GLU659      0.3649
    100  OE1       29.4330   18.3230   20.8120 O.co2 659  GLU659     -0.2457
    101  OE2       30.4000   17.4580   19.0540 O.co2 659  GLU659     -0.2457
    102  N         35.3910   22.4790   24.4770 N.3   664  PHE664     -0.1241
    103  CA        35.8710   21.2660   23.8530 C.3   664  PHE664      0.1605
    104  C         37.3820   21.3030   23.8820 C.2   664  PHE664      0.2264
    105  O         38.0060   22.0260   23.1030 O.2   664  PHE664     -0.2867
    106  CB        35.3790   21.1680   22.4210 C.3   664  PHE664      0.0534
    107  CG        34.7410   19.8630   22.1040 C.ar  664  PHE664     -0.0203
    108  CD1       33.3710   19.7230   22.1750 C.ar  664  PHE664     -0.0042
    109  CD2       35.5090   18.7710   21.7450 C.ar  664  PHE664     -0.0042
    110  CE1       32.7740   18.5250   21.8770 C.ar  664  PHE664     -0.0003
    111  CE2       34.9170   17.5660   21.4540 C.ar  664  PHE664     -0.0003
    112  CZ        33.5460   17.4420   21.5240 C.ar  664  PHE664     -0.0000
    113  N         39.6690   19.2780   23.0290 N.3   666  HIS666     -0.1241
    114  CA        40.3710   18.8160   21.8510 C.3   666  HIS666      0.1621
    115  C         40.8660   20.0260   21.0600 C.2   666  HIS666      0.2264
    116  O         42.0210   20.0660   20.6450 O.2   666  HIS666     -0.2867
    117  CB        39.4470   17.9200   21.0200 C.3   666  HIS666      0.0745
    118  CG        40.1350   17.2110   19.8940 C.ar  666  HIS666      0.0817
    119  ND1       40.2090   15.8870   19.7480 N.ar  666  HIS666     -0.2268
    120  CD2       40.7940   17.6980   18.8420 C.ar  666  HIS666      0.1154
    121  CE1       40.8810   15.5470   18.6520 C.ar  666  HIS666      0.1986
    122  NE2       41.2400   16.6390   18.0960 N.ar  666  HIS666     -0.2212
    123  N         37.0940   15.0740   27.4460 N.3   712  GLN712     -0.1245
    124  CA        36.7340   15.6560   26.1660 C.3   712  GLN712      0.1566
    125  C         36.0800   17.0190   26.3130 C.2   712  GLN712      0.2260
    126  O         36.2510   17.8920   25.4570 O.2   712  GLN712     -0.2867
    127  CB        35.7650   14.7460   25.4250 C.3   712  GLN712      0.0367
    128  CG        34.8360   15.5040   24.4920 C.3   712  GLN712      0.0905
    129  CD        33.8240   14.6000   23.8270 C.2   712  GLN712      0.2608
    130  OE1       32.7130   14.4370   24.3130 O.2   712  GLN712     -0.2717
    131  NE2       34.2060   14.0070   22.7080 N.am  712  GLN712     -0.0878
@<TRIPOS>BOND
     1    44    45    1
     2    45    48    1
     3    45    46    1
     4    48    49    1
     5    46    47    2
     6    49    50   ar
     7    49    51   ar
     8    50    52   ar
     9    34    33    1
    10    52    53   ar
    11    51    53   ar
    12    54    55    1
    13    25    26    1
    14    26    29    1
    15    26    27    1
    16    29    30    1
    17    32    33    2
    18    32    31    1
    19    33    35    1
    20    55    58    1
    21    55    56    1
    22    23    24    2
    23    23    22    1
    24    30    31    1
    25    71    70    2
    26    58    59    1
    27    82    81   ar
    28    27    28    2
    29    27    36   am
    30    79    78    2
    31    56    68   am
    32    56    57    2
    33    22    21    1
    34    68    69    1
    35    36    37    1
    36    70    69    1
    37    70    76   am
    38    77    78    1
    39    77    76    1
    40    77    80    1
    41    81    80    1
    42    81    83   ar
    43    59    60   ar
    44    59    61   ar
    45    69    72    1
    46    72    73    1
    47    60    62   ar
    48    37    38    1
    49    37    40    1
    50    38    39    2
    51    61    64   ar
    52    61    63   ar
    53    73    74    2
    54    73    75   am
    55    64    66   ar
    56    43    41   ar
    57    40    41    1
    58    62    63   ar
    59    41    42   ar
    60    63    65   ar
    61    66    67   ar
    62    65    67   ar
    63   122   121   ar
    64   122   120   ar
    65   121   119   ar
    66   120   118   ar
    67   101    99   ar
    68    98    97    1
    69    98    99    1
    70    97    94    1
    71    99   100   ar
    72   119   118   ar
    73   118   117    1
    74    11     9    1
    75    96    95    2
    76     6     5    1
    77     6     7    1
    78     5     2    1
    79     9    10    1
    80     9     8    2
    81     1     2    1
    82   116   115    2
    83     8     7    1
    84    95    94    1
    85    94    93    1
    86   117   114    1
    87   115   114    1
    88     2     3    1
    89   111   112   ar
    90   111   109   ar
    91   112   110   ar
    92   109   107   ar
    93     3     4    2
    94   114   113    1
    95   110   108   ar
    96    93    86   am
    97   107   108   ar
    98   107   106    1
    99   106   103    1
   100   131   129   am
   101   105   104    2
   102    19    18   ar
   103    20    18   ar
   104    86    87    2
   105    86    85    1
   106    92    91    1
   107    91    90    1
   108    18    17    1
   109    88    85    1
   110    88    89    1
   111   129   130    2
   112   129   128    1
   113   103   104    1
   114   103   102    1
   115    85    84    1
   116   128   127    1
   117    90    89    1
   118    17    16    1
   119    16    13    1
   120   127   124    1
   121   126   125    2
   122    13    14    1
   123    13    12    1
   124   124   125    1
   125   124   123    1
   126    14    15    2
