@<TRIPOS>MOLECULE
tmp/3s4dA00.pdb
 162 156 0 0 0
SMALL
GASTEIGER

@<TRIPOS>ATOM
      1  N         -8.9080   -3.2620   20.6380 N.3   362  ARG362     -0.1245
      2  CA       -10.1680   -3.7950   20.1500 C.3   362  ARG362      0.1563
      3  C        -11.3290   -2.8250   20.0900 C.2   362  ARG362      0.2260
      4  O        -11.7910   -2.3080   21.1110 O.2   362  ARG362     -0.2867
      5  CB       -10.5440   -5.0600   20.9100 C.3   362  ARG362      0.0307
      6  CG       -10.0790   -6.2860   20.1620 C.3   362  ARG362      0.0489
      7  CD       -10.0810   -7.5150   21.0190 C.3   362  ARG362      0.2205
      8  NE       -11.0270   -8.5140   20.5300 N.pl3 362  ARG362     -0.0865
      9  CZ       -11.1250   -9.7490   21.0140 C.cat 362  ARG362      0.5346
     10  NH1      -10.3250  -10.1410   21.9950 N.pl3 362  ARG362      0.1354
     11  NH2      -12.0180  -10.5960   20.5140 N.pl3 362  ARG362      0.1354
     12  N        -17.4920   -9.9770   12.9420 N.3   367  ARG367     -0.1231
     13  CA       -17.9340  -11.3190   13.2440 C.3   367  ARG367      0.1694
     14  C        -18.5220  -11.3950   14.6440 C.2   367  ARG367      0.2592
     15  O        -19.4530  -12.1490   14.8740 O.2   367  ARG367     -0.2718
     16  CB       -16.7670  -12.2990   13.1020 C.3   367  ARG367      0.0321
     17  CG       -15.5680  -11.7590   13.8330 C.3   367  ARG367      0.0489
     18  CD       -14.7150  -12.9560   13.9020 C.3   367  ARG367      0.2205
     19  NE       -13.5160  -12.9420   14.7540 N.pl3 367  ARG367     -0.0865
     20  CZ       -13.4380  -13.7370   15.8200 C.cat 367  ARG367      0.5346
     21  NH1      -14.5050  -14.4390   16.1750 N.pl3 367  ARG367      0.1354
     22  NH2      -12.3460  -13.8050   16.5710 N.pl3 367  ARG367      0.1354
     23  N        -17.9910  -10.6180   15.5800 N.am  368  ASP368     -0.1974
     24  CA       -18.4300  -10.7350   16.9600 C.3   368  ASP368      0.1709
     25  C        -19.8020  -10.1180   17.1180 C.2   368  ASP368      0.2293
     26  O        -20.6030  -10.5430   17.9540 O.2   368  ASP368     -0.2864
     27  CB       -17.4220  -10.0720   17.8890 C.3   368  ASP368      0.1436
     28  CG       -16.0120  -10.5550   17.6390 C.2   368  ASP368      0.3671
     29  OD1      -15.3190  -10.9180   18.6110 O.co2 368  ASP368     -0.2456
     30  OD2      -15.5880  -10.5730   16.4610 O.co2 368  ASP368     -0.2456
     31  N        -12.3430   -7.0650    9.0250 N.3   403  HIS403     -0.1241
     32  CA       -12.4870   -7.9750   10.1480 C.3   403  HIS403      0.1621
     33  C        -13.2680   -7.3060   11.2520 C.2   403  HIS403      0.2264
     34  O        -14.0940   -7.9220   11.9070 O.2   403  HIS403     -0.2867
     35  CB       -11.1540   -8.4670   10.7000 C.3   403  HIS403      0.0745
     36  CG       -11.3250   -9.5200   11.7530 C.ar  403  HIS403      0.0817
     37  ND1      -10.2800  -10.0190   12.5000 N.ar  403  HIS403     -0.2268
     38  CD2      -12.4390  -10.1650   12.1780 C.ar  403  HIS403      0.1154
     39  CE1      -10.7470  -10.9280   13.3400 C.ar  403  HIS403      0.1986
     40  NE2      -12.0540  -11.0330   13.1650 N.ar  403  HIS403     -0.2212
     41  N         -6.0680   -5.6110   13.6170 N.3   416  ILE416     -0.1245
     42  CA        -6.0020   -6.9280   14.2410 C.3   416  ILE416      0.1561
     43  C         -6.4460   -8.0600   13.3400 C.2   416  ILE416      0.2260
     44  O         -7.6080   -8.4610   13.3340 O.2   416  ILE416     -0.2867
     45  CB        -6.7550   -6.9750   15.5960 C.3   416  ILE416      0.0252
     46  CG1       -6.0890   -6.0120   16.5750 C.3   416  ILE416      0.0019
     47  CG2       -6.7630   -8.3920   16.1860 C.3   416  ILE416      0.0019
     48  CD1       -4.5470   -6.2020   16.6930 C.3   416  ILE416      0.0001
     49  N        -13.9220  -19.0020   11.5380 N.3   488  TRP488     -0.1227
     50  CA       -14.2800  -18.5280   12.8710 C.3   488  TRP488      0.1737
     51  C        -13.0660  -18.1610   13.6960 C.2   488  TRP488      0.2595
     52  O        -12.4320  -17.1340   13.4680 O.2   488  TRP488     -0.2718
     53  CB       -15.0650  -19.6060   13.6300 C.3   488  TRP488      0.0564
     54  CG       -15.6250  -19.0950   14.9350 C.ar  488  TRP488      0.0003
     55  CD1      -16.5060  -18.0740   15.0940 C.ar  488  TRP488      0.0946
     56  CD2      -15.3290  -19.5750   16.2480 C.ar  488  TRP488      0.0152
     57  NE1      -16.7840  -17.8880   16.4220 N.ar  488  TRP488     -0.2442
     58  CE2      -16.0730  -18.7990   17.1530 C.ar  488  TRP488      0.0810
     59  CE3      -14.5140  -20.5890   16.7440 C.ar  488  TRP488      0.0012
     60  CZ2      -16.0220  -18.9980   18.5260 C.ar  488  TRP488      0.0191
     61  CZ3      -14.4630  -20.7870   18.1120 C.ar  488  TRP488      0.0001
     62  CH2      -15.2160  -19.9940   18.9860 C.ar  488  TRP488      0.0015
     63  N        -12.7490  -19.0230   14.6570 N.am  489  ASN489     -0.1960
     64  CA       -11.6680  -18.7550   15.6020 C.3   489  ASN489      0.1819
     65  C        -10.3440  -18.4730   14.8930 C.2   489  ASN489      0.2621
     66  O        -10.0620  -19.0340   13.8340 O.2   489  ASN489     -0.2715
     67  CB       -11.5530  -19.8740   16.6540 C.3   489  ASN489      0.1195
     68  CG       -10.6570  -21.0120   16.2200 C.2   489  ASN489      0.2630
     69  OD1      -10.0900  -21.7180   17.0500 O.2   489  ASN489     -0.2716
     70  ND2      -10.5200  -21.1950   14.9190 N.am  489  ASN489     -0.0877
     71  N         -9.5520  -17.5800   15.4720 N.am  490  ASP490     -0.1957
     72  CA        -8.3820  -17.0540   14.7900 C.3   490  ASP490      0.1840
     73  C         -7.1690  -17.8740   15.1740 C.2   490  ASP490      0.2622
     74  O         -6.0470  -17.5480   14.8200 O.2   490  ASP490     -0.2715
     75  CB        -8.1930  -15.5780   15.1510 C.3   490  ASP490      0.1450
     76  CG        -9.4500  -14.9640   15.7310 C.2   490  ASP490      0.3671
     77  OD1       -9.9760  -15.5250   16.7080 O.co2 490  ASP490     -0.2456
     78  OD2       -9.9230  -13.9310   15.2130 O.co2 490  ASP490     -0.2456
     79  N         -7.3910  -18.9500   15.9100 N.am  491  CYS491     -0.1968
     80  CA        -6.2670  -19.7800   16.3000 C.3   491  CYS491      0.1712
     81  C         -5.9480  -20.8630   15.2750 C.2   491  CYS491      0.2296
     82  O         -4.9520  -21.5820   15.4180 O.2   491  CYS491     -0.2864
     83  CB        -6.4870  -20.3820   17.6810 C.3   491  CYS491      0.0983
     84  SG        -6.5010  -19.1430   18.9770 S.3   491  CYS491     -0.0798
     85  N         -2.2730  -12.8510   14.4550 N.3   506  GLN506     -0.1245
     86  CA        -3.3330  -12.1800   13.7100 C.3   506  GLN506      0.1566
     87  C         -2.8200  -11.0210   12.8510 C.2   506  GLN506      0.2260
     88  O         -3.3860  -10.7140   11.8110 O.2   506  GLN506     -0.2867
     89  CB        -4.4650  -11.7410   14.6430 C.3   506  GLN506      0.0367
     90  CG        -5.3260  -12.9070   15.1570 C.3   506  GLN506      0.0905
     91  CD        -4.6750  -13.6520   16.3060 C.2   506  GLN506      0.2608
     92  OE1       -3.5780  -13.3060   16.7380 O.2   506  GLN506     -0.2717
     93  NE2       -5.3540  -14.6690   16.8160 N.am  506  GLN506     -0.0878
     94  N         -1.5420  -20.1760   15.6710 N.3   649  GLU649     -0.1245
     95  CA        -1.5730  -19.8270   17.0890 C.3   649  GLU649      0.1567
     96  C         -2.1450  -20.9130   18.0060 C.2   649  GLU649      0.2260
     97  O         -2.0460  -20.8280   19.2360 O.2   649  GLU649     -0.2867
     98  CB        -2.3860  -18.5470   17.2420 C.3   649  GLU649      0.0388
     99  CG        -2.5300  -18.0110   18.6460 C.3   649  GLU649      0.1160
    100  CD        -3.6270  -16.9750   18.7010 C.2   649  GLU649      0.3649
    101  OE1       -3.3410  -15.7790   18.9530 O.co2 649  GLU649     -0.2457
    102  OE2       -4.7800  -17.3660   18.4520 O.co2 649  GLU649     -0.2457
    103  N         -0.8200  -22.1790   22.9370 N.3   653  TYR653     -0.1241
    104  CA        -1.4460  -22.3340   24.2230 C.3   653  TYR653      0.1605
    105  C         -1.0520  -23.6560   24.8340 C.2   653  TYR653      0.2264
    106  O         -1.0500  -24.6760   24.1590 O.2   653  TYR653     -0.2867
    107  CB        -2.9690  -22.2310   24.0880 C.3   653  TYR653      0.0534
    108  CG        -3.4280  -20.8110   23.8350 C.ar  653  TYR653     -0.0201
    109  CD1       -3.1590  -19.8120   24.7580 C.ar  653  TYR653     -0.0009
    110  CD2       -4.1070  -20.4660   22.6760 C.ar  653  TYR653     -0.0009
    111  CE1       -3.5540  -18.5190   24.5460 C.ar  653  TYR653      0.0417
    112  CE2       -4.5080  -19.1660   22.4510 C.ar  653  TYR653      0.0417
    113  CZ        -4.2250  -18.1960   23.3960 C.ar  653  TYR653      0.1957
    114  OH        -4.6090  -16.8860   23.2090 O.3   653  TYR653     -0.2866
    115  N         -7.9640  -22.1580   26.4120 N.3   658  LYS658     -0.1231
    116  CA        -8.4830  -21.3630   25.3080 C.3   658  LYS658      0.1693
    117  C         -8.8060  -22.1850   24.0810 C.2   658  LYS658      0.2591
    118  O         -9.3820  -23.2540   24.1700 O.2   658  LYS658     -0.2718
    119  CB        -7.4950  -20.2520   24.9450 C.3   658  LYS658      0.0285
    120  CG        -7.3620  -19.0720   25.9260 C.3   658  LYS658      0.0035
    121  CD        -8.5620  -18.1540   25.9190 C.3   658  LYS658      0.0206
    122  CE        -8.1960  -16.7200   26.3630 C.3   658  LYS658      0.1093
    123  NZ        -7.8870  -16.6130   27.8280 N.3   658  LYS658     -0.1314
    124  N         -8.4100  -21.6640   22.9310 N.am  659  GLU659     -0.1979
    125  CA        -8.6270  -22.3380   21.6590 C.3   659  GLU659      0.1602
    126  C         -7.8430  -23.6450   21.5840 C.2   659  GLU659      0.2287
    127  O         -7.8610  -24.3340   20.5680 O.2   659  GLU659     -0.2864
    128  CB        -8.2460  -21.4200   20.4940 C.3   659  GLU659      0.0415
    129  CG        -9.3890  -20.5180   19.9960 C.3   659  GLU659      0.1163
    130  CD        -9.2730  -19.0610   20.4560 C.2   659  GLU659      0.3649
    131  OE1       -8.2930  -18.7290   21.1530 O.co2 659  GLU659     -0.2457
    132  OE2      -10.1560  -18.2460   20.1150 O.co2 659  GLU659     -0.2457
    133  N        -14.3390  -23.6360   25.1800 N.3   664  PHE664     -0.1241
    134  CA       -14.7500  -22.3900   24.5720 C.3   664  PHE664      0.1605
    135  C        -16.2480  -22.2630   24.6190 C.2   664  PHE664      0.2264
    136  O        -16.9330  -22.6750   23.6870 O.2   664  PHE664     -0.2867
    137  CB       -14.2330  -22.2570   23.1430 C.3   664  PHE664      0.0534
    138  CG       -13.2090  -21.1750   22.9940 C.ar  664  PHE664     -0.0203
    139  CD1      -12.3340  -20.8980   24.0350 C.ar  664  PHE664     -0.0042
    140  CD2      -13.1360  -20.4120   21.8480 C.ar  664  PHE664     -0.0042
    141  CE1      -11.3900  -19.9040   23.9240 C.ar  664  PHE664     -0.0003
    142  CE2      -12.1910  -19.4110   21.7320 C.ar  664  PHE664     -0.0003
    143  CZ       -11.3180  -19.1570   22.7740 C.ar  664  PHE664     -0.0000
    144  N        -18.3110  -20.2750   23.8160 N.3   666  HIS666     -0.1241
    145  CA       -18.9790  -19.8820   22.5910 C.3   666  HIS666      0.1621
    146  C        -19.3080  -21.0820   21.7250 C.2   666  HIS666      0.2264
    147  O        -20.4330  -21.2250   21.2700 O.2   666  HIS666     -0.2867
    148  CB       -18.1700  -18.8690   21.8010 C.3   666  HIS666      0.0745
    149  CG       -18.9620  -18.2230   20.7110 C.ar  666  HIS666      0.0817
    150  ND1      -18.4890  -17.1780   19.9440 N.ar  666  HIS666     -0.2268
    151  CD2      -20.2150  -18.4760   20.2690 C.ar  666  HIS666      0.1154
    152  CE1      -19.4160  -16.8260   19.0720 C.ar  666  HIS666      0.1986
    153  NE2      -20.4750  -17.5990   19.2490 N.ar  666  HIS666     -0.2212
    154  N        -16.2870  -16.1920   28.2050 N.3   712  GLN712     -0.1245
    155  CA       -15.5330  -17.0240   27.2820 C.3   712  GLN712      0.1566
    156  C        -14.5200  -17.7020   28.1720 C.2   712  GLN712      0.2260
    157  O        -14.2310  -17.2060   29.2560 O.2   712  GLN712     -0.2867
    158  CB       -14.8390  -16.1480   26.2310 C.3   712  GLN712      0.0367
    159  CG       -13.7960  -16.8540   25.3840 C.3   712  GLN712      0.0905
    160  CD       -12.7140  -15.9000   24.8900 C.2   712  GLN712      0.2608
    161  OE1      -11.9380  -15.3570   25.6810 O.2   712  GLN712     -0.2717
    162  NE2      -12.6670  -15.6840   23.5810 N.am  712  GLN712     -0.0878
@<TRIPOS>BOND
     1    31    32    1
     2    32    35    1
     3    32    33    1
     4    35    36    1
     5    33    34    2
     6    49    50    1
     7    36    38   ar
     8    36    37   ar
     9    88    87    2
    10    38    40   ar
    11    37    39   ar
    12    87    86    1
    13    50    53    1
    14    50    51    1
    15    12    13    1
    16    16    13    1
    17    16    17    1
    18    40    39   ar
    19    13    14    1
    20    44    43    2
    21    43    42    1
    22    52    51    2
    23    41    42    1
    24    53    54    1
    25    51    63   am
    26    86    85    1
    27    86    89    1
    28    17    18    1
    29    66    65    2
    30    18    19    1
    31    42    45    1
    32    89    90    1
    33    14    15    2
    34    14    23   am
    35    63    64    1
    36    19    20    2
    37    72    75    1
    38    72    73    1
    39    72    71    1
    40    74    73    2
    41    65    71   am
    42    65    64    1
    43    70    68   am
    44    54    55   ar
    45    54    56   ar
    46    55    57   ar
    47    75    76    1
    48    90    91    1
    49    73    79   am
    50    78    76   ar
    51    81    82    2
    52    81    80    1
    53    23    24    1
    54    45    47    1
    55    45    46    1
    56    64    67    1
    57    94    95    1
    58    76    77   ar
    59    20    21    1
    60    20    22    1
    61    79    80    1
    62    68    67    1
    63    68    69    2
    64    56    59   ar
    65    56    58   ar
    66    80    83    1
    67    91    92    2
    68    91    93   am
    69    57    58   ar
    70    30    28   ar
    71    46    48    1
    72    59    61   ar
    73    24    25    1
    74    24    27    1
    75    95    98    1
    76    95    96    1
    77    25    26    2
    78    58    60   ar
    79    98    99    1
    80    28    27    1
    81    28    29   ar
    82    83    84    1
    83    96    97    2
    84    61    62   ar
    85   102   100   ar
    86    60    62   ar
    87    99   100    1
    88   100   101   ar
    89   152   153   ar
    90   152   150   ar
    91   153   151   ar
    92   150   149   ar
    93   129   130    1
    94   129   128    1
    95     3     2    1
    96     3     4    2
    97   132   130   ar
    98     2     1    1
    99     2     5    1
   100     6     5    1
   101     6     7    1
   102   151   149   ar
   103   130   131   ar
   104   128   125    1
   105    11     9    1
   106     8     9    2
   107     8     7    1
   108   127   126    2
   109   149   148    1
   110     9    10    1
   111   147   146    2
   112   126   125    1
   113   125   124    1
   114   146   145    1
   115   142   140   ar
   116   142   143   ar
   117   148   145    1
   118   140   138   ar
   119   112   110   ar
   120   112   113   ar
   121   145   144    1
   122   110   108   ar
   123   143   141   ar
   124   124   117   am
   125   103   104    1
   126   138   137    1
   127   138   139   ar
   128   137   134    1
   129   114   113    1
   130   113   111   ar
   131   162   160   am
   132   136   135    2
   133   108   107    1
   134   108   109   ar
   135   141   139   ar
   136   117   118    2
   137   117   116    1
   138   107   104    1
   139   106   105    2
   140   104   105    1
   141   111   109   ar
   142   134   135    1
   143   134   133    1
   144   160   159    1
   145   160   161    2
   146   119   116    1
   147   119   120    1
   148   116   115    1
   149   159   158    1
   150   121   120    1
   151   121   122    1
   152   158   155    1
   153   122   123    1
   154   155   156    1
   155   155   154    1
   156   156   157    2
