@<TRIPOS>MOLECULE
tmp/3s4fA03.pdb
 96 94 0 0 0
SMALL
GASTEIGER

@<TRIPOS>ATOM
      1  N        -17.5340    2.2010   17.8660 N.3   105  GLN105     -0.1245
      2  CA       -18.5030    2.2470   18.9610 C.3   105  GLN105      0.1566
      3  C        -19.8880    1.8270   18.4710 C.2   105  GLN105      0.2260
      4  O        -20.6510    1.1910   19.2000 O.2   105  GLN105     -0.2867
      5  CB       -18.5820    3.6500   19.5700 C.3   105  GLN105      0.0367
      6  CG       -19.4680    3.7070   20.8250 C.3   105  GLN105      0.0905
      7  CD       -19.4800    5.0720   21.4960 C.2   105  GLN105      0.2608
      8  OE1      -19.3860    6.0960   20.8330 O.2   105  GLN105     -0.2717
      9  NE2      -19.6190    5.0870   22.8190 N.am  105  GLN105     -0.0878
     10  N        -22.0060   -1.4770   19.8440 N.3   109  HIS109     -0.1241
     11  CA       -23.3370   -1.3820   20.4180 C.3   109  HIS109      0.1621
     12  C        -24.3630   -2.2520   19.7220 C.2   109  HIS109      0.2264
     13  O        -25.3820   -2.6040   20.3100 O.2   109  HIS109     -0.2867
     14  CB       -23.7930    0.0720   20.4400 C.3   109  HIS109      0.0745
     15  CG       -23.0690    0.9030   21.4520 C.ar  109  HIS109      0.0817
     16  ND1      -23.4270    2.1990   21.7500 N.ar  109  HIS109     -0.2268
     17  CD2      -22.0230    0.6060   22.2570 C.ar  109  HIS109      0.1154
     18  CE1      -22.6330    2.6650   22.7010 C.ar  109  HIS109      0.1986
     19  NE2      -21.7710    1.7170   23.0200 N.ar  109  HIS109     -0.2212
     20  N        -24.0880   -5.7080   24.9930 N.3   113  PHE113     -0.1241
     21  CA       -24.4970   -4.8290   26.0740 C.3   113  PHE113      0.1605
     22  C        -24.8120   -5.6660   27.3010 C.2   113  PHE113      0.2264
     23  O        -25.7910   -6.4190   27.3200 O.2   113  PHE113     -0.2867
     24  CB       -25.7280   -4.0140   25.6670 C.3   113  PHE113      0.0534
     25  CG       -26.1330   -2.9760   26.6830 C.ar  113  PHE113     -0.0203
     26  CD1      -25.1820   -2.3990   27.5150 C.ar  113  PHE113     -0.0042
     27  CD2      -27.4640   -2.5700   26.8060 C.ar  113  PHE113     -0.0042
     28  CE1      -25.5380   -1.4370   28.4560 C.ar  113  PHE113     -0.0003
     29  CE2      -27.8330   -1.6000   27.7520 C.ar  113  PHE113     -0.0003
     30  CZ       -26.8670   -1.0350   28.5770 C.ar  113  PHE113     -0.0000
     31  N        -27.9190    3.3240   24.9470 N.3   254  ARG254     -0.1245
     32  CA       -26.6830    4.1010   25.0850 C.3   254  ARG254      0.1563
     33  C        -26.4640    5.2010   24.0400 C.2   254  ARG254      0.2260
     34  O        -25.4740    5.9410   24.1060 O.2   254  ARG254     -0.2867
     35  CB       -25.4440    3.1580   25.0680 C.3   254  ARG254      0.0307
     36  CG       -25.5390    2.0740   26.1120 C.3   254  ARG254      0.0489
     37  CD       -24.7500    0.8620   25.7140 C.3   254  ARG254      0.2205
     38  NE       -25.0720    0.1100   24.6810 N.pl3 254  ARG254     -0.0865
     39  CZ       -24.4540   -0.9930   24.2650 C.cat 254  ARG254      0.5346
     40  NH1      -23.3370   -1.3880   24.8630 N.pl3 254  ARG254      0.1354
     41  NH2      -24.9650   -1.7130   23.2740 N.pl3 254  ARG254      0.1354
     42  N        -24.9840    8.7190   24.8950 N.3   257  GLU257     -0.1245
     43  CA       -23.7970    8.7330   25.7160 C.3   257  GLU257      0.1567
     44  C        -22.7840    9.8230   25.3790 C.2   257  GLU257      0.2260
     45  O        -22.1470   10.3900   26.2610 O.2   257  GLU257     -0.2867
     46  CB       -23.1260    7.4040   25.6400 C.3   257  GLU257      0.0388
     47  CG       -22.0920    7.5350   26.7180 C.3   257  GLU257      0.1160
     48  CD       -20.7350    7.7610   26.1820 C.2   257  GLU257      0.3649
     49  OE1      -20.5120    7.6760   24.9520 O.co2 257  GLU257     -0.2457
     50  OE2      -19.8840    8.0050   27.0390 O.co2 257  GLU257     -0.2457
     51  N        -23.7140   12.5520   27.3210 N.3   380  PHE380     -0.1241
     52  CA       -25.1570   12.7090   27.5020 C.3   380  PHE380      0.1605
     53  C        -25.5930   14.1370   27.2350 C.2   380  PHE380      0.2264
     54  O        -26.4830   14.6780   27.8920 O.2   380  PHE380     -0.2867
     55  CB       -25.5600   12.2570   28.9040 C.3   380  PHE380      0.0534
     56  CG       -25.3770   10.7880   29.1080 C.ar  380  PHE380     -0.0203
     57  CD1      -26.3150    9.8860   28.6200 C.ar  380  PHE380     -0.0042
     58  CD2      -24.1950   10.2980   29.6480 C.ar  380  PHE380     -0.0042
     59  CE1      -26.0740    8.5180   28.6540 C.ar  380  PHE380     -0.0003
     60  CE2      -23.9440    8.9360   29.6890 C.ar  380  PHE380     -0.0003
     61  CZ       -24.8850    8.0440   29.1850 C.ar  380  PHE380     -0.0000
     62  N        -15.2790   11.2430   33.0910 N.3   420  LEU420     -0.1231
     63  CA       -16.4470   10.5350   32.5740 C.3   420  LEU420      0.1693
     64  C        -17.6800   10.8470   33.4210 C.2   420  LEU420      0.2592
     65  O        -17.6010   10.9250   34.6480 O.2   420  LEU420     -0.2718
     66  CB       -16.2060    9.0240   32.5870 C.3   420  LEU420      0.0284
     67  CG       -17.3470    8.1170   32.1190 C.3   420  LEU420      0.0019
     68  CD1      -17.5340    8.2510   30.6220 C.3   420  LEU420      0.0001
     69  CD2      -17.0300    6.6750   32.4710 C.3   420  LEU420      0.0001
     70  N        -18.8200   11.0220   32.7610 N.am  421  PHE421     -0.1962
     71  CA       -20.0740   11.3000   33.4550 C.3   421  PHE421      0.1771
     72  C        -20.9080   10.0320   33.3500 C.2   421  PHE421      0.2619
     73  O        -21.0850    9.4830   32.2620 O.2   421  PHE421     -0.2715
     74  CB       -20.8120   12.4600   32.7870 C.3   421  PHE421      0.0574
     75  CG       -22.1040   12.8270   33.4600 C.ar  421  PHE421     -0.0200
     76  CD1      -22.1410   13.8100   34.4460 C.ar  421  PHE421     -0.0042
     77  CD2      -23.2780   12.1610   33.1330 C.ar  421  PHE421     -0.0042
     78  CE1      -23.3340   14.1230   35.1030 C.ar  421  PHE421     -0.0003
     79  CE2      -24.4780   12.4600   33.7800 C.ar  421  PHE421     -0.0003
     80  CZ       -24.5040   13.4440   34.7680 C.ar  421  PHE421     -0.0000
     81  N        -21.4060    9.5520   34.4860 N.am  422  GLN422     -0.1964
     82  CA       -22.2240    8.3320   34.4980 C.3   422  GLN422      0.1718
     83  C        -23.6920    8.7360   34.6580 C.2   422  GLN422      0.2458
     84  O        -24.0250    9.5480   35.5150 O.2   422  GLN422     -0.2730
     85  CB       -21.7610    7.4290   35.6370 C.3   422  GLN422      0.0407
     86  CG       -20.4160    6.7550   35.3610 C.3   422  GLN422      0.0908
     87  CD       -20.5620    5.4660   34.5700 C.2   422  GLN422      0.2608
     88  OE1      -20.4190    4.3720   35.1170 O.2   422  GLN422     -0.2717
     89  NE2      -20.8670    5.5890   33.2800 N.am  422  GLN422     -0.0878
     90  N        -24.5940    8.1400   33.8580 N.am  423  PRO423     -0.2727
     91  CA       -26.0340    8.4450   33.8870 C.3   423  PRO423      0.1402
     92  C        -26.8660    8.3880   35.1900 C.2   423  PRO423      0.2269
     93  O        -28.0880    8.2640   35.1190 O.2   423  PRO423     -0.2865
     94  CB       -26.6040    7.5150   32.8210 C.3   423  PRO423      0.0296
     95  CG       -25.6840    6.3270   32.8790 C.3   423  PRO423      0.0237
     96  CD       -24.3240    6.9590   33.0130 C.3   423  PRO423      0.0939
@<TRIPOS>BOND
     1     1     2    1
     2     3     2    1
     3     3     4    2
     4     2     5    1
     5     5     6    1
     6    12    13    2
     7    12    11    1
     8    10    11    1
     9    11    14    1
    10    14    15    1
    11     6     7    1
    12     8     7    2
    13    15    16   ar
    14    15    17   ar
    15     7     9   am
    16    16    18   ar
    17    17    19   ar
    18    18    19   ar
    19    41    39    1
    20    33    34    2
    21    33    32    1
    22    39    38    2
    23    39    40    1
    24    38    37    1
    25    42    43    1
    26    31    32    1
    27    49    48   ar
    28    20    21    1
    29    35    32    1
    30    35    36    1
    31    44    43    1
    32    44    45    2
    33    46    43    1
    34    46    47    1
    35    24    21    1
    36    24    25    1
    37    37    36    1
    38    21    22    1
    39    48    47    1
    40    48    50   ar
    41    25    27   ar
    42    25    26   ar
    43    27    29   ar
    44    53    52    1
    45    53    54    2
    46    22    23    2
    47    51    52    1
    48    52    55    1
    49    26    28   ar
    50    29    30   ar
    51    28    30   ar
    52    57    59   ar
    53    57    56   ar
    54    59    61   ar
    55    55    56    1
    56    56    58   ar
    57    61    60   ar
    58    58    60   ar
    59    68    67    1
    60    67    69    1
    61    67    66    1
    62    73    72    2
    63    63    66    1
    64    63    62    1
    65    63    64    1
    66    70    64   am
    67    70    71    1
    68    74    71    1
    69    74    75    1
    70    94    95    1
    71    94    91    1
    72    95    96    1
    73    96    90    1
    74    77    75   ar
    75    77    79   ar
    76    89    87   am
    77    72    71    1
    78    72    81   am
    79    64    65    2
    80    75    76   ar
    81    79    80   ar
    82    90    91    1
    83    90    83   am
    84    91    92    1
    85    76    78   ar
    86    81    82    1
    87    82    83    1
    88    82    85    1
    89    87    88    2
    90    87    86    1
    91    83    84    2
    92    80    78   ar
    93    93    92    2
    94    86    85    1
