@<TRIPOS>MOLECULE
tmp/3s4jA00.pdb
 193 179 0 0 0
SMALL
GASTEIGER

@<TRIPOS>ATOM
      1  N          2.7850   30.8880   -3.3980 N.3    51  ARG51      -0.1245
      2  CA         2.9020   29.4820   -3.7670 C.3    51  ARG51       0.1563
      3  C          2.1660   28.6170   -2.7550 C.2    51  ARG51       0.2260
      4  O          1.4110   27.7250   -3.1330 O.2    51  ARG51      -0.2867
      5  CB         4.3650   29.0480   -3.8950 C.3    51  ARG51       0.0307
      6  CG         5.0790   29.7110   -5.0700 C.3    51  ARG51       0.0489
      7  CD         6.5760   29.5040   -4.9650 C.3    51  ARG51       0.2205
      8  NE         7.2800   30.0920   -6.0950 N.pl3  51  ARG51      -0.0865
      9  CZ         7.6100   31.3730   -6.1830 C.cat  51  ARG51       0.5346
     10  NH1        7.2870   32.2100   -5.2040 N.pl3  51  ARG51       0.1354
     11  NH2        8.2600   31.8090   -7.2550 N.pl3  51  ARG51       0.1354
     12  N         15.6120   27.0240   -1.5670 N.3    90  PHE90      -0.1227
     13  CA        16.2280   27.4350   -2.8250 C.3    90  PHE90       0.1736
     14  C         16.6970   28.8910   -2.7840 C.2    90  PHE90       0.2595
     15  O         17.7310   29.2110   -3.3680 O.2    90  PHE90      -0.2718
     16  CB        15.3110   27.2100   -4.0330 C.3    90  PHE90       0.0547
     17  CG        15.2580   25.7700   -4.4680 C.ar   90  PHE90      -0.0202
     18  CD1       14.0900   25.0410   -4.4020 C.ar   90  PHE90      -0.0042
     19  CD2       16.4160   25.1470   -4.9330 C.ar   90  PHE90      -0.0042
     20  CE1       14.0600   23.7100   -4.7950 C.ar   90  PHE90      -0.0003
     21  CE2       16.3910   23.8180   -5.3230 C.ar   90  PHE90      -0.0003
     22  CZ        15.2070   23.1000   -5.2480 C.ar   90  PHE90      -0.0000
     23  N         15.9350   29.7580   -2.1200 N.am   91  LEU91      -0.1980
     24  CA        16.3180   31.1740   -2.0760 C.3    91  LEU91       0.1596
     25  C         17.5340   31.4310   -1.2090 C.2    91  LEU91       0.2287
     26  O         18.3520   32.2880   -1.5340 O.2    91  LEU91      -0.2864
     27  CB        15.1540   32.1030   -1.6860 C.3    91  LEU91       0.0297
     28  CG        13.9030   32.0120   -2.5590 C.3    91  LEU91       0.0022
     29  CD1       12.9440   33.1160   -2.1140 C.3    91  LEU91       0.0001
     30  CD2       14.2730   32.1580   -4.0400 C.3    91  LEU91       0.0001
     31  N         20.3820   30.3260   -3.3820 N.3    94  ASP94      -0.1225
     32  CA        20.4790   31.1440   -4.5880 C.3    94  ASP94       0.1805
     33  C         21.1210   32.5060   -4.2740 C.2    94  ASP94       0.2597
     34  O         21.9460   33.0110   -5.0240 O.2    94  ASP94      -0.2718
     35  CB        19.0810   31.3240   -5.2050 C.3    94  ASP94       0.1424
     36  CG        19.0850   32.2350   -6.4160 C.2    94  ASP94       0.3668
     37  OD1       19.3780   31.7550   -7.5440 O.co2  94  ASP94      -0.2456
     38  OD2       18.7970   33.4480   -6.2470 O.co2  94  ASP94      -0.2456
     39  N         20.7520   33.1000   -3.1470 N.am   95  ASP95      -0.1974
     40  CA        21.3200   34.3970   -2.7810 C.3    95  ASP95       0.1709
     41  C         22.8370   34.3200   -2.5630 C.2    95  ASP95       0.2293
     42  O         23.5600   35.2200   -2.9760 O.2    95  ASP95      -0.2864
     43  CB        20.6410   34.9630   -1.5380 C.3    95  ASP95       0.1436
     44  CG        19.2710   35.5530   -1.8390 C.2    95  ASP95       0.3671
     45  OD1       18.9880   35.8600   -3.0150 O.co2  95  ASP95      -0.2456
     46  OD2       18.4750   35.7060   -0.8950 O.co2  95  ASP95      -0.2456
     47  N         24.2800   33.8100   -6.1650 N.3    98  ASP98      -0.1239
     48  CA        24.1230   34.9920   -7.0150 C.3    98  ASP98       0.1674
     49  C         24.7570   36.2460   -6.4010 C.2    98  ASP98       0.2266
     50  O         24.6300   37.3390   -6.9420 O.2    98  ASP98      -0.2867
     51  CB        22.6440   35.2520   -7.3370 C.3    98  ASP98       0.1410
     52  CG        22.0330   34.1600   -8.2280 C.2    98  ASP98       0.3668
     53  OD1       22.7980   33.3420   -8.7860 O.co2  98  ASP98      -0.2456
     54  OD2       20.7890   34.1030   -8.3800 O.co2  98  ASP98      -0.2456
     55  N         23.8300   37.9630   -3.8390 N.3   100  SER100     -0.1217
     56  CA        22.8100   38.9650   -3.6310 C.3   100  SER100      0.1889
     57  C         22.9960   39.6940   -2.2970 C.2   100  SER100      0.2288
     58  O         23.7320   39.2320   -1.4090 O.2   100  SER100     -0.2866
     59  CB        21.4220   38.3350   -3.7840 C.3   100  SER100      0.2089
     60  OG        21.2080   38.0500   -5.1610 O.3   100  SER100     -0.2183
     61  N         16.8860   40.4860    0.4110 N.3   103  ARG103     -0.1245
     62  CA        15.7600   39.6920   -0.0370 C.3   103  ARG103      0.1563
     63  C         14.5870   40.0030    0.8910 C.2   103  ARG103      0.2260
     64  O         14.7420   40.0180    2.1170 O.2   103  ARG103     -0.2867
     65  CB        16.1790   38.2150    0.0450 C.3   103  ARG103      0.0307
     66  CG        15.0650   37.2120    0.2000 C.3   103  ARG103      0.0489
     67  CD        14.6190   36.6190   -1.1130 C.3   103  ARG103      0.2205
     68  NE        15.6760   36.0570   -1.9500 N.pl3 103  ARG103     -0.0865
     69  CZ        15.5190   35.8800   -3.2570 C.cat 103  ARG103      0.5346
     70  NH1       14.3650   36.2310   -3.8190 N.pl3 103  ARG103      0.1354
     71  NH2       16.4860   35.3800   -4.0120 N.pl3 103  ARG103      0.1354
     72  N         14.1950   21.6990  -10.2430 N.3   158  THR158     -0.1218
     73  CA        14.6480   23.0580   -9.9430 C.3   158  THR158      0.1862
     74  C         16.1720   23.1160   -9.9360 C.2   158  THR158      0.2287
     75  O         16.7680   24.0660  -10.4410 O.2   158  THR158     -0.2866
     76  CB        14.0950   23.5420   -8.5800 C.3   158  THR158      0.1770
     77  OG1       12.6610   23.4690   -8.6090 O.3   158  THR158     -0.2211
     78  CG2       14.5310   25.0010   -8.3160 C.3   158  THR158      0.0375
     79  N         18.6890   25.3620  -12.0060 N.3   162  GLN162     -0.1245
     80  CA        19.7470   26.1850  -11.4110 C.3   162  GLN162      0.1566
     81  C         21.1150   25.8570  -12.0310 C.2   162  GLN162      0.2260
     82  O         21.9630   26.7320  -12.2230 O.2   162  GLN162     -0.2867
     83  CB        19.8170   25.9500   -9.8880 C.3   162  GLN162      0.0367
     84  CG        18.6470   26.5350   -9.0800 C.3   162  GLN162      0.0905
     85  CD        18.6340   28.0580   -9.1100 C.2   162  GLN162      0.2608
     86  OE1       18.4170   28.6620  -10.1600 O.2   162  GLN162     -0.2717
     87  NE2       18.8700   28.6820   -7.9570 N.am  162  GLN162     -0.0878
     88  N         21.2230   27.6100  -15.3490 N.3   165  ASP165     -0.1239
     89  CA        21.3780   29.0330  -15.0270 C.3   165  ASP165      0.1674
     90  C         22.8660   29.3480  -14.7910 C.2   165  ASP165      0.2266
     91  O         23.4100   30.2690  -15.3990 O.2   165  ASP165     -0.2867
     92  CB        20.4810   29.3720  -13.8380 C.3   165  ASP165      0.1410
     93  CG        20.6770   30.7840  -13.2950 C.2   165  ASP165      0.3668
     94  OD1       21.6870   31.0290  -12.6050 O.co2 165  ASP165     -0.2456
     95  OD2       19.7950   31.6380  -13.5300 O.co2 165  ASP165     -0.2456
     96  N         14.1270   25.8660  -13.7240 N.3   191  LYS191     -0.1231
     97  CA        14.3750   26.5680  -12.4660 C.3   191  LYS191      0.1693
     98  C         13.1480   27.1860  -11.8010 C.2   191  LYS191      0.2592
     99  O         13.1280   27.3720  -10.5860 O.2   191  LYS191     -0.2718
    100  CB        15.5480   27.5620  -12.5710 C.3   191  LYS191      0.0285
    101  CG        15.2170   28.9010  -13.2350 C.3   191  LYS191      0.0035
    102  CD        16.2430   29.9680  -12.8200 C.3   191  LYS191      0.0206
    103  CE        15.8370   31.3070  -13.4320 C.3   191  LYS191      0.1093
    104  NZ        16.8670   32.3730  -13.2120 N.3   191  LYS191     -0.1314
    105  N         12.1150   27.4960  -12.5800 N.am  192  THR192     -0.1953
    106  CA        10.9870   28.2500  -12.0330 C.3   192  THR192      0.1897
    107  C          9.6480   27.5520  -12.2090 C.2   192  THR192      0.2313
    108  O          8.8720   27.4470  -11.2650 O.2   192  THR192     -0.2863
    109  CB        10.8820   29.6400  -12.6960 C.3   192  THR192      0.1794
    110  OG1       12.1000   30.3540  -12.4610 O.3   192  THR192     -0.2208
    111  CG2        9.7100   30.4180  -12.0830 C.3   192  THR192      0.0378
    112  N          8.4440   24.1940   -9.9080 N.3   195  TYR195     -0.1241
    113  CA         8.1990   24.3140   -8.4770 C.3   195  TYR195      0.1605
    114  C          7.2240   25.4390   -8.1250 C.2   195  TYR195      0.2264
    115  O          6.5510   25.3540   -7.1040 O.2   195  TYR195     -0.2867
    116  CB         9.4960   24.4690   -7.6560 C.3   195  TYR195      0.0534
    117  CG         9.9320   25.8890   -7.3320 C.ar  195  TYR195     -0.0201
    118  CD1        9.5970   26.4940   -6.1240 C.ar  195  TYR195     -0.0009
    119  CD2       10.7090   26.6130   -8.2320 C.ar  195  TYR195     -0.0009
    120  CE1       10.0070   27.7970   -5.8250 C.ar  195  TYR195      0.0417
    121  CE2       11.1190   27.9160   -7.9450 C.ar  195  TYR195      0.0417
    122  CZ        10.7710   28.4940   -6.7440 C.ar  195  TYR195      0.1957
    123  OH        11.1820   29.7860   -6.4810 O.3   195  TYR195     -0.2866
    124  N          6.2950   34.1960  -15.5760 N.3   230  PHE230     -0.1227
    125  CA         6.6130   34.6940  -14.2410 C.3   230  PHE230      0.1736
    126  C          8.1130   34.9500  -14.1580 C.2   230  PHE230      0.2595
    127  O          8.5420   35.9200  -13.5290 O.2   230  PHE230     -0.2718
    128  CB         6.2160   33.6730  -13.1770 C.3   230  PHE230      0.0547
    129  CG         6.4750   34.1250  -11.7730 C.ar  230  PHE230     -0.0202
    130  CD1        5.5630   34.9340  -11.1130 C.ar  230  PHE230     -0.0042
    131  CD2        7.6280   33.7380  -11.1100 C.ar  230  PHE230     -0.0042
    132  CE1        5.7910   35.3410   -9.8120 C.ar  230  PHE230     -0.0003
    133  CE2        7.8690   34.1560   -9.8070 C.ar  230  PHE230     -0.0003
    134  CZ         6.9510   34.9500   -9.1560 C.ar  230  PHE230     -0.0000
    135  N          8.9060   34.0830  -14.7850 N.am  231  GLN231     -0.1979
    136  CA        10.3530   34.2840  -14.7320 C.3   231  GLN231      0.1601
    137  C         10.8030   35.4030  -15.6490 C.2   231  GLN231      0.2287
    138  O         11.8010   36.0770  -15.3800 O.2   231  GLN231     -0.2864
    139  CB        11.1430   33.0210  -15.0660 C.3   231  GLN231      0.0394
    140  CG        12.6440   33.1970  -14.8010 C.3   231  GLN231      0.0908
    141  CD        12.9330   33.5700  -13.3580 C.2   231  GLN231      0.2608
    142  OE1       12.4110   32.9550  -12.4310 O.2   231  GLN231     -0.2717
    143  NE2       13.7680   34.5850  -13.1600 N.am  231  GLN231     -0.0878
    144  N         10.1620   38.3420  -13.6240 N.3   234  ASP234     -0.1225
    145  CA        11.1640   38.4470  -12.5810 C.3   234  ASP234      0.1805
    146  C         12.4380   39.0720  -13.1370 C.2   234  ASP234      0.2597
    147  O         13.0700   39.8780  -12.4730 O.2   234  ASP234     -0.2718
    148  CB        11.4550   37.0780  -11.9510 C.3   234  ASP234      0.1424
    149  CG        12.5270   37.1540  -10.8760 C.2   234  ASP234      0.3668
    150  OD1       12.2020   37.6380   -9.7730 O.co2 234  ASP234     -0.2456
    151  OD2       13.6810   36.7300  -11.1270 O.co2 234  ASP234     -0.2456
    152  N         12.8030   38.7070  -14.3610 N.am  235  ASP235     -0.1974
    153  CA        13.9950   39.2350  -14.9960 C.3   235  ASP235      0.1709
    154  C         13.8240   40.7110  -15.3230 C.2   235  ASP235      0.2293
    155  O         14.7570   41.5110  -15.1910 O.2   235  ASP235     -0.2864
    156  CB        14.2780   38.4770  -16.2910 C.3   235  ASP235      0.1436
    157  CG        14.7080   37.0280  -16.0480 C.2   235  ASP235      0.3671
    158  OD1       14.9220   36.6320  -14.8810 O.co2 235  ASP235     -0.2456
    159  OD2       14.8340   36.2850  -17.0440 O.co2 235  ASP235     -0.2456
    160  N         14.0840   42.7070  -12.0920 N.3   238  ASP238     -0.1239
    161  CA        15.4630   42.7390  -11.5970 C.3   238  ASP238      0.1674
    162  C         16.1460   44.0660  -11.8900 C.2   238  ASP238      0.2266
    163  O         16.9680   44.5340  -11.0950 O.2   238  ASP238     -0.2867
    164  CB        16.2970   41.6150  -12.2210 C.3   238  ASP238      0.1410
    165  CG        17.5440   41.2910  -11.4050 C.2   238  ASP238      0.3668
    166  OD1       17.4020   40.6740  -10.3300 O.co2 238  ASP238     -0.2456
    167  OD2       18.6550   41.6730  -11.8320 O.co2 238  ASP238     -0.2456
    168  N         14.1580   43.4770   -3.0270 N.3   248  LYS248     -0.1245
    169  CA        15.5030   42.9620   -3.2800 C.3   248  LYS248      0.1561
    170  C         16.2090   43.7690   -4.3530 C.2   248  LYS248      0.2260
    171  O         15.5730   44.4200   -5.1830 O.2   248  LYS248     -0.2867
    172  CB        15.4440   41.4890   -3.6840 C.3   248  LYS248      0.0271
    173  CG        14.8790   41.2410   -5.0690 C.3   248  LYS248      0.0035
    174  CD        14.4180   39.7910   -5.1890 C.3   248  LYS248      0.0206
    175  CE        14.3960   39.3740   -6.6450 C.3   248  LYS248      0.1093
    176  NZ        13.3190   38.3910   -6.9310 N.3   248  LYS248     -0.1314
    177  N         21.4530   40.6630  -11.9520 N.3   252  ASP252     -0.1239
    178  CA        21.5490   39.8830  -13.1870 C.3   252  ASP252      0.1674
    179  C         22.6440   40.3770  -14.1230 C.2   252  ASP252      0.2266
    180  O         23.3690   39.5680  -14.6920 O.2   252  ASP252     -0.2867
    181  CB        20.2310   39.8600  -13.9550 C.3   252  ASP252      0.1410
    182  CG        19.1740   38.9990  -13.2840 C.2   252  ASP252      0.3668
    183  OD1       18.0060   39.0920  -13.7120 O.co2 252  ASP252     -0.2456
    184  OD2       19.5060   38.2400  -12.3440 O.co2 252  ASP252     -0.2456
    185  N         24.0680   36.9980  -16.2130 N.3   257  LYS257     -0.1245
    186  CA        22.9500   36.0590  -16.3850 C.3   257  LYS257      0.1561
    187  C         22.2860   36.0830  -17.7560 C.2   257  LYS257      0.2260
    188  O         22.1440   37.1390  -18.3710 O.2   257  LYS257     -0.2867
    189  CB        21.8520   36.3070  -15.3540 C.3   257  LYS257      0.0271
    190  CG        22.3190   36.1170  -13.9250 C.3   257  LYS257      0.0035
    191  CD        22.6910   34.6740  -13.6310 C.3   257  LYS257      0.0206
    192  CE        23.1940   34.5860  -12.1880 C.3   257  LYS257      0.1093
    193  NZ        23.2490   33.1910  -11.6750 N.3   257  LYS257     -0.1314
@<TRIPOS>BOND
     1   188   187    2
     2   187   186    1
     3   159   157   ar
     4   186   185    1
     5   186   189    1
     6   156   157    1
     7   156   153    1
     8   157   158   ar
     9   137   138    2
    10   137   136    1
    11   124   125    1
    12    91    90    2
    13   189   190    1
    14    88    89    1
    15   154   155    2
    16   154   153    1
    17   139   140    1
    18   139   136    1
    19    89    90    1
    20    89    92    1
    21   153   152    1
    22   140   141    1
    23   135   136    1
    24   135   126   am
    25   180   179    2
    26   152   146   am
    27   125   126    1
    28   125   128    1
    29   126   127    2
    30   179   178    1
    31   181   182    1
    32   181   178    1
    33   190   191    1
    34    92    93    1
    35    96    97    1
    36   183   182   ar
    37   191   192    1
    38   144   145    1
    39    95    93   ar
    40   103   104    1
    41   103   102    1
    42   141   143   am
    43   141   142    2
    44    93    94   ar
    45   182   184   ar
    46   101   102    1
    47   101   100    1
    48   178   177    1
    49   128   129    1
    50   146   145    1
    51   146   147    2
    52   109   110    1
    53   109   111    1
    54   109   106    1
    55   145   148    1
    56   105   106    1
    57   105    98   am
    58   100    97    1
    59    97    98    1
    60    82    81    2
    61   164   161    1
    62   164   165    1
    63   107   106    1
    64   107   108    2
    65   192   193    1
    66   160   161    1
    67    81    80    1
    68    79    80    1
    69   148   149    1
    70   162   161    1
    71   162   163    2
    72   167   165   ar
    73    98    99    2
    74   129   130   ar
    75   129   131   ar
    76    80    83    1
    77   165   166   ar
    78   151   149   ar
    79   130   132   ar
    80   131   133   ar
    81   149   150   ar
    82    75    74    2
    83    72    73    1
    84    86    85    2
    85    73    74    1
    86    73    76    1
    87   112   113    1
    88    83    84    1
    89   132   134   ar
    90   133   134   ar
    91    85    84    1
    92    85    87   am
    93    53    52   ar
    94    77    76    1
    95    76    78    1
    96   113   114    1
    97   113   116    1
    98    54    52   ar
    99   119   121   ar
   100   119   117   ar
   101    52    51    1
   102   114   115    2
   103   121   122   ar
   104   116   117    1
   105    37    36   ar
   106    51    48    1
   107   117   118   ar
   108    11     9    1
   109    48    49    1
   110    48    47    1
   111    50    49    2
   112   176   175    1
   113   122   123    1
   114   122   120   ar
   115   175   174    1
   116    36    38   ar
   117    36    35    1
   118     9     8    2
   119     9    10    1
   120   118   120   ar
   121     8     7    1
   122    21    22   ar
   123    21    19   ar
   124    22    20   ar
   125    35    32    1
   126   174   173    1
   127   171   170    2
   128    60    59    1
   129     6     7    1
   130     6     5    1
   131   173   172    1
   132    34    33    2
   133    19    17   ar
   134    20    18   ar
   135    32    33    1
   136    32    31    1
   137    17    18   ar
   138    17    16    1
   139   170   169    1
   140    33    39   am
   141    30    28    1
   142    16    13    1
   143    71    69    1
   144     5     2    1
   145    55    56    1
   146    70    69    1
   147    59    56    1
   148     2     1    1
   149     2     3    1
   150   172   169    1
   151    56    57    1
   152    15    14    2
   153   169   168    1
   154    69    68    2
   155    39    40    1
   156     4     3    2
   157    45    44   ar
   158    42    41    2
   159    13    14    1
   160    13    12    1
   161    14    23   am
   162    40    41    1
   163    40    43    1
   164    28    29    1
   165    28    27    1
   166    57    58    2
   167    23    24    1
   168    24    27    1
   169    24    25    1
   170    68    67    1
   171    44    43    1
   172    44    46   ar
   173    26    25    2
   174    67    66    1
   175    62    65    1
   176    62    61    1
   177    62    63    1
   178    65    66    1
   179    63    64    2
