@<TRIPOS>MOLECULE
tmp/3s4oA00.pdb
 101 101 0 0 0
SMALL
GASTEIGER

@<TRIPOS>ATOM
      1  N         20.4230   -5.5540  -20.5570 N.3    19  HIS19      -0.1241
      2  CA        19.3490   -4.9520  -19.7830 C.3    19  HIS19       0.1621
      3  C         19.1110   -5.8740  -18.5920 C.2    19  HIS19       0.2264
      4  O         18.7550   -7.0300  -18.7770 O.2    19  HIS19      -0.2867
      5  CB        18.0400   -4.8480  -20.5790 C.3    19  HIS19       0.0745
      6  CG        18.0880   -3.9310  -21.7660 C.ar   19  HIS19       0.0817
      7  ND1       18.1450   -2.5570  -21.6570 N.ar   19  HIS19      -0.2268
      8  CD2       18.0050   -4.1940  -23.0930 C.ar   19  HIS19       0.1154
      9  CE1       18.1170   -2.0170  -22.8680 C.ar   19  HIS19       0.1986
     10  NE2       18.0370   -2.9900  -23.7570 N.ar   19  HIS19      -0.2212
     11  N          8.1200  -12.5530  -21.0620 N.3    39  GLN39      -0.1231
     12  CA         8.1720  -12.6620  -22.5230 C.3    39  GLN39       0.1698
     13  C          7.9440  -11.2980  -23.1840 C.2    39  GLN39       0.2592
     14  O          8.6030  -10.9550  -24.1570 O.2    39  GLN39      -0.2718
     15  CB         7.1100  -13.6320  -23.0390 C.3    39  GLN39       0.0381
     16  CG         7.4270  -15.1080  -22.8540 C.3    39  GLN39       0.0905
     17  CD         6.2960  -15.9820  -23.3740 C.2    39  GLN39       0.2608
     18  OE1        5.1460  -15.5500  -23.4560 O.2    39  GLN39      -0.2717
     19  NE2        6.6230  -17.2110  -23.7490 N.am   39  GLN39      -0.0878
     20  N          7.0080  -10.5350  -22.6250 N.am   40  HIS40      -0.1962
     21  CA         6.6580   -9.1920  -23.1180 C.3    40  HIS40       0.1787
     22  C          7.7660   -8.1650  -22.9170 C.2    40  HIS40       0.2620
     23  O          7.7220   -7.0920  -23.5030 O.2    40  HIS40      -0.2715
     24  CB         5.3950   -8.6800  -22.4220 C.3    40  HIS40       0.0785
     25  CG         4.1280   -9.1960  -23.0330 C.ar   40  HIS40       0.0821
     26  ND1        2.9670   -8.4550  -23.0810 N.ar   40  HIS40      -0.2267
     27  CD2        3.8440  -10.3800  -23.6260 C.ar   40  HIS40       0.1154
     28  CE1        2.0210   -9.1630  -23.6730 C.ar   40  HIS40       0.1986
     29  NE2        2.5280  -10.3380  -24.0090 N.ar   40  HIS40      -0.2212
     30  N          8.7350   -8.4860  -22.0650 N.am   41  ARG41      -0.1963
     31  CA         9.9100   -7.6280  -21.8420 C.3    41  ARG41       0.1729
     32  C         11.1680   -8.2570  -22.4440 C.2    41  ARG41       0.2616
     33  O         12.2920   -7.8500  -22.1340 O.2    41  ARG41      -0.2715
     34  CB        10.0970   -7.3740  -20.3470 C.3    41  ARG41       0.0348
     35  CG         9.1150   -6.3830  -19.8050 C.3    41  ARG41       0.0492
     36  CD         9.1110   -6.3980  -18.3000 C.3    41  ARG41       0.2205
     37  NE         8.0930   -5.5040  -17.7580 N.pl3  41  ARG41      -0.0865
     38  CZ         6.7830   -5.7400  -17.8000 C.cat  41  ARG41       0.5346
     39  NH1        6.3030   -6.8620  -18.3420 N.pl3  41  ARG41       0.1354
     40  NH2        5.9430   -4.8440  -17.2940 N.pl3  41  ARG41       0.1354
     41  N         10.9650   -9.2680  -23.2840 N.am   42  GLY42      -0.1955
     42  CA        12.0380   -9.8860  -24.0230 C.3    42  GLY42       0.1869
     43  C         13.0550  -10.6570  -23.2150 C.2    42  GLY42       0.2309
     44  O         14.1790  -10.8590  -23.6740 O.2    42  GLY42      -0.2863
     45  N         15.4700  -13.1890  -21.8020 N.3    44  ARG44      -0.1245
     46  CA        16.1870  -14.3190  -22.3790 C.3    44  ARG44       0.1563
     47  C         16.5690  -15.3190  -21.2790 C.2    44  ARG44       0.2260
     48  O         16.4650  -16.5340  -21.4500 O.2    44  ARG44      -0.2867
     49  CB        17.4400  -13.7850  -23.1130 C.3    44  ARG44       0.0307
     50  CG        18.3270  -14.8340  -23.7850 C.3    44  ARG44       0.0489
     51  CD        17.6750  -15.4720  -25.0150 C.3    44  ARG44       0.2205
     52  NE        16.7800  -16.5740  -24.6610 N.pl3  44  ARG44      -0.0865
     53  CZ        17.1690  -17.8190  -24.3670 C.cat  44  ARG44       0.5346
     54  NH1       18.4540  -18.1720  -24.4020 N.pl3  44  ARG44       0.1354
     55  NH2       16.2550  -18.7330  -24.0490 N.pl3  44  ARG44       0.1354
     56  N         27.8360  -13.7250  -27.9430 N.3    95  ARG95      -0.1245
     57  CA        26.6910  -13.9410  -28.8400 C.3    95  ARG95       0.1563
     58  C         26.4210  -12.6880  -29.6810 C.2    95  ARG95       0.2260
     59  O         26.1570  -12.7830  -30.8810 O.2    95  ARG95      -0.2867
     60  CB        25.4280  -14.3290  -28.0610 C.3    95  ARG95       0.0307
     61  CG        24.3000  -14.8610  -28.9410 C.3    95  ARG95       0.0489
     62  CD        23.1570  -15.4850  -28.1360 C.3    95  ARG95       0.2205
     63  NE        22.4230  -14.5050  -27.3350 N.pl3  95  ARG95      -0.0865
     64  CZ        21.1850  -14.0620  -27.5660 C.cat  95  ARG95       0.5346
     65  NH1       20.4720  -14.4940  -28.5910 N.pl3  95  ARG95       0.1354
     66  NH2       20.6460  -13.1670  -26.7340 N.pl3  95  ARG95       0.1354
     67  N         21.6570   -9.6500  -33.2220 N.3   102  VAL102     -0.1231
     68  CA        21.2010   -9.8560  -31.8530 C.3   102  VAL102      0.1678
     69  C         21.2140   -8.5300  -31.0670 C.2   102  VAL102      0.2434
     70  O         22.2750   -7.9270  -30.8710 O.2   102  VAL102     -0.2733
     71  CB        22.0870  -10.8870  -31.1160 C.3   102  VAL102      0.0265
     72  CG1       21.6240  -11.0560  -29.6730 C.3   102  VAL102      0.0020
     73  CG2       22.0660  -12.2310  -31.8220 C.3   102  VAL102      0.0020
     74  N         20.0500   -8.0680  -30.6080 N.am  103  PRO103     -0.2718
     75  CA        20.0140   -6.8590  -29.7850 C.3   103  PRO103      0.1520
     76  C         20.3900   -7.1940  -28.3480 C.2   103  PRO103      0.2440
     77  O         20.4820   -8.3750  -28.0150 O.2   103  PRO103     -0.2731
     78  CB        18.5590   -6.4190  -29.8830 C.3   103  PRO103      0.0310
     79  CG        17.8030   -7.6880  -30.0300 C.3   103  PRO103      0.0237
     80  CD        18.7130   -8.6760  -30.7200 C.3   103  PRO103      0.0939
     81  N         20.6110   -6.1780  -27.5080 N.am  104  PRO104     -0.2717
     82  CA        21.0000   -6.4240  -26.1170 C.3   104  PRO104      0.1521
     83  C         19.9780   -7.2770  -25.3640 C.2   104  PRO104      0.2440
     84  O         18.8040   -6.9390  -25.3200 O.2   104  PRO104     -0.2731
     85  CB        21.0940   -5.0150  -25.5220 C.3   104  PRO104      0.0310
     86  CG        21.4230   -4.1330  -26.7020 C.3   104  PRO104      0.0237
     87  CD        20.7000   -4.7410  -27.8610 C.3   104  PRO104      0.0939
     88  N         20.4130   -8.4010  -24.8160 N.am  105  PRO105     -0.2716
     89  CA        19.5290   -9.2440  -24.0260 C.3   105  PRO105      0.1536
     90  C         19.0560   -8.6100  -22.7300 C.2   105  PRO105      0.2599
     91  O         19.7920   -7.8540  -22.0890 O.2   105  PRO105     -0.2715
     92  CB        20.3890  -10.4570  -23.6800 C.3   105  PRO105      0.0310
     93  CG        21.7620  -10.0640  -23.9190 C.3   105  PRO105      0.0237
     94  CD        21.8210   -8.7930  -24.6820 C.3   105  PRO105      0.0939
     95  N         17.8150   -8.9270  -22.3780 N.am  106  THR106     -0.1951
     96  CA        17.2770   -8.6510  -21.0710 C.3   106  THR106      0.1897
     97  C         17.4710   -9.9060  -20.2320 C.2   106  THR106      0.2313
     98  O         17.1780  -11.0280  -20.6660 O.2   106  THR106     -0.2863
     99  CB        15.7980   -8.2190  -21.1280 C.3   106  THR106      0.1794
    100  OG1       15.6850   -7.0320  -21.9200 O.3   106  THR106     -0.2208
    101  CG2       15.2610   -7.9180  -19.7300 C.3   106  THR106      0.0378
@<TRIPOS>BOND
     1    67    68    1
     2    68    71    1
     3    68    69    1
     4    73    71    1
     5    71    72    1
     6    69    70    2
     7    69    74   am
     8    59    58    2
     9    80    74    1
    10    80    79    1
    11    74    75    1
    12    79    78    1
    13    78    75    1
    14    75    76    1
    15    58    57    1
    16    61    62    1
    17    61    60    1
    18    57    60    1
    19    57    56    1
    20    65    64    1
    21    76    77    2
    22    76    81   am
    23    62    63    1
    24    87    81    1
    25    87    86    1
    26    64    63    2
    27    64    66    1
    28    81    82    1
    29    86    85    1
    30    82    85    1
    31    82    83    1
    32    83    84    2
    33    83    88   am
    34    51    52    1
    35    51    50    1
    36    88    94    1
    37    88    89    1
    38    94    93    1
    39    52    53    2
    40    54    53    1
    41    53    55    1
    42    14    13    2
    43    89    92    1
    44    89    90    1
    45    42    41    1
    46    42    43    1
    47    29    28   ar
    48    29    27   ar
    49    93    92    1
    50    50    49    1
    51    10     8   ar
    52    10     9   ar
    53    19    17   am
    54    44    43    2
    55    28    26   ar
    56    27    25   ar
    57    23    22    2
    58    18    17    2
    59    17    16    1
    60    41    32   am
    61    13    20   am
    62    13    12    1
    63    21    22    1
    64    21    20    1
    65    21    24    1
    66    49    46    1
    67     8     6   ar
    68    26    25   ar
    69    15    16    1
    70    15    12    1
    71    25    24    1
    72    22    30   am
    73     9     7   ar
    74    90    95   am
    75    90    91    2
    76    12    11    1
    77    32    33    2
    78    32    31    1
    79    46    45    1
    80    46    47    1
    81    95    96    1
    82    30    31    1
    83   100    99    1
    84    31    34    1
    85     6     7   ar
    86     6     5    1
    87    48    47    2
    88    99    96    1
    89    99   101    1
    90    96    97    1
    91    98    97    2
    92     5     2    1
    93     1     2    1
    94    34    35    1
    95    35    36    1
    96     2     3    1
    97     4     3    2
    98    39    38    1
    99    36    37    1
   100    38    37    2
   101    38    40    1
