@<TRIPOS>MOLECULE
tmp/3s4qA00.pdb
 173 161 0 0 0
SMALL
GASTEIGER

@<TRIPOS>ATOM
      1  N          5.5980   -3.5260   11.6050 N.3    27  VAL27      -0.1245
      2  CA         4.2990   -4.2010   11.7300 C.3    27  VAL27       0.1561
      3  C          3.2750   -3.3530   12.4870 C.2    27  VAL27       0.2260
      4  O          2.0710   -3.5360   12.3100 O.2    27  VAL27      -0.2867
      5  CB         4.3900   -5.6420   12.2940 C.3    27  VAL27       0.0252
      6  CG1        4.8480   -6.6260   11.2230 C.3    27  VAL27       0.0019
      7  CG2        5.2770   -5.7110   13.5340 C.3    27  VAL27       0.0019
      8  N          6.8890    0.2510   15.4440 N.3    30  VAL30      -0.1245
      9  CA         7.0330   -1.0900   16.0000 C.3    30  VAL30       0.1561
     10  C          7.6570   -2.0020   14.9330 C.2    30  VAL30       0.2260
     11  O          7.1280   -2.1010   13.8230 O.2    30  VAL30      -0.2867
     12  CB         5.6630   -1.6600   16.5100 C.3    30  VAL30       0.0252
     13  CG1        5.8570   -2.9440   17.3250 C.3    30  VAL30       0.0019
     14  CG2        4.8890   -0.6260   17.3180 C.3    30  VAL30       0.0019
     15  N          7.9670   -8.5110   19.8300 N.3    43  ALA43      -0.1245
     16  CA         7.5710   -7.2320   19.2550 C.3    43  ALA43       0.1562
     17  C          8.5250   -6.1690   19.8160 C.2    43  ALA43       0.2260
     18  O          8.6830   -6.0850   21.0320 O.2    43  ALA43      -0.2867
     19  CB         6.1220   -6.9090   19.6110 C.3    43  ALA43       0.0290
     20  N          9.3440   -2.1860   20.0570 N.3    45  LYS45      -0.1245
     21  CA         8.8440   -0.8270   19.8580 C.3    45  LYS45       0.1561
     22  C          9.8810    0.2410   20.2660 C.2    45  LYS45       0.2260
     23  O         10.3820    0.2130   21.3940 O.2    45  LYS45      -0.2867
     24  CB         7.5350   -0.6110   20.6570 C.3    45  LYS45       0.0271
     25  CG         6.7590    0.6660   20.3080 C.3    45  LYS45       0.0035
     26  CD         5.5180    0.7810   21.1660 C.3    45  LYS45       0.0206
     27  CE         4.7640    2.0810   21.0430 C.3    45  LYS45       0.1093
     28  NZ         3.6660    2.1560   22.0610 N.3    45  LYS45      -0.1314
     29  N          3.3960    4.8520   30.1220 N.3    63  GLU63      -0.1245
     30  CA         3.4700    3.6280   29.3010 C.3    63  GLU63       0.1567
     31  C          4.3610    2.5760   29.9360 C.2    63  GLU63       0.2260
     32  O          3.8970    1.4680   30.1140 O.2    63  GLU63      -0.2867
     33  CB         3.9020    3.9160   27.8350 C.3    63  GLU63       0.0388
     34  CG         4.1260    2.6660   26.9890 C.3    63  GLU63       0.1160
     35  CD         3.9910    2.7790   25.4810 C.2    63  GLU63       0.3649
     36  OE1        4.2010    3.8840   24.9410 O.co2  63  GLU63      -0.2457
     37  OE2        3.6900    1.7520   24.8320 O.co2  63  GLU63      -0.2457
     38  N          2.7010    1.4200   33.3610 N.3    66  LEU66      -0.1231
     39  CA         1.5260    0.6110   33.0080 C.3    66  LEU66       0.1693
     40  C          1.9460   -0.8020   32.6290 C.2    66  LEU66       0.2591
     41  O          1.3200   -1.7560   33.0760 O.2    66  LEU66      -0.2718
     42  CB         0.7650    1.2450   31.8070 C.3    66  LEU66       0.0284
     43  CG        -0.1020    2.4810   32.0580 C.3    66  LEU66       0.0019
     44  CD1       -0.3900    3.2020   30.7600 C.3    66  LEU66       0.0001
     45  CD2       -1.4290    2.1180   32.7300 C.3    66  LEU66       0.0001
     46  N          3.0180   -0.9250   31.8210 N.am   67  LEU67      -0.1980
     47  CA         3.5850   -2.1850   31.3080 C.3    67  LEU67       0.1596
     48  C          4.3500   -3.0180   32.3410 C.2    67  LEU67       0.2287
     49  O          4.2340   -4.2440   32.3380 O.2    67  LEU67      -0.2864
     50  CB         4.4670   -1.9270   30.0700 C.3    67  LEU67       0.0297
     51  CG         3.7460   -1.7110   28.7390 C.3    67  LEU67       0.0022
     52  CD1        4.6890   -1.1710   27.7100 C.3    67  LEU67       0.0001
     53  CD2        3.1570   -3.0040   28.2080 C.3    67  LEU67       0.0001
     54  N         -1.3270   -7.1440   26.8990 N.3    76  ILE76      -0.1245
     55  CA         0.1130   -7.0900   26.5830 C.3    76  ILE76       0.1561
     56  C          1.0050   -6.9700   27.8540 C.2    76  ILE76       0.2260
     57  O          0.6080   -6.3240   28.8360 O.2    76  ILE76      -0.2867
     58  CB         0.4430   -6.0590   25.4580 C.3    76  ILE76       0.0252
     59  CG1        1.6770   -6.4500   24.6400 C.3    76  ILE76       0.0019
     60  CG2        0.5090   -4.6370   25.9510 C.3    76  ILE76       0.0019
     61  CD1        1.5050   -7.6580   23.6640 C.3    76  ILE76       0.0001
     62  N         10.7970   -0.9280   24.1240 N.3    96  LEU96      -0.1245
     63  CA         9.8740   -1.8050   24.8430 C.3    96  LEU96       0.1561
     64  C          9.6420   -3.0730   24.0270 C.2    96  LEU96       0.2260
     65  O          9.2790   -3.0160   22.8380 O.2    96  LEU96      -0.2867
     66  CB         8.5520   -1.0710   25.1790 C.3    96  LEU96       0.0270
     67  CG         8.6900    0.2760   25.9390 C.3    96  LEU96       0.0019
     68  CD1        7.5280    1.1780   25.6750 C.3    96  LEU96       0.0001
     69  CD2        8.8480    0.0700   27.4230 C.3    96  LEU96       0.0001
     70  N          7.7670   -6.8020   23.8120 N.3    98  THR98      -0.1203
     71  CA         6.6630   -7.6640   24.2450 C.3    98  THR98       0.1994
     72  C          6.7680   -8.9620   23.4340 C.2    98  THR98       0.2618
     73  O          7.8490   -9.3100   22.9460 O.2    98  THR98      -0.2717
     74  CB         5.3010   -6.9300   24.0920 C.3    98  THR98       0.1784
     75  OG1        4.9830   -6.7730   22.7030 O.3    98  THR98      -0.2211
     76  CG2        5.2560   -5.5610   24.8440 C.3    98  THR98       0.0376
     77  N          5.6510   -9.6750   23.3210 N.am   99  HIS99      -0.1961
     78  CA         5.4700  -10.8650   22.5190 C.3    99  HIS99       0.1787
     79  C          4.8510  -10.3250   21.2440 C.2    99  HIS99       0.2620
     80  O          4.1350   -9.3220   21.2870 O.2    99  HIS99      -0.2715
     81  CB         4.4440  -11.7790   23.1980 C.3    99  HIS99       0.0785
     82  CG         5.0300  -12.8590   24.0440 C.ar   99  HIS99       0.0821
     83  ND1        5.2670  -14.1230   23.5340 N.ar   99  HIS99      -0.2267
     84  CD2        5.3550  -12.8490   25.3560 C.ar   99  HIS99       0.1154
     85  CE1        5.7580  -14.8270   24.5380 C.ar   99  HIS99       0.1986
     86  NE2        5.8250  -14.1050   25.6560 N.ar   99  HIS99      -0.2212
     87  N          5.1090  -10.9680   20.1150 N.am  100  LEU100     -0.1963
     88  CA         4.4780  -10.5810   18.8600 C.3   100  LEU100      0.1728
     89  C          3.4390  -11.6550   18.5340 C.2   100  LEU100      0.2616
     90  O          3.7500  -12.8430   18.6100 O.2   100  LEU100     -0.2715
     91  CB         5.5290  -10.4430   17.7600 C.3   100  LEU100      0.0311
     92  CG         5.0700  -10.1540   16.3540 C.3   100  LEU100      0.0022
     93  CD1        5.0790   -8.6570   16.0770 C.3   100  LEU100      0.0001
     94  CD2        5.9440  -10.8890   15.3610 C.3   100  LEU100      0.0001
     95  N          2.1870  -11.2360   18.2780 N.am  101  MET101     -0.1963
     96  CA         1.0640  -12.1330   17.9430 C.3   101  MET101      0.1736
     97  C          0.9020  -12.1000   16.4090 C.2   101  MET101      0.2617
     98  O          1.6430  -11.3870   15.7350 O.2   101  MET101     -0.2715
     99  CB        -0.2440  -11.7120   18.6520 C.3   101  MET101      0.0427
    100  CG        -0.0640  -11.0290   20.0080 C.3   101  MET101      0.0599
    101  SD         0.0040  -12.0890   21.4750 S.3   101  MET101     -0.1393
    102  CE        -1.6560  -12.8120   21.4680 C.3   101  MET101      0.0692
    103  N         -0.0180  -12.8910   15.8690 N.am  102  GLY102     -0.1940
    104  CA        -0.2330  -12.9920   14.4290 C.3   102  GLY102      0.2014
    105  C         -0.5690  -11.6830   13.7440 C.2   102  GLY102      0.2639
    106  O          0.2540  -11.1340   13.0140 O.2   102  GLY102     -0.2714
    107  N         -1.7940  -11.1840   13.9780 N.am  103  ALA103     -0.1963
    108  CA        -2.3120   -9.9490   13.4000 C.3   103  ALA103      0.1728
    109  C         -3.3440   -9.3300   14.3510 C.2   103  ALA103      0.2616
    110  O         -3.3380   -9.6520   15.5350 O.2   103  ALA103     -0.2715
    111  CB        -2.9310  -10.2480   12.0410 C.3   103  ALA103      0.0334
    112  N         -4.2000   -8.4290   13.8520 N.am  104  ASP104     -0.1971
    113  CA        -5.2330   -7.8040   14.6690 C.3   104  ASP104      0.1709
    114  C         -6.6620   -8.2330   14.2800 C.2   104  ASP104      0.2293
    115  O         -6.8500   -8.8840   13.2420 O.2   104  ASP104     -0.2864
    116  CB        -5.0520   -6.2740   14.7830 C.3   104  ASP104      0.1436
    117  CG        -5.0860   -5.4640   13.5000 C.2   104  ASP104      0.3671
    118  OD1       -6.0010   -5.6830   12.6800 O.co2 104  ASP104     -0.2456
    119  OD2       -4.2530   -4.5400   13.3610 O.co2 104  ASP104     -0.2456
    120  N         -7.9060   -7.3830   10.8560 N.3   107  ASN107     -0.1240
    121  CA        -7.3480   -8.3190    9.8690 C.3   107  ASN107      0.1653
    122  C         -8.1370   -9.6570    9.7820 C.2   107  ASN107      0.2266
    123  O         -8.0420  -10.3480    8.7640 O.2   107  ASN107     -0.2867
    124  CB        -5.8520   -8.6090   10.1540 C.3   107  ASN107      0.1155
    125  CG        -4.9150   -7.4130   10.2430 C.2   107  ASN107      0.2627
    126  OD1       -4.1230   -7.3030   11.1830 O.2   107  ASN107     -0.2716
    127  ND2       -4.9050   -6.5350    9.2340 N.am  107  ASN107     -0.0877
    128  N         -7.8850   -3.0230   16.0070 N.3   144  SER144     -0.1217
    129  CA        -6.4700   -2.7830   15.6680 C.3   144  SER144      0.1889
    130  C         -5.5100   -2.8940   16.8540 C.2   144  SER144      0.2288
    131  O         -4.3210   -3.1300   16.6640 O.2   144  SER144     -0.2866
    132  CB        -6.3020   -1.4160   15.0020 C.3   144  SER144      0.2089
    133  OG        -6.9100   -0.3550   15.7230 O.3   144  SER144     -0.2183
    134  N         -4.8140   -7.7250   19.4250 N.3   147  ALA147     -0.1245
    135  CA        -3.9170   -8.6270   18.7300 C.3   147  ALA147      0.1562
    136  C         -4.2740  -10.0570   19.0370 C.2   147  ALA147      0.2260
    137  O         -4.6290  -10.3940   20.1760 O.2   147  ALA147     -0.2867
    138  CB        -2.4750   -8.3420   19.1200 C.3   147  ALA147      0.0290
    139  N         -3.7220   -4.2680   23.4240 N.3   157  LEU157     -0.1231
    140  CA        -2.6180   -3.3260   23.3150 C.3   157  LEU157      0.1693
    141  C         -3.1770   -1.9060   23.4670 C.2   157  LEU157      0.2592
    142  O         -4.3650   -1.6610   23.2060 O.2   157  LEU157     -0.2718
    143  CB        -1.9560   -3.4080   21.9070 C.3   157  LEU157      0.0284
    144  CG        -1.6440   -4.7450   21.2850 C.3   157  LEU157      0.0019
    145  CD1       -1.6290   -4.6350   19.7720 C.3   157  LEU157      0.0001
    146  CD2       -0.3450   -5.2380   21.7460 C.3   157  LEU157      0.0001
    147  N         -2.2850   -0.9650   23.8080 N.am  158  ASP158     -0.1960
    148  CA        -2.5130    0.4850   23.8490 C.3   158  ASP158      0.1840
    149  C         -3.5070    1.0360   24.8500 C.2   158  ASP158      0.2622
    150  O         -4.0780    2.1020   24.6190 O.2   158  ASP158     -0.2715
    151  CB        -2.7400    1.0440   22.4270 C.3   158  ASP158      0.1450
    152  CG        -1.5600    0.8250   21.5030 C.2   158  ASP158      0.3671
    153  OD1       -0.4210    0.7130   22.0090 O.co2 158  ASP158     -0.2456
    154  OD2       -1.7640    0.8190   20.2760 O.co2 158  ASP158     -0.2456
    155  N         -3.6660    0.3500   25.9890 N.am  159  PHE159     -0.1974
    156  CA        -4.5660    0.7750   27.0560 C.3   159  PHE159      0.1639
    157  C         -3.9340    1.8860   27.8960 C.2   159  PHE159      0.2290
    158  O         -2.7090    1.9250   28.0800 O.2   159  PHE159     -0.2864
    159  CB        -5.0140   -0.4130   27.9450 C.3   159  PHE159      0.0560
    160  CG        -3.8960   -1.3450   28.3320 C.ar  159  PHE159     -0.0200
    161  CD1       -3.5380   -2.4150   27.5080 C.ar  159  PHE159     -0.0042
    162  CD2       -3.1760   -1.1450   29.5030 C.ar  159  PHE159     -0.0042
    163  CE1       -2.4640   -3.2410   27.8350 C.ar  159  PHE159     -0.0003
    164  CE2       -2.1090   -1.9890   29.8360 C.ar  159  PHE159     -0.0003
    165  CZ        -1.7600   -3.0250   28.9950 C.ar  159  PHE159     -0.0000
    166  N         -3.2970    5.0440   27.4580 N.3   161  LEU161     -0.1245
    167  CA        -2.4100    6.0360   26.8380 C.3   161  LEU161      0.1561
    168  C         -3.1430    7.2830   26.2840 C.2   161  LEU161      0.2260
    169  O         -3.0460    8.3750   26.8600 O.2   161  LEU161     -0.2867
    170  CB        -1.5580    5.3680   25.7310 C.3   161  LEU161      0.0270
    171  CG        -0.4580    4.4090   26.2020 C.3   161  LEU161      0.0019
    172  CD1        0.3530    3.9220   25.0360 C.3   161  LEU161      0.0001
    173  CD2        0.4780    5.0800   27.1990 C.3   161  LEU161      0.0001
@<TRIPOS>BOND
     1   123   122    2
     2   127   125   am
     3   122   121    1
     4   121   124    1
     5   121   120    1
     6   124   125    1
     7   125   126    2
     8     6     5    1
     9     1     2    1
    10     2     5    1
    11     2     3    1
    12   111   108    1
    13     5     7    1
    14     4     3    2
    15   118   117   ar
    16   106   105    2
    17   115   114    2
    18   119   117   ar
    19   108   107    1
    20   108   109    1
    21   117   116    1
    22   105   107   am
    23   105   104    1
    24    11    10    2
    25   112   109   am
    26   112   113    1
    27   114   113    1
    28   109   110    2
    29   104   103    1
    30   113   116    1
    31    10     9    1
    32   132   129    1
    33   132   133    1
    34    94    92    1
    35     8     9    1
    36   129   128    1
    37   129   130    1
    38    98    97    2
    39   103    97   am
    40     9    12    1
    41    93    92    1
    42    92    91    1
    43    97    96    1
    44    12    14    1
    45    12    13    1
    46   131   130    2
    47    91    88    1
    48    96    95    1
    49    96    99    1
    50    95    89   am
    51    89    90    2
    52    89    88    1
    53    99   100    1
    54   135   136    1
    55   135   138    1
    56   135   134    1
    57    88    87    1
    58   136   137    2
    59    16    19    1
    60    16    17    1
    61    16    15    1
    62   145   144    1
    63    17    18    2
    64    21    20    1
    65    21    22    1
    66    21    24    1
    67   100   101    1
    68    87    79   am
    69    22    23    2
    70   154   152   ar
    71    25    24    1
    72    25    26    1
    73    27    26    1
    74    27    28    1
    75    79    80    2
    76    79    78    1
    77   144   146    1
    78   144   143    1
    79   102   101    1
    80   152   153   ar
    81   152   151    1
    82   143   140    1
    83   151   148    1
    84    78    81    1
    85    78    77    1
    86    75    74    1
    87    65    64    2
    88    73    72    2
    89    81    82    1
    90   142   141    2
    91   140   139    1
    92   140   141    1
    93    77    72   am
    94    72    71    1
    95   141   147   am
    96    83    82   ar
    97    83    85   ar
    98    61    59    1
    99   147   148    1
   100    70    71    1
   101   148   149    1
   102    64    63    1
   103    82    84   ar
   104    74    71    1
   105    74    76    1
   106    62    63    1
   107    85    86   ar
   108   150   149    2
   109    59    58    1
   110    37    35   ar
   111    63    66    1
   112   149   155   am
   113    36    35   ar
   114   172   171    1
   115    66    67    1
   116    84    86   ar
   117    58    60    1
   118    58    55    1
   119    35    34    1
   120    68    67    1
   121   170   171    1
   122   170   167    1
   123    67    69    1
   124   155   156    1
   125   171   173    1
   126   168   167    1
   127   168   169    2
   128    55    54    1
   129    55    56    1
   130   167   166    1
   131    34    33    1
   132   156   157    1
   133   156   159    1
   134   161   163   ar
   135   161   160   ar
   136    52    51    1
   137   163   165   ar
   138    33    30    1
   139    56    57    2
   140   157   158    2
   141   159   160    1
   142    53    51    1
   143   160   162   ar
   144    51    50    1
   145   165   164   ar
   146    30    31    1
   147    30    29    1
   148   162   164   ar
   149    31    32    2
   150    50    47    1
   151    44    43    1
   152    47    46    1
   153    47    48    1
   154    42    43    1
   155    42    39    1
   156    46    40   am
   157    43    45    1
   158    49    48    2
   159    40    39    1
   160    40    41    2
   161    39    38    1
