@<TRIPOS>MOLECULE
tmp/3s5aA00.pdb
 143 131 0 0 0
SMALL
GASTEIGER

@<TRIPOS>ATOM
      1  N          1.1750  -14.4640    5.7840 N.3    58  GLN58      -0.1245
      2  CA         0.0550  -15.0950    6.4760 C.3    58  GLN58       0.1566
      3  C         -0.8620  -15.8400    5.5240 C.2    58  GLN58       0.2260
      4  O         -0.9390  -15.5100    4.3220 O.2    58  GLN58      -0.2867
      5  CB        -0.7630  -14.0650    7.2360 C.3    58  GLN58       0.0367
      6  CG         0.0710  -13.2470    8.1910 C.3    58  GLN58       0.0905
      7  CD        -0.7720  -12.3410    9.0570 C.2    58  GLN58       0.2608
      8  OE1       -1.3010  -11.3440    8.5860 O.2    58  GLN58      -0.2717
      9  NE2       -0.8830  -12.6770   10.3470 N.am   58  GLN58      -0.0878
     10  N         -4.3990  -20.2790   11.5070 N.3   103  LEU103     -0.1245
     11  CA        -3.6750  -19.1270   10.9800 C.3   103  LEU103      0.1561
     12  C         -2.2070  -19.5090   10.8510 C.2   103  LEU103      0.2260
     13  O         -1.5960  -19.9820   11.8000 O.2   103  LEU103     -0.2867
     14  CB        -3.8570  -17.9100   11.9090 C.3   103  LEU103      0.0270
     15  CG        -3.0230  -16.6760   11.5200 C.3   103  LEU103      0.0019
     16  CD1       -3.3810  -16.0460   10.1490 C.3   103  LEU103      0.0001
     17  CD2       -3.0680  -15.6630   12.6590 C.3   103  LEU103      0.0001
     18  N          1.5970  -18.2450   10.0280 N.3   105  ASN105     -0.1240
     19  CA         2.4620  -17.0760    9.9970 C.3   105  ASN105      0.1653
     20  C          3.8410  -17.5890    9.5930 C.2   105  ASN105      0.2266
     21  O          4.3880  -18.4840   10.2420 O.2   105  ASN105     -0.2867
     22  CB         2.5570  -16.4350   11.3990 C.3   105  ASN105      0.1155
     23  CG         1.3700  -15.5530   11.7170 C.2   105  ASN105      0.2627
     24  OD1        1.2320  -14.4560   11.1590 O.2   105  ASN105     -0.2716
     25  ND2        0.5220  -16.0060   12.6330 N.am  105  ASN105     -0.0877
     26  N          7.7150  -16.4820    9.0960 N.3   107  TYR107     -0.1241
     27  CA         8.7440  -15.5050    9.4180 C.3   107  TYR107      0.1605
     28  C          9.9540  -15.8270    8.5460 C.2   107  TYR107      0.2264
     29  O         10.6110  -16.8370    8.7800 O.2   107  TYR107     -0.2867
     30  CB         9.1090  -15.5950   10.9210 C.3   107  TYR107      0.0534
     31  CG         7.8720  -15.4090   11.7810 C.ar  107  TYR107     -0.0201
     32  CD1        7.5130  -14.1400   12.2410 C.ar  107  TYR107     -0.0009
     33  CD2        7.0450  -16.4770   12.0960 C.ar  107  TYR107     -0.0009
     34  CE1        6.3530  -13.9450   12.9720 C.ar  107  TYR107      0.0417
     35  CE2        5.8810  -16.3020   12.8580 C.ar  107  TYR107      0.0417
     36  CZ         5.5490  -15.0340   13.3070 C.ar  107  TYR107      0.1957
     37  OH         4.4110  -14.8720   14.0330 O.3   107  TYR107     -0.2866
     38  N          6.2240  -10.5570   15.3020 N.3   114  ILE114     -0.1245
     39  CA         4.8680  -10.1500   15.6630 C.3   114  ILE114      0.1561
     40  C          4.9300   -9.4690   17.0240 C.2   114  ILE114      0.2260
     41  O          5.5250   -9.9990   17.9570 O.2   114  ILE114     -0.2867
     42  CB         3.8550  -11.3080   15.6130 C.3   114  ILE114      0.0252
     43  CG1        2.4350  -10.7780   15.8610 C.3   114  ILE114      0.0019
     44  CG2        4.2480  -12.4400   16.5670 C.3   114  ILE114      0.0019
     45  CD1        1.3180  -11.8270   15.6410 C.3   114  ILE114      0.0001
     46  N          0.6480   -9.1030   21.7610 N.3   117  HIS117     -0.1241
     47  CA        -0.8030   -9.1100   21.5160 C.3   117  HIS117      0.1621
     48  C         -1.4900  -10.2210   22.2890 C.2   117  HIS117      0.2264
     49  O         -0.8330  -11.1460   22.7650 O.2   117  HIS117     -0.2867
     50  CB        -1.0540   -9.2680   19.9950 C.3   117  HIS117      0.0745
     51  CG        -0.7030  -10.6300   19.5010 C.ar  117  HIS117      0.0817
     52  ND1        0.5990  -11.0330   19.2910 N.ar  117  HIS117     -0.2268
     53  CD2       -1.4720  -11.7150   19.2770 C.ar  117  HIS117      0.1154
     54  CE1        0.6090  -12.3050   18.9390 C.ar  117  HIS117      0.1986
     55  NE2       -0.6330  -12.7390   18.9190 N.ar  117  HIS117     -0.2212
     56  N         -4.6340  -12.9170   21.4830 N.3   119  ASP119     -0.1239
     57  CA        -5.5350  -13.4050   20.4570 C.3   119  ASP119      0.1674
     58  C         -6.9760  -12.9320   20.7020 C.2   119  ASP119      0.2266
     59  O         -7.4570  -12.9190   21.8370 O.2   119  ASP119     -0.2867
     60  CB        -5.4320  -14.9230   20.3360 C.3   119  ASP119      0.1410
     61  CG        -4.0180  -15.3710   20.0870 C.2   119  ASP119      0.3668
     62  OD1       -3.2690  -14.5860   19.4810 O.co2 119  ASP119     -0.2456
     63  OD2       -3.6230  -16.4760   20.5300 O.co2 119  ASP119     -0.2456
     64  N         -0.3000  -23.9060   19.0600 N.3   132  SER132     -0.1217
     65  CA         0.7030  -23.2240   18.2370 C.3   132  SER132      0.1889
     66  C          1.7900  -24.2380   17.8830 C.2   132  SER132      0.2288
     67  O          2.5400  -24.7020   18.7490 O.2   132  SER132     -0.2866
     68  CB         1.2690  -22.0260   18.9970 C.3   132  SER132      0.2089
     69  OG         2.3590  -21.4560   18.3000 O.3   132  SER132     -0.2183
     70  N          9.9860  -16.7950   21.9900 N.3   141  PHE141     -0.1241
     71  CA         8.5980  -16.4050   22.2000 C.3   141  PHE141      0.1605
     72  C          8.5310  -15.7890   23.5930 C.2   141  PHE141      0.2264
     73  O          9.2230  -16.2590   24.5170 O.2   141  PHE141     -0.2867
     74  CB         7.7430  -17.6580   22.0860 C.3   141  PHE141      0.0534
     75  CG         6.2650  -17.4310   22.2260 C.ar  141  PHE141     -0.0203
     76  CD1        5.4860  -17.0800   21.1150 C.ar  141  PHE141     -0.0042
     77  CD2        5.6320  -17.6680   23.4470 C.ar  141  PHE141     -0.0042
     78  CE1        4.1080  -16.9250   21.2440 C.ar  141  PHE141     -0.0003
     79  CE2        4.2640  -17.5340   23.5710 C.ar  141  PHE141     -0.0003
     80  CZ         3.4970  -17.1440   22.4670 C.ar  141  PHE141     -0.0000
     81  N         10.6310  -21.5630   20.8170 N.3   164  LEU164     -0.1245
     82  CA         9.7300  -22.5240   20.2050 C.3   164  LEU164      0.1561
     83  C         10.5310  -23.2280   19.1390 C.2   164  LEU164      0.2260
     84  O         10.9480  -22.6100   18.1600 O.2   164  LEU164     -0.2867
     85  CB         8.5210  -21.8180   19.5930 C.3   164  LEU164      0.0270
     86  CG         7.6570  -21.0590   20.5950 C.3   164  LEU164      0.0019
     87  CD1        6.4570  -20.4960   19.8890 C.3   164  LEU164      0.0001
     88  CD2        7.2140  -21.9960   21.7370 C.3   164  LEU164      0.0001
     89  N          1.4750  -12.0580   24.1780 N.3   182  HIS182     -0.1241
     90  CA         2.6450  -12.7680   23.7150 C.3   182  HIS182      0.1621
     91  C          3.1690  -12.1620   22.4210 C.2   182  HIS182      0.2264
     92  O          2.4630  -11.4320   21.7230 O.2   182  HIS182     -0.2867
     93  CB         2.3430  -14.2620   23.5330 C.3   182  HIS182      0.0745
     94  CG         1.1470  -14.5290   22.6790 C.ar  182  HIS182      0.0817
     95  ND1       -0.1330  -14.5530   23.1820 N.ar  182  HIS182     -0.2268
     96  CD2        1.0310  -14.7720   21.3490 C.ar  182  HIS182      0.1154
     97  CE1       -0.9900  -14.7930   22.2050 C.ar  182  HIS182      0.1986
     98  NE2       -0.3080  -14.9240   21.0820 N.ar  182  HIS182     -0.2212
     99  N          6.6170  -12.5610   19.2620 N.3   184  LEU184     -0.1245
    100  CA         7.7860  -13.2060   18.6880 C.3   184  LEU184      0.1561
    101  C          8.7150  -12.0680   18.3000 C.2   184  LEU184      0.2260
    102  O          8.5620  -11.4720   17.2260 O.2   184  LEU184     -0.2867
    103  CB         7.4020  -14.0390   17.4540 C.3   184  LEU184      0.0270
    104  CG         8.3720  -15.1790   17.1930 C.3   184  LEU184      0.0019
    105  CD1        8.0650  -16.4030   18.0690 C.3   184  LEU184      0.0001
    106  CD2        8.3050  -15.5400   15.7130 C.3   184  LEU184      0.0001
    107  N         10.8180  -19.6160    9.5400 N.3   194  ARG194     -0.1245
    108  CA        10.0240  -20.3780   10.4840 C.3   194  ARG194      0.1563
    109  C          8.5820  -20.2870   10.0360 C.2   194  ARG194      0.2260
    110  O          8.1130  -19.2070    9.6640 O.2   194  ARG194     -0.2867
    111  CB        10.1480  -19.7820   11.8930 C.3   194  ARG194      0.0307
    112  CG         9.2180  -20.4180   12.8910 C.3   194  ARG194      0.0489
    113  CD         9.3480  -19.6360   14.1910 C.3   194  ARG194      0.2205
    114  NE         8.4140  -20.0810   15.1940 N.pl3 194  ARG194     -0.0865
    115  CZ         7.3110  -19.4360   15.5430 C.cat 194  ARG194      0.5346
    116  NH1        6.9650  -18.2810   14.9690 N.pl3 194  ARG194      0.1354
    117  NH2        6.5470  -19.9440   16.4780 N.pl3 194  ARG194      0.1354
    118  N          4.8180  -20.9100   11.5080 N.3   196  ASN196     -0.1240
    119  CA         4.0260  -21.2020   12.6970 C.3   196  ASN196      0.1653
    120  C          2.5630  -21.3810   12.3370 C.2   196  ASN196      0.2266
    121  O          2.0110  -20.6170   11.5270 O.2   196  ASN196     -0.2867
    122  CB         4.1690  -20.0590   13.7000 C.3   196  ASN196      0.1155
    123  CG         3.2990  -20.2720   14.8920 C.2   196  ASN196      0.2627
    124  OD1        3.6080  -21.1210   15.7590 O.2   196  ASN196     -0.2716
    125  ND2        2.1950  -19.5420   14.9530 N.am  196  ASN196     -0.0877
    126  N         -1.1290  -21.5850   14.0540 N.3   198  THR198     -0.1218
    127  CA        -1.9390  -21.4590   15.2780 C.3   198  THR198      0.1862
    128  C         -3.3590  -21.9480   15.0070 C.2   198  THR198      0.2287
    129  O         -4.1370  -21.3000   14.2910 O.2   198  THR198     -0.2866
    130  CB        -1.8870  -20.0300   15.8640 C.3   198  THR198      0.1770
    131  OG1       -2.2890  -19.0980   14.8620 O.3   198  THR198     -0.2211
    132  CG2       -0.4610  -19.6660   16.2730 C.3   198  THR198      0.0375
    133  N         -7.1760  -23.0000   15.9070 N.3   200  ARG200     -0.1245
    134  CA        -8.2030  -22.3750   16.7410 C.3   200  ARG200      0.1563
    135  C         -9.5170  -23.0620   16.4900 C.2   200  ARG200      0.2260
    136  O         -9.7070  -23.7390   15.4720 O.2   200  ARG200     -0.2867
    137  CB        -8.3380  -20.8810   16.4110 C.3   200  ARG200      0.0307
    138  CG        -7.0680  -20.0640   16.6360 C.3   200  ARG200      0.0489
    139  CD        -6.7150  -19.2340   15.4020 C.3   200  ARG200      0.2205
    140  NE        -5.4000  -18.5880   15.4970 N.pl3 200  ARG200     -0.0865
    141  CZ        -5.1640  -17.4200   16.1010 C.cat 200  ARG200      0.5346
    142  NH1       -6.1390  -16.7630   16.6890 N.pl3 200  ARG200      0.1354
    143  NH2       -3.9400  -16.9030   16.1150 N.pl3 200  ARG200      0.1354
@<TRIPOS>BOND
     1     4     3    2
     2     3     2    1
     3     1     2    1
     4     2     5    1
     5     5     6    1
     6     6     7    1
     7    28    29    2
     8    28    27    1
     9     8     7    2
    10     7     9   am
    11    26    27    1
    12    27    30    1
    13   107   108    1
    14    20    19    1
    15    20    21    2
    16   110   109    2
    17    19    18    1
    18    19    22    1
    19   109   108    1
    20    16    15    1
    21   108   111    1
    22    12    11    1
    23    12    13    2
    24    30    31    1
    25    11    10    1
    26    11    14    1
    27    24    23    2
    28    22    23    1
    29   118   119    1
    30    15    14    1
    31    15    17    1
    32   121   120    2
    33    23    25   am
    34    31    33   ar
    35    31    32   ar
    36   111   112    1
    37    33    35   ar
    38    32    34   ar
    39   120   119    1
    40   119   122    1
    41    35    36   ar
    42   112   113    1
    43    34    36   ar
    44    36    37    1
    45   122   123    1
    46   126   127    1
    47   113   114    1
    48   129   128    2
    49   131   130    1
    50   123   125   am
    51   123   124    2
    52   116   115    1
    53   128   127    1
    54   114   115    2
    55   127   130    1
    56    38    39    1
    57   139   140    1
    58   139   138    1
    59   136   135    2
    60   140   141    2
    61   115   117    1
    62    42    39    1
    63    42    43    1
    64    42    44    1
    65    45    43    1
    66    39    40    1
    67   106   104    1
    68   130   132    1
    69   133   134    1
    70   141   143    1
    71   141   142    1
    72   137   138    1
    73   137   134    1
    74   135   134    1
    75    40    41    2
    76   104   103    1
    77   104   105    1
    78   102   101    2
    79   103   100    1
    80    66    65    1
    81    66    67    2
    82    84    83    2
    83    65    68    1
    84    65    64    1
    85   101   100    1
    86    69    68    1
    87   100    99    1
    88    55    54   ar
    89    55    53   ar
    90    54    52   ar
    91    83    82    1
    92    53    51   ar
    93    52    51   ar
    94    62    61   ar
    95    51    50    1
    96    85    82    1
    97    85    86    1
    98    87    86    1
    99    50    47    1
   100    61    60    1
   101    61    63   ar
   102    82    81    1
   103    60    57    1
   104    57    58    1
   105    57    56    1
   106    86    88    1
   107    58    59    2
   108    98    96   ar
   109    98    97   ar
   110    76    78   ar
   111    76    75   ar
   112    78    80   ar
   113    96    94   ar
   114    47    46    1
   115    47    48    1
   116    92    91    2
   117    70    71    1
   118    74    71    1
   119    74    75    1
   120    71    72    1
   121    97    95   ar
   122    75    77   ar
   123    48    49    2
   124    91    90    1
   125    80    79   ar
   126    94    95   ar
   127    94    93    1
   128    77    79   ar
   129    93    90    1
   130    72    73    2
   131    90    89    1
