@<TRIPOS>MOLECULE
tmp/3s5rA01.pdb
 91 88 0 0 0
SMALL
GASTEIGER

@<TRIPOS>ATOM
      1  N         14.9340   33.8340   93.8570 N.3    60  ILE60      -0.1245
      2  CA        14.0390   33.8630   92.6990 C.3    60  ILE60       0.1561
      3  C         13.5960   35.3120   92.4250 C.2    60  ILE60       0.2260
      4  O         13.5940   35.7180   91.2570 O.2    60  ILE60      -0.2867
      5  CB        12.8200   32.9030   92.9110 C.3    60  ILE60       0.0252
      6  CG1       13.2640   31.4240   93.1350 C.3    60  ILE60       0.0019
      7  CG2       11.7750   32.9990   91.7980 C.3    60  ILE60       0.0019
      8  CD1       14.2200   30.7660   92.0690 C.3    60  ILE60       0.0001
      9  N         16.3350   37.6200   90.8250 N.3    62  ILE62      -0.1231
     10  CA        16.6190   37.2570   89.4350 C.3    62  ILE62       0.1692
     11  C         15.4960   37.8110   88.5200 C.2    62  ILE62       0.2592
     12  O         15.8010   38.2930   87.4250 O.2    62  ILE62      -0.2718
     13  CB        16.7970   35.7080   89.2980 C.3    62  ILE62       0.0266
     14  CG1       18.1500   35.2650   89.9180 C.3    62  ILE62       0.0019
     15  CG2       16.6910   35.2210   87.8320 C.3    62  ILE62       0.0020
     16  CD1       18.3780   33.7260   90.0840 C.3    62  ILE62       0.0001
     17  N         14.2230   37.7730   88.9720 N.am   63  TRP63      -0.1976
     18  CA        13.0810   38.2000   88.1570 C.3    63  TRP63       0.1640
     19  C         12.5270   39.6000   88.4980 C.2    63  TRP63       0.2290
     20  O         11.7240   40.0990   87.7120 O.2    63  TRP63      -0.2864
     21  CB        11.9290   37.1900   88.2880 C.3    63  TRP63       0.0576
     22  CG        12.2200   35.8690   87.6440 C.ar   63  TRP63       0.0006
     23  CD1       12.6470   34.7300   88.2600 C.ar   63  TRP63       0.0946
     24  CD2       12.1600   35.5710   86.2450 C.ar   63  TRP63       0.0152
     25  NE1       12.8330   33.7330   87.3350 N.ar   63  TRP63      -0.2442
     26  CE2       12.5410   34.2210   86.0890 C.ar   63  TRP63       0.0810
     27  CE3       11.8110   36.3140   85.1050 C.ar   63  TRP63       0.0012
     28  CZ2       12.5850   33.5980   84.8410 C.ar   63  TRP63       0.0191
     29  CZ3       11.8510   35.6940   83.8700 C.ar   63  TRP63       0.0001
     30  CH2       12.2330   34.3520   83.7460 C.ar   63  TRP63       0.0015
     31  N         21.5930   35.3250   86.6680 N.3    83  ILE83      -0.1245
     32  CA        21.5190   33.9130   87.0530 C.3    83  ILE83       0.1561
     33  C         22.9340   33.4140   87.4090 C.2    83  ILE83       0.2260
     34  O         23.1200   32.8710   88.5000 O.2    83  ILE83      -0.2867
     35  CB        20.8500   33.0290   85.9560 C.3    83  ILE83       0.0252
     36  CG1       19.3770   33.4520   85.7290 C.3    83  ILE83       0.0019
     37  CG2       20.9290   31.5350   86.3320 C.3    83  ILE83       0.0019
     38  CD1       18.7060   32.9180   84.4590 C.3    83  ILE83       0.0001
     39  N         22.9310   27.0130   95.4170 N.3    92  LEU92      -0.1245
     40  CA        21.7780   27.1630   94.5310 C.3    92  LEU92       0.1561
     41  C         21.7890   26.1640   93.3330 C.2    92  LEU92       0.2260
     42  O         20.7560   25.5140   93.1690 O.2    92  LEU92      -0.2867
     43  CB        21.6750   28.6050   94.0030 C.3    92  LEU92       0.0270
     44  CG        20.5170   28.9190   93.0440 C.3    92  LEU92       0.0019
     45  CD1       19.1590   28.7710   93.7210 C.3    92  LEU92       0.0001
     46  CD2       20.6770   30.2870   92.4440 C.3    92  LEU92       0.0001
     47  N         19.0870   22.9090   93.2610 N.3    96  TRP96      -0.1241
     48  CA        18.1530   22.9980   92.1390 C.3    96  TRP96       0.1605
     49  C         17.9460   21.6220   91.4900 C.2    96  TRP96       0.2264
     50  O         16.7980   21.2060   91.3510 O.2    96  TRP96      -0.2867
     51  CB        18.6520   24.0220   91.1040 C.3    96  TRP96       0.0550
     52  CG        17.7870   24.1580   89.8850 C.ar   96  TRP96       0.0003
     53  CD1       16.5400   24.7070   89.8220 C.ar   96  TRP96       0.0946
     54  CD2       18.1510   23.8340   88.5360 C.ar   96  TRP96       0.0152
     55  NE1       16.0780   24.6860   88.5270 N.ar   96  TRP96      -0.2442
     56  CE2       17.0550   24.1730   87.7130 C.ar   96  TRP96       0.0810
     57  CE3       19.2860   23.2530   87.9440 C.ar   96  TRP96       0.0012
     58  CZ2       17.0540   23.9380   86.3310 C.ar   96  TRP96       0.0191
     59  CZ3       19.2980   23.0540   86.5710 C.ar   96  TRP96       0.0001
     60  CH2       18.1920   23.3910   85.7800 C.ar   96  TRP96       0.0015
     61  N          6.1250   30.3040   92.2590 N.3   114  ILE114     -0.1231
     62  CA         6.6470   30.6040   90.9190 C.3   114  ILE114      0.1678
     63  C          6.3040   32.0780   90.5730 C.2   114  ILE114      0.2434
     64  O          5.1520   32.4770   90.7730 O.2   114  ILE114     -0.2733
     65  CB         6.0730   29.5900   89.8670 C.3   114  ILE114      0.0265
     66  CG1        6.4700   28.1140   90.1750 C.3   114  ILE114      0.0019
     67  CG2        6.3940   29.9700   88.4100 C.3   114  ILE114      0.0020
     68  CD1        8.0170   27.7350   90.1290 C.3   114  ILE114      0.0001
     69  N          7.2550   32.9000   90.0510 N.am  115  PRO115     -0.2729
     70  CA         6.9110   34.2980   89.7100 C.3   115  PRO115      0.1401
     71  C          6.1530   34.3780   88.3760 C.2   115  PRO115      0.2269
     72  O          6.6500   34.9480   87.4010 O.2   115  PRO115     -0.2865
     73  CB         8.2760   34.9910   89.6440 C.3   115  PRO115      0.0296
     74  CG         9.2250   33.9180   89.2600 C.3   115  PRO115      0.0237
     75  CD         8.6740   32.6050   89.7550 C.3   115  PRO115      0.0939
     76  N         12.1730   30.6380   78.6460 N.3   144  ILE144     -0.1245
     77  CA        12.4490   30.7610   80.0850 C.3   144  ILE144      0.1561
     78  C         13.2340   29.5180   80.5360 C.2   144  ILE144      0.2260
     79  O         14.3340   29.6570   81.0790 O.2   144  ILE144     -0.2867
     80  CB        11.1330   30.9660   80.9070 C.3   144  ILE144      0.0252
     81  CG1       10.3980   32.2630   80.4730 C.3   144  ILE144      0.0019
     82  CG2       11.4120   30.9470   82.4240 C.3   144  ILE144      0.0019
     83  CD1        8.9440   32.4180   80.9790 C.3   144  ILE144      0.0001
     84  N         17.2990   29.0320   81.6490 N.3   148  ILE148     -0.1245
     85  CA        17.5640   28.3840   82.9420 C.3   148  ILE148      0.1561
     86  C         18.4710   27.1560   82.7130 C.2   148  ILE148      0.2260
     87  O         19.4770   27.0140   83.4040 O.2   148  ILE148     -0.2867
     88  CB        16.2400   28.0090   83.6870 C.3   148  ILE148      0.0252
     89  CG1       15.3990   29.2540   84.0830 C.3   148  ILE148      0.0019
     90  CG2       16.4820   27.1020   84.8990 C.3   148  ILE148      0.0019
     91  CD1       16.0160   30.2640   85.0990 C.3   148  ILE148      0.0001
@<TRIPOS>BOND
     1    76    77    1
     2    77    78    1
     3    77    80    1
     4    81    80    1
     5    81    83    1
     6    78    79    2
     7    80    82    1
     8    84    85    1
     9    86    85    1
    10    86    87    2
    11    85    88    1
    12    88    89    1
    13    88    90    1
    14    30    29   ar
    15    30    28   ar
    16    29    27   ar
    17    89    91    1
    18    38    36    1
    19    28    26   ar
    20    27    24   ar
    21    36    35    1
    22    60    58   ar
    23    60    59   ar
    24    35    37    1
    25    35    32    1
    26    26    24   ar
    27    26    25   ar
    28    24    22   ar
    29    58    56   ar
    30    59    57   ar
    31    31    32    1
    32    32    33    1
    33    25    23   ar
    34    72    71    2
    35    33    34    2
    36    12    11    2
    37    22    23   ar
    38    22    21    1
    39    20    19    2
    40    56    55   ar
    41    56    54   ar
    42    15    13    1
    43    57    54   ar
    44    18    21    1
    45    18    19    1
    46    18    17    1
    47    71    70    1
    48    67    65    1
    49    11    17   am
    50    11    10    1
    51    55    53   ar
    52    54    52   ar
    53    74    73    1
    54    74    75    1
    55    13    10    1
    56    13    14    1
    57    10     9    1
    58    73    70    1
    59    70    69    1
    60    75    69    1
    61    53    52   ar
    62    65    66    1
    63    65    62    1
    64    52    51    1
    65    14    16    1
    66    69    63   am
    67    68    66    1
    68    63    64    2
    69    63    62    1
    70    62    61    1
    71    51    48    1
    72     4     3    2
    73    50    49    2
    74    49    48    1
    75     7     5    1
    76     8     6    1
    77    48    47    1
    78     3     2    1
    79    46    44    1
    80     2     5    1
    81     2     1    1
    82     5     6    1
    83    44    45    1
    84    44    43    1
    85    42    41    2
    86    41    40    1
    87    43    40    1
    88    40    39    1
