@<TRIPOS>MOLECULE
tmp/3s5wB01.pdb
 183 178 0 0 0
SMALL
GASTEIGER

@<TRIPOS>ATOM
      1  N        107.3910   37.7220  128.6730 N.3    56  GLN56      -0.1245
      2  CA       106.3280   36.9280  129.3400 C.3    56  GLN56       0.1566
      3  C        105.1090   37.7820  129.6570 C.2    56  GLN56       0.2260
      4  O        104.4040   37.5820  130.6600 O.2    56  GLN56      -0.2867
      5  CB       106.8550   36.3030  130.6340 C.3    56  GLN56       0.0367
      6  CG       107.9750   35.2860  130.4080 C.3    56  GLN56       0.0905
      7  CD       108.3540   34.6500  131.7220 C.2    56  GLN56       0.2608
      8  OE1      107.8200   33.5870  132.0860 O.2    56  GLN56      -0.2717
      9  NE2      109.2350   35.3240  132.4790 N.am   56  GLN56      -0.0878
     10  N        119.4900   36.9730  144.3500 N.3   165  ARG165     -0.1245
     11  CA       119.3060   36.1770  145.5600 C.3   165  ARG165      0.1563
     12  C        120.3420   35.0820  145.5380 C.2   165  ARG165      0.2260
     13  O        120.3810   34.2840  144.5960 O.2   165  ARG165     -0.2867
     14  CB       117.9100   35.5520  145.6640 C.3   165  ARG165      0.0307
     15  CG       117.6760   34.8390  147.0230 C.3   165  ARG165      0.0489
     16  CD       116.3810   34.0470  147.0040 C.3   165  ARG165      0.2205
     17  NE       115.2220   34.9170  147.2120 N.pl3 165  ARG165     -0.0865
     18  CZ       114.2420   35.1100  146.3290 C.cat 165  ARG165      0.5346
     19  NH1      114.2510   34.4990  145.1370 N.pl3 165  ARG165      0.1354
     20  NH2      113.2340   35.9160  146.6450 N.pl3 165  ARG165      0.1354
     21  N        121.7970   31.8160  147.4990 N.3   167  PRO167     -0.2102
     22  CA       121.5490   30.8830  148.6140 C.3   167  PRO167      0.1504
     23  C        122.7530   30.8970  149.5780 C.2   167  PRO167      0.2575
     24  O        123.9020   30.9490  149.1260 O.2   167  PRO167     -0.2718
     25  CB       121.4320   29.5210  147.9250 C.3   167  PRO167      0.0282
     26  CG       120.9760   29.8630  146.5050 C.3   167  PRO167      0.0208
     27  CD       121.7460   31.1330  146.1940 C.3   167  PRO167      0.0893
     28  N        122.4690   30.8660  150.8770 N.am  168  GLN168     -0.1980
     29  CA       123.5110   30.8900  151.9290 C.3   168  GLN168      0.1601
     30  C        124.7410   30.0320  151.6050 C.2   168  GLN168      0.2287
     31  O        125.8860   30.4880  151.7160 O.2   168  GLN168     -0.2864
     32  CB       122.8860   30.5210  153.2930 C.3   168  GLN168      0.0394
     33  CG       123.8810   30.1870  154.4380 C.3   168  GLN168      0.0908
     34  CD       124.7210   31.3770  154.9040 C.2   168  GLN168      0.2608
     35  OE1      124.3870   32.5500  154.6540 O.2   168  GLN168     -0.2717
     36  NE2      125.8140   31.0790  155.6050 N.am  168  GLN168     -0.0878
     37  N        121.2940   26.0210  139.4540 N.3   198  ILE198     -0.1231
     38  CA       120.5050   25.9070  140.6660 C.3   198  ILE198      0.1692
     39  C        119.2020   26.7030  140.4510 C.2   198  ILE198      0.2593
     40  O        119.2560   27.9020  140.1550 O.2   198  ILE198     -0.2718
     41  CB       121.2590   26.4730  141.9240 C.3   198  ILE198      0.0266
     42  CG1      122.6840   25.9110  142.0480 C.3   198  ILE198      0.0019
     43  CG2      120.4250   26.2560  143.2330 C.3   198  ILE198      0.0020
     44  CD1      122.8420   24.3960  141.8480 C.3   198  ILE198      0.0001
     45  N        118.0540   26.0220  140.5700 N.am  199  GLY199     -0.1942
     46  CA       116.7510   26.6610  140.3810 C.3   199  GLY199      0.2014
     47  C        115.8520   25.8960  139.4090 C.2   199  GLY199      0.2639
     48  O        116.3240   25.0320  138.6350 O.2   199  GLY199     -0.2714
     49  N        114.5700   26.2430  139.4500 N.am  200  GLY200     -0.1939
     50  CA       113.5070   25.5540  138.7100 C.3   200  GLY200      0.2014
     51  C        112.4820   26.4970  138.0810 C.2   200  GLY200      0.2639
     52  O        111.3900   26.0520  137.6950 O.2   200  GLY200     -0.2714
     53  N        112.8230   27.7870  137.9900 N.am  201  GLY201     -0.1939
     54  CA       111.9330   28.8280  137.4560 C.3   201  GLY201      0.2014
     55  C        112.2950   29.2150  136.0320 C.2   201  GLY201      0.2639
     56  O        113.0770   28.5270  135.3770 O.2   201  GLY201     -0.2714
     57  N        111.6920   30.3100  135.5440 N.am  202  GLN202     -0.1963
     58  CA       111.8950   30.7220  134.1560 C.3   202  GLN202      0.1733
     59  C        113.3880   30.9060  133.7890 C.2   202  GLN202      0.2617
     60  O        113.8410   30.4400  132.7440 O.2   202  GLN202     -0.2715
     61  CB       111.0830   31.9820  133.8350 C.3   202  GLN202      0.0408
     62  CG       111.2000   32.4280  132.3830 C.3   202  GLN202      0.0908
     63  CD       110.3860   31.5780  131.4310 C.2   202  GLN202      0.2608
     64  OE1      109.4720   30.8560  131.8410 O.2   202  GLN202     -0.2717
     65  NE2      110.7160   31.6550  130.1450 N.am  202  GLN202     -0.0878
     66  N        114.1420   31.5720  134.6670 N.am  203  SER203     -0.1936
     67  CA       115.5560   31.7860  134.4280 C.3   203  SER203      0.2055
     68  C        116.3520   30.4820  134.3070 C.2   203  SER203      0.2642
     69  O        117.1360   30.3390  133.3630 O.2   203  SER203     -0.2714
     70  CB       116.1470   32.6580  135.5350 C.3   203  SER203      0.2130
     71  OG       115.6700   33.9730  135.3060 O.3   203  SER203     -0.2179
     72  N        116.1350   29.5490  135.2430 N.am  204  ALA204     -0.1977
     73  CA       116.8210   28.2260  135.2010 C.3   204  ALA204      0.1597
     74  C        116.5450   27.5100  133.8770 C.2   204  ALA204      0.2287
     75  O        117.4500   26.9460  133.2600 O.2   204  ALA204     -0.2864
     76  CB       116.3880   27.3400  136.3810 C.3   204  ALA204      0.0319
     77  N        119.4230   21.5780  138.9840 N.3   223  ILE223     -0.1231
     78  CA       119.3460   21.1420  140.3940 C.3   223  ILE223      0.1692
     79  C        118.2970   21.9850  141.0850 C.2   223  ILE223      0.2592
     80  O        118.5310   23.1600  141.4000 O.2   223  ILE223     -0.2718
     81  CB       120.7240   21.2500  141.1150 C.3   223  ILE223      0.0266
     82  CG1      121.7780   20.4630  140.3270 C.3   223  ILE223      0.0019
     83  CG2      120.6250   20.8060  142.5970 C.3   223  ILE223      0.0020
     84  CD1      123.2320   20.7170  140.7540 C.3   223  ILE223      0.0001
     85  N        117.1280   21.3900  141.2980 N.am  224  LEU224     -0.1966
     86  CA       116.0260   22.1000  141.9210 C.3   224  LEU224      0.1728
     87  C        115.5150   21.3390  143.1480 C.2   224  LEU224      0.2616
     88  O        115.3950   20.1130  143.1250 O.2   224  LEU224     -0.2715
     89  CB       114.8770   22.3650  140.9170 C.3   224  LEU224      0.0311
     90  CG       114.2250   21.1920  140.1800 C.3   224  LEU224      0.0022
     91  CD1      112.8220   21.6160  139.6940 C.3   224  LEU224      0.0001
     92  CD2      115.0480   20.7140  139.0290 C.3   224  LEU224      0.0001
     93  N        115.2170   22.0830  144.2090 N.am  225  ARG225     -0.1963
     94  CA       114.7250   21.4850  145.4500 C.3   225  ARG225      0.1729
     95  C        113.2620   21.0350  145.3100 C.2   225  ARG225      0.2616
     96  O        112.8530   20.0830  145.9800 O.2   225  ARG225     -0.2715
     97  CB       114.9580   22.4180  146.6570 C.3   225  ARG225      0.0348
     98  CG       114.3320   23.8110  146.5440 C.3   225  ARG225      0.0492
     99  CD       114.7120   24.7240  147.7430 C.3   225  ARG225      0.2205
    100  NE       114.1130   26.0620  147.6600 N.pl3 225  ARG225     -0.0865
    101  CZ       114.4020   27.0660  148.4930 C.cat 225  ARG225      0.5346
    102  NH1      115.2570   26.8810  149.4960 N.pl3 225  ARG225      0.1354
    103  NH2      113.8210   28.2430  148.3450 N.pl3 225  ARG225      0.1354
    104  N        112.4970   21.6900  144.4210 N.am  226  ALA226     -0.1977
    105  CA       111.0860   21.3090  144.1630 C.3   226  ALA226      0.1597
    106  C        111.0410   20.0450  143.2890 C.2   226  ALA226      0.2287
    107  O        112.0620   19.6250  142.7500 O.2   226  ALA226     -0.2864
    108  CB       110.3240   22.4640  143.5130 C.3   226  ALA226      0.0319
    109  N        103.6100   34.0300  138.7140 N.3   269  ASN269     -0.1225
    110  CA       104.8790   34.7560  138.5740 C.3   269  ASN269      0.1785
    111  C        106.1910   34.1210  139.0790 C.2   269  ASN269      0.2597
    112  O        107.2620   34.3990  138.5410 O.2   269  ASN269     -0.2718
    113  CB       104.7380   36.1630  139.1660 C.3   269  ASN269      0.1169
    114  CG       105.9000   37.0680  138.8050 C.2   269  ASN269      0.2627
    115  OD1      106.4990   36.9320  137.7380 O.2   269  ASN269     -0.2716
    116  ND2      106.2240   37.9980  139.6950 N.am  269  ASN269     -0.0877
    117  N        106.0970   33.3270  140.1820 N.am  270  TYR270     -0.1962
    118  CA       107.2760   32.7820  140.8890 C.3   270  TYR270      0.1771
    119  C        107.4080   31.2630  140.8260 C.2   270  TYR270      0.2620
    120  O        106.3860   30.5460  141.0000 O.2   270  TYR270     -0.2715
    121  CB       107.2120   33.2060  142.3660 C.3   270  TYR270      0.0574
    122  CG       107.3230   34.6970  142.5260 C.ar  270  TYR270     -0.0198
    123  CD1      108.5710   35.3300  142.3690 C.ar  270  TYR270     -0.0009
    124  CD2      106.2140   35.4750  142.8640 C.ar  270  TYR270     -0.0009
    125  CE1      108.6990   36.7190  142.5200 C.ar  270  TYR270      0.0417
    126  CE2      106.3280   36.8680  143.0310 C.ar  270  TYR270      0.0417
    127  CZ       107.5790   37.4760  142.8440 C.ar  270  TYR270      0.1957
    128  OH       107.7160   38.8270  142.9790 O.3   270  TYR270     -0.2866
    129  N        108.6480   30.7990  140.6240 N.am  271  SER271     -0.1936
    130  CA       109.0150   29.3870  140.5260 C.3   271  SER271      0.2055
    131  C        108.1810   28.6560  139.4660 C.2   271  SER271      0.2642
    132  O        107.7300   27.5260  139.6810 O.2   271  SER271     -0.2714
    133  CB       108.8390   28.6730  141.8990 C.3   271  SER271      0.2130
    134  OG       109.5750   29.3520  142.8960 O.3   271  SER271     -0.2179
    135  N        107.9820   29.3150  138.3310 N.am  272  VAL272     -0.1977
    136  CA       107.1660   28.7540  137.2530 C.3   272  VAL272      0.1596
    137  C        107.8200   29.0350  135.9180 C.2   272  VAL272      0.2287
    138  O        108.6270   29.9710  135.7860 O.2   272  VAL272     -0.2864
    139  CB       105.7130   29.3180  137.2480 C.3   272  VAL272      0.0276
    140  CG1      104.9110   28.7240  138.4270 C.3   272  VAL272      0.0022
    141  CG2      105.7010   30.8470  137.2850 C.3   272  VAL272      0.0022
    142  N        118.9190   19.3520  146.9790 N.3   303  THR303     -0.1203
    143  CA       119.4010   20.5530  147.6870 C.3   303  THR303      0.1994
    144  C        120.9380   20.5520  147.7680 C.2   303  THR303      0.2617
    145  O        121.5530   19.5110  148.0230 O.2   303  THR303     -0.2717
    146  CB       118.8130   20.5990  149.1300 C.3   303  THR303      0.1784
    147  OG1      117.3890   20.7110  149.0620 O.3   303  THR303     -0.2211
    148  CG2      119.3830   21.7670  149.9640 C.3   303  THR303      0.0376
    149  N        121.5520   21.7170  147.5390 N.am  304  VAL304     -0.1979
    150  CA       122.9860   21.8700  147.7350 C.3   304  VAL304      0.1595
    151  C        123.2480   22.0440  149.2330 C.2   304  VAL304      0.2287
    152  O        122.8560   23.0470  149.8050 O.2   304  VAL304     -0.2864
    153  CB       123.5820   23.0580  146.9460 C.3   304  VAL304      0.0276
    154  CG1      125.1090   23.0880  147.1440 C.3   304  VAL304      0.0022
    155  CG2      123.2820   22.9090  145.4710 C.3   304  VAL304      0.0022
    156  N        120.3080   30.4090  139.3430 N.3   337  ALA337     -0.1231
    157  CA       119.1320   30.9650  138.6860 C.3   337  ALA337      0.1694
    158  C        118.0450   31.0760  139.7620 C.2   337  ALA337      0.2593
    159  O        116.9280   30.5390  139.6790 O.2   337  ALA337     -0.2718
    160  CB       118.7370   30.1040  137.4920 C.3   337  ALA337      0.0304
    161  N        118.4110   31.8190  140.7930 N.am  338  THR338     -0.1939
    162  CA       117.7130   31.8010  142.0600 C.3   338  THR338      0.2028
    163  C        116.8820   33.0860  142.3260 C.2   338  THR338      0.2643
    164  O        116.3780   33.2940  143.4170 O.2   338  THR338     -0.2714
    165  CB       118.7420   31.4740  143.1860 C.3   338  THR338      0.1808
    166  OG1      119.9160   32.2640  142.9860 O.3   338  THR338     -0.2208
    167  CG2      119.1650   30.0010  143.1000 C.3   338  THR338      0.0379
    168  N        116.7130   33.9410  141.3180 N.am  339  GLY339     -0.1939
    169  CA       115.7740   35.0740  141.4390 C.3   339  GLY339      0.2014
    170  C        116.3730   36.2520  142.2080 C.2   339  GLY339      0.2638
    171  O        117.5870   36.3670  142.3000 O.2   339  GLY339     -0.2714
    172  N        115.5140   37.1080  142.7560 N.am  340  TYR340     -0.1973
    173  CA       115.9410   38.4360  143.2190 C.3   340  TYR340      0.1639
    174  C        115.2160   38.7270  144.4960 C.2   340  TYR340      0.2290
    175  O        114.1000   38.2380  144.7090 O.2   340  TYR340     -0.2864
    176  CB       115.6070   39.5360  142.1620 C.3   340  TYR340      0.0560
    177  CG       116.3210   39.3180  140.8260 C.ar  340  TYR340     -0.0198
    178  CD1      115.7640   38.4820  139.8460 C.ar  340  TYR340     -0.0009
    179  CD2      117.5460   39.9390  140.5370 C.ar  340  TYR340     -0.0009
    180  CE1      116.4010   38.2520  138.6390 C.ar  340  TYR340      0.0417
    181  CE2      118.2120   39.7100  139.3090 C.ar  340  TYR340      0.0417
    182  CZ       117.6220   38.8600  138.3560 C.ar  340  TYR340      0.1957
    183  OH       118.2290   38.6070  137.1170 O.3   340  TYR340     -0.2866
@<TRIPOS>BOND
     1     1     2    1
     2     2     3    1
     3     2     5    1
     4     3     4    2
     5    65    63   am
     6     6     5    1
     7     6     7    1
     8    63    64    2
     9    63    62    1
    10     7     8    2
    11     7     9   am
    12    62    61    1
    13    60    59    2
    14    75    74    2
    15    69    68    2
    16    59    58    1
    17    59    66   am
    18    61    58    1
    19    74    73    1
    20    58    57    1
    21    68    67    1
    22    68    72   am
    23    67    66    1
    24    67    70    1
    25    73    72    1
    26    73    76    1
    27    71    70    1
    28    56    55    2
    29    57    55   am
    30   138   137    2
    31   137   136    1
    32    55    54    1
    33   183   182    1
    34   139   136    1
    35   139   141    1
    36   139   140    1
    37   136   135    1
    38    54    53    1
    39   160   157    1
    40    52    51    2
    41   115   114    2
    42    53    51   am
    43    51    50    1
    44   135   131   am
    45   182   180   ar
    46   182   181   ar
    47   112   111    2
    48   110   109    1
    49   110   111    1
    50   110   113    1
    51    48    47    2
    52   180   178   ar
    53   157   156    1
    54   157   158    1
    55    50    49    1
    56   114   113    1
    57   114   116   am
    58    77    78    1
    59    92    90    1
    60   111   117   am
    61   181   179   ar
    62    47    49   am
    63    47    46    1
    64    37    38    1
    65   131   132    2
    66   131   130    1
    67   159   158    2
    68    91    90    1
    69   158   161   am
    70   178   177   ar
    71    40    39    2
    72    90    89    1
    73   117   118    1
    74    82    84    1
    75    82    81    1
    76    46    45    1
    77    78    79    1
    78    78    81    1
    79    39    45   am
    80    39    38    1
    81   130   129    1
    82   130   133    1
    83   179   177   ar
    84   129   119   am
    85    38    41    1
    86   161   162    1
    87   177   176    1
    88   119   118    1
    89   119   120    2
    90   118   121    1
    91    89    86    1
    92    79    85   am
    93    79    80    2
    94    81    83    1
    95    85    86    1
    96   168   169    1
    97   168   163   am
    98   169   170    1
    99    44    42    1
   100   133   134    1
   101    86    87    1
   102    41    42    1
   103    41    43    1
   104   162   163    1
   105   162   165    1
   106   176   173    1
   107   170   171    2
   108   170   172   am
   109   163   164    2
   110   121   122    1
   111   123   125   ar
   112   123   122   ar
   113   125   127   ar
   114   122   124   ar
   115   107   106    2
   116   172   173    1
   117   127   128    1
   118   127   126   ar
   119   124   126   ar
   120   166   165    1
   121   167   165    1
   122    88    87    2
   123    87    93   am
   124   173   174    1
   125   106   105    1
   126   108   105    1
   127   105   104    1
   128    93    94    1
   129    10    11    1
   130   104    95   am
   131   174   175    2
   132    13    12    2
   133    19    18    1
   134    95    94    1
   135    95    96    2
   136    94    97    1
   137   155   153    1
   138    12    11    1
   139    11    14    1
   140    14    15    1
   141    27    26    1
   142    27    21    1
   143    18    20    1
   144    18    17    2
   145    26    25    1
   146    98    97    1
   147    98    99    1
   148   153   154    1
   149   153   150    1
   150   142   143    1
   151    16    15    1
   152    16    17    1
   153    21    22    1
   154   149   150    1
   155   149   144   am
   156   100    99    1
   157   100   101    2
   158   143   144    1
   159   143   146    1
   160   150   151    1
   161   144   145    2
   162    25    22    1
   163   103   101    1
   164   101   102    1
   165    22    23    1
   166   147   146    1
   167    24    23    2
   168   146   148    1
   169   151   152    2
   170    23    28   am
   171    28    29    1
   172    30    31    2
   173    30    29    1
   174    29    32    1
   175    32    33    1
   176    33    34    1
   177    35    34    2
   178    34    36   am
