@<TRIPOS>MOLECULE
tmp/3s5wA02.pdb
 205 199 0 0 0
SMALL
GASTEIGER

@<TRIPOS>ATOM
      1  N         89.6370   13.8520  129.2900 N.3    56  GLN56      -0.1245
      2  CA        90.7100   14.6510  129.8890 C.3    56  GLN56       0.1566
      3  C         91.9570   13.8320  130.1270 C.2    56  GLN56       0.2260
      4  O         92.7160   14.0970  131.0740 O.2    56  GLN56      -0.2867
      5  CB        90.2550   15.2330  131.2090 C.3    56  GLN56       0.0367
      6  CG        88.8710   15.7170  131.1540 C.3    56  GLN56       0.0905
      7  CD        88.6190   16.6300  132.2750 C.2    56  GLN56       0.2608
      8  OE1       89.1890   17.7290  132.3370 O.2    56  GLN56      -0.2717
      9  NE2       87.7940   16.1840  133.2140 N.am   56  GLN56      -0.0878
     10  N         78.6350   14.3970  145.5770 N.3   165  ARG165     -0.1245
     11  CA        78.8050   15.2500  146.7560 C.3   165  ARG165      0.1563
     12  C         77.7600   16.3610  146.7560 C.2   165  ARG165      0.2260
     13  O         77.6640   17.1260  145.7930 O.2   165  ARG165     -0.2867
     14  CB        80.2080   15.8640  146.7660 C.3   165  ARG165      0.0307
     15  CG        80.4710   16.7840  147.9660 C.3   165  ARG165      0.0489
     16  CD        81.7650   17.5690  147.8170 C.3   165  ARG165      0.2205
     17  NE        82.9290   16.7200  148.0090 N.pl3 165  ARG165     -0.0865
     18  CZ        83.9250   16.5990  147.1380 C.cat 165  ARG165      0.5346
     19  NH1       83.9120   17.2470  145.9720 N.pl3 165  ARG165      0.1354
     20  NH2       84.9380   15.8050  147.4390 N.pl3 165  ARG165      0.1354
     21  N         76.5120   19.7470  148.7920 N.3   167  PRO167     -0.2102
     22  CA        76.7820   20.6690  149.9240 C.3   167  PRO167      0.1504
     23  C         75.6070   20.6260  150.9200 C.2   167  PRO167      0.2575
     24  O         74.4520   20.4510  150.5120 O.2   167  PRO167     -0.2718
     25  CB        76.8420   22.0460  149.2650 C.3   167  PRO167      0.0282
     26  CG        77.2800   21.7500  147.8400 C.3   167  PRO167      0.0208
     27  CD        76.4650   20.4800  147.5160 C.3   167  PRO167      0.0893
     28  N         75.9010   20.7930  152.2080 N.am  168  GLN168     -0.1980
     29  CA        74.8720   20.5750  153.2240 C.3   168  GLN168      0.1601
     30  C         73.6370   21.4360  153.0210 C.2   168  GLN168      0.2287
     31  O         72.5100   20.9710  153.2130 O.2   168  GLN168     -0.2864
     32  CB        75.4360   20.6740  154.6500 C.3   168  GLN168      0.0394
     33  CG        74.4330   20.1430  155.7360 C.3   168  GLN168      0.0908
     34  CD        73.3120   21.1480  156.0060 C.2   168  GLN168      0.2608
     35  OE1       73.5110   22.3540  155.8450 O.2   168  GLN168     -0.2717
     36  NE2       72.1350   20.6590  156.4290 N.am  168  GLN168     -0.0878
     37  N         76.4000   25.4940  140.7120 N.3   198  ILE198     -0.1231
     38  CA        77.3110   25.5550  141.8770 C.3   198  ILE198      0.1692
     39  C         78.6190   24.7930  141.6050 C.2   198  ILE198      0.2593
     40  O         78.5950   23.5960  141.3510 O.2   198  ILE198     -0.2718
     41  CB        76.6340   24.9920  143.1690 C.3   198  ILE198      0.0266
     42  CG1       75.1980   25.5720  143.3450 C.3   198  ILE198      0.0019
     43  CG2       77.5640   25.1700  144.4180 C.3   198  ILE198      0.0020
     44  CD1       75.0540   27.1230  143.2620 C.3   198  ILE198      0.0001
     45  N         79.7590   25.4870  141.7010 N.am  199  GLY199     -0.1942
     46  CA        81.0780   24.8510  141.5360 C.3   199  GLY199      0.2014
     47  C         81.9140   25.5690  140.4810 C.2   199  GLY199      0.2639
     48  O         81.4130   26.4230  139.7220 O.2   199  GLY199     -0.2714
     49  N         83.1770   25.1900  140.3980 N.am  200  GLY200     -0.1939
     50  CA        84.1180   25.8840  139.5140 C.3   200  GLY200      0.2014
     51  C         85.1170   24.9440  138.8800 C.2   200  GLY200      0.2639
     52  O         86.1540   25.3960  138.4320 O.2   200  GLY200     -0.2714
     53  N         84.7850   23.6450  138.8300 N.am  201  GLY201     -0.1939
     54  CA        85.6530   22.6530  138.2400 C.3   201  GLY201      0.2014
     55  C         85.1840   22.3330  136.8400 C.2   201  GLY201      0.2639
     56  O         84.3410   23.0260  136.2730 O.2   201  GLY201     -0.2714
     57  N         85.7260   21.2570  136.3050 N.am  202  GLN202     -0.1963
     58  CA        85.4720   20.8620  134.9140 C.3   202  GLN202      0.1733
     59  C         83.9860   20.6470  134.6740 C.2   202  GLN202      0.2617
     60  O         83.4650   21.0910  133.6480 O.2   202  GLN202     -0.2715
     61  CB        86.2680   19.5800  134.5920 C.3   202  GLN202      0.0408
     62  CG        86.1590   19.0600  133.1420 C.3   202  GLN202      0.0908
     63  CD        86.8590   19.9630  132.1610 C.2   202  GLN202      0.2608
     64  OE1       87.7690   20.7040  132.5330 O.2   202  GLN202     -0.2717
     65  NE2       86.4590   19.8990  130.8940 N.am  202  GLN202     -0.0878
     66  N         83.2940   20.0080  135.6250 N.am  203  SER203     -0.1936
     67  CA        81.8670   19.7220  135.4320 C.3   203  SER203      0.2055
     68  C         81.0540   20.9930  135.3830 C.2   203  SER203      0.2642
     69  O         80.1900   21.1260  134.5190 O.2   203  SER203     -0.2714
     70  CB        81.2960   18.7650  136.4810 C.3   203  SER203      0.2130
     71  OG        81.9050   17.5210  136.3590 O.3   203  SER203     -0.2179
     72  N         81.3410   21.9370  136.2970 N.am  204  ALA204     -0.1977
     73  CA        80.6620   23.2610  136.2720 C.3   204  ALA204      0.1597
     74  C         80.8980   23.9800  134.9300 C.2   204  ALA204      0.2287
     75  O         79.9750   24.5100  134.3350 O.2   204  ALA204     -0.2864
     76  CB        81.1510   24.1330  137.3990 C.3   204  ALA204      0.0319
     77  N         78.2780   29.9040  140.1490 N.3   223  ILE223     -0.1231
     78  CA        78.4300   30.3380  141.5300 C.3   223  ILE223      0.1692
     79  C         79.5250   29.5020  142.1660 C.2   223  ILE223      0.2592
     80  O         79.3230   28.3280  142.4660 O.2   223  ILE223     -0.2718
     81  CB        77.0890   30.2560  142.3240 C.3   223  ILE223      0.0266
     82  CG1       75.9980   31.0820  141.6110 C.3   223  ILE223      0.0019
     83  CG2       77.3080   30.6800  143.8160 C.3   223  ILE223      0.0020
     84  CD1       74.5920   30.9550  142.2100 C.3   223  ILE223      0.0001
     85  N         80.6880   30.1160  142.3890 N.am  224  LEU224     -0.1966
     86  CA        81.8100   29.3760  142.9320 C.3   224  LEU224      0.1728
     87  C         82.3980   30.1610  144.1030 C.2   224  LEU224      0.2616
     88  O         82.4610   31.4070  144.0670 O.2   224  LEU224     -0.2715
     89  CB        82.8860   29.0740  141.8620 C.3   224  LEU224      0.0311
     90  CG        83.6000   30.2510  141.1620 C.3   224  LEU224      0.0022
     91  CD1       84.9650   29.8140  140.6530 C.3   224  LEU224      0.0001
     92  CD2       82.7590   30.8120  140.0010 C.3   224  LEU224      0.0001
     93  N         82.7550   29.4280  145.1500 N.am  225  ARG225     -0.1963
     94  CA        83.3030   30.0670  146.3500 C.3   225  ARG225      0.1729
     95  C         84.7800   30.4820  146.1230 C.2   225  ARG225      0.2616
     96  O         85.2650   31.3920  146.7730 O.2   225  ARG225     -0.2715
     97  CB        83.1110   29.1830  147.5960 C.3   225  ARG225      0.0348
     98  CG        83.7210   27.8090  147.5050 C.3   225  ARG225      0.0492
     99  CD        83.4100   26.9200  148.7190 C.3   225  ARG225      0.2205
    100  NE        84.0490   25.6220  148.5290 N.pl3 225  ARG225     -0.0865
    101  CZ        83.9250   24.5850  149.3510 C.cat 225  ARG225      0.5346
    102  NH1       83.1610   24.6790  150.4250 N.pl3 225  ARG225      0.1354
    103  NH2       84.5570   23.4500  149.0880 N.pl3 225  ARG225      0.1354
    104  N         85.4690   29.8190  145.1940 N.am  226  ALA226     -0.1977
    105  CA        86.8480   30.1900  144.8510 C.3   226  ALA226      0.1597
    106  C         86.8730   31.4500  143.9760 C.2   226  ALA226      0.2287
    107  O         85.8300   31.9160  143.5010 O.2   226  ALA226     -0.2864
    108  CB        87.5730   29.0110  144.1720 C.3   226  ALA226      0.0319
    109  N         94.0340   17.5250  139.1180 N.3   269  ASN269     -0.1225
    110  CA        92.7830   16.7730  139.0360 C.3   269  ASN269      0.1785
    111  C         91.5280   17.3690  139.6600 C.2   269  ASN269      0.2597
    112  O         90.4330   17.0120  139.2480 O.2   269  ASN269     -0.2718
    113  CB        92.9840   15.3520  139.5820 C.3   269  ASN269      0.1169
    114  CG        91.8320   14.4000  139.1810 C.2   269  ASN269      0.2627
    115  OD1       91.5870   14.1880  137.9920 O.2   269  ASN269     -0.2716
    116  ND2       91.0980   13.8650  140.1770 N.am  269  ASN269     -0.0877
    117  N         91.6580   18.2230  140.6690 N.am  270  TYR270     -0.1962
    118  CA        90.4890   18.6950  141.4070 C.3   270  TYR270      0.1771
    119  C         90.3720   20.2070  141.3440 C.2   270  TYR270      0.2620
    120  O         91.4100   20.9060  141.4230 O.2   270  TYR270     -0.2715
    121  CB        90.5960   18.2730  142.8870 C.3   270  TYR270      0.0574
    122  CG        90.5590   16.7800  143.0870 C.ar  270  TYR270     -0.0198
    123  CD1       89.3490   16.0840  142.9540 C.ar  270  TYR270     -0.0009
    124  CD2       91.7170   16.0620  143.4400 C.ar  270  TYR270     -0.0009
    125  CE1       89.2830   14.7190  143.1360 C.ar  270  TYR270      0.0417
    126  CE2       91.6730   14.6690  143.6280 C.ar  270  TYR270      0.0417
    127  CZ        90.4380   14.0080  143.4750 C.ar  270  TYR270      0.1957
    128  OH        90.3290   12.6450  143.6450 O.3   270  TYR270     -0.2866
    129  N         89.1230   20.6910  141.2050 N.am  271  SER271     -0.1936
    130  CA        88.7770   22.1250  141.1520 C.3   271  SER271      0.2055
    131  C         89.5140   22.8590  140.0250 C.2   271  SER271      0.2642
    132  O         89.9360   24.0300  140.1830 O.2   271  SER271     -0.2714
    133  CB        89.0780   22.8230  142.4940 C.3   271  SER271      0.2130
    134  OG        88.3950   22.1830  143.5630 O.3   271  SER271     -0.2179
    135  N         89.6670   22.1780  138.8930 N.am  272  VAL272     -0.1977
    136  CA        90.3930   22.7690  137.7730 C.3   272  VAL272      0.1596
    137  C         89.6340   22.4310  136.4830 C.2   272  VAL272      0.2287
    138  O         88.8170   21.4910  136.4420 O.2   272  VAL272     -0.2864
    139  CB        91.8420   22.2620  137.6690 C.3   272  VAL272      0.0276
    140  CG1       92.7630   22.8850  138.7770 C.3   272  VAL272      0.0022
    141  CG2       91.9240   20.6990  137.6570 C.3   272  VAL272      0.0022
    142  N         81.6430   33.4160  145.9420 N.3   302  THR302     -0.1203
    143  CA        80.2510   33.4620  146.3610 C.3   302  THR302      0.1994
    144  C         79.8670   32.1190  146.9750 C.2   302  THR302      0.2619
    145  O         80.1920   31.0400  146.4250 O.2   302  THR302     -0.2717
    146  CB        79.3030   33.8260  145.1940 C.3   302  THR302      0.1784
    147  OG1       79.6050   35.1340  144.7080 O.3   302  THR302     -0.2211
    148  CG2       77.8480   33.8160  145.6230 C.3   302  THR302      0.0376
    149  N         79.1920   32.1970  148.1280 N.am  303  THR303     -0.1938
    150  CA        78.7900   31.0190  148.8860 C.3   303  THR303      0.2028
    151  C         77.2840   31.0160  149.0190 C.2   303  THR303      0.2642
    152  O         76.7000   32.0420  149.3310 O.2   303  THR303     -0.2714
    153  CB        79.4550   31.0170  150.3110 C.3   303  THR303      0.1808
    154  OG1       80.8800   31.0000  150.1500 O.3   303  THR303     -0.2208
    155  CG2       79.0360   29.7900  151.1500 C.3   303  THR303      0.0379
    156  N         76.6620   29.8530  148.7830 N.am  304  VAL304     -0.1977
    157  CA        75.2470   29.6890  149.0960 C.3   304  VAL304      0.1596
    158  C         75.0760   29.5290  150.6110 C.2   304  VAL304      0.2287
    159  O         75.4950   28.5330  151.1820 O.2   304  VAL304     -0.2864
    160  CB        74.6110   28.4760  148.3700 C.3   304  VAL304      0.0276
    161  CG1       73.1010   28.4480  148.7000 C.3   304  VAL304      0.0022
    162  CG2       74.8090   28.5980  146.8510 C.3   304  VAL304      0.0022
    163  N         77.4000   21.1120  140.5360 N.3   337  ALA337     -0.1231
    164  CA        78.5540   20.5560  139.8280 C.3   337  ALA337      0.1694
    165  C         79.6810   20.4600  140.8510 C.2   337  ALA337      0.2593
    166  O         80.7710   21.0600  140.7020 O.2   337  ALA337     -0.2718
    167  CB        78.9130   21.4730  138.6320 C.3   337  ALA337      0.0304
    168  N         79.4110   19.6840  141.9030 N.am  338  THR338     -0.1939
    169  CA        80.1840   19.7560  143.1570 C.3   338  THR338      0.2028
    170  C         81.0010   18.4910  143.3790 C.2   338  THR338      0.2643
    171  O         81.5750   18.2730  144.4730 O.2   338  THR338     -0.2714
    172  CB        79.2500   20.0730  144.3790 C.3   338  THR338      0.1808
    173  OG1       78.0760   19.2640  144.2800 O.3   338  THR338     -0.2208
    174  CG2       78.7920   21.5380  144.3450 C.3   338  THR338      0.0379
    175  N         81.0630   17.6320  142.3530 N.am  339  GLY339     -0.1939
    176  CA        81.9880   16.4860  142.4140 C.3   339  GLY339      0.2014
    177  C         81.4860   15.3080  143.2340 C.2   339  GLY339      0.2638
    178  O         80.2970   15.1500  143.4150 O.2   339  GLY339     -0.2714
    179  N         82.4060   14.4640  143.7050 N.am  340  TYR340     -0.1973
    180  CA        82.0290   13.1180  144.2030 C.3   340  TYR340      0.1639
    181  C         82.8220   12.8380  145.4530 C.2   340  TYR340      0.2290
    182  O         83.9070   13.3990  145.6410 O.2   340  TYR340     -0.2864
    183  CB        82.3010   12.0030  143.1460 C.3   340  TYR340      0.0560
    184  CG        81.5370   12.2170  141.8770 C.ar  340  TYR340     -0.0198
    185  CD1       81.9670   13.1760  140.9500 C.ar  340  TYR340     -0.0009
    186  CD2       80.3480   11.5280  141.6130 C.ar  340  TYR340     -0.0009
    187  CE1       81.2410   13.4330  139.7890 C.ar  340  TYR340      0.0417
    188  CE2       79.6160   11.7760  140.4350 C.ar  340  TYR340      0.0417
    189  CZ        80.0860   12.7120  139.5400 C.ar  340  TYR340      0.1957
    190  OH        79.3850   12.9710  138.4150 O.3   340  TYR340     -0.2866
    191  N         91.3830    7.2800  141.2040 N.3   389  THR389     -0.1203
    192  CA        89.9900    7.4220  140.7440 C.3   389  THR389      0.1994
    193  C         89.8340    7.6270  139.2310 C.2   389  THR389      0.2617
    194  O         88.7260    7.9120  138.7670 O.2   389  THR389     -0.2717
    195  CB        89.3030    8.6210  141.4230 C.3   389  THR389      0.1784
    196  OG1       89.9040    9.8420  140.9660 O.3   389  THR389     -0.2211
    197  CG2       89.4070    8.4950  142.9610 C.3   389  THR389      0.0376
    198  N         90.9280    7.5050  138.4780 N.am  390  LEU390     -0.1979
    199  CA        90.9110    7.9010  137.0460 C.3   390  LEU390      0.1596
    200  C         91.0820    6.6930  136.1430 C.2   390  LEU390      0.2287
    201  O         91.0980    5.5490  136.6130 O.2   390  LEU390     -0.2864
    202  CB        92.0290    8.9280  136.7740 C.3   390  LEU390      0.0297
    203  CG        92.0180   10.2120  137.6060 C.3   390  LEU390      0.0022
    204  CD1       93.2240   11.0800  137.2380 C.3   390  LEU390      0.0001
    205  CD2       90.7290   11.0030  137.4100 C.3   390  LEU390      0.0001
@<TRIPOS>BOND
     1     1     2    1
     2     2     3    1
     3     2     5    1
     4     3     4    2
     5    65    63   am
     6     6     5    1
     7     6     7    1
     8    63    64    2
     9    63    62    1
    10     7     8    2
    11     7     9   am
    12    62    61    1
    13    60    59    2
    14    75    74    2
    15    69    68    2
    16    61    58    1
    17    59    58    1
    18    59    66   am
    19    58    57    1
    20    74    73    1
    21    68    67    1
    22    68    72   am
    23    67    66    1
    24    67    70    1
    25   200   201    2
    26   200   199    1
    27    73    72    1
    28    73    76    1
    29    56    55    2
    30    57    55   am
    31    71    70    1
    32   138   137    2
    33   137   136    1
    34   202   199    1
    35   202   203    1
    36    55    54    1
    37   199   198    1
    38   204   203    1
    39   205   203    1
    40   141   139    1
    41   139   136    1
    42   139   140    1
    43   136   135    1
    44   115   114    2
    45    54    53    1
    46   190   189    1
    47    52    51    2
    48   198   193   am
    49   167   164    1
    50   194   193    2
    51    53    51   am
    52    51    50    1
    53   135   131   am
    54   110   109    1
    55   110   113    1
    56   110   111    1
    57   114   113    1
    58   114   116   am
    59   193   192    1
    60   112   111    2
    61    50    49    1
    62   189   187   ar
    63   189   188   ar
    64   111   117   am
    65    48    47    2
    66   187   185   ar
    67   164   163    1
    68   164   165    1
    69    92    90    1
    70   131   132    2
    71   131   130    1
    72    77    78    1
    73    49    47   am
    74   188   186   ar
    75    47    46    1
    76    91    90    1
    77   117   118    1
    78   166   165    2
    79    37    38    1
    80   192   191    1
    81   192   195    1
    82   165   168   am
    83   185   184   ar
    84   196   195    1
    85   130   129    1
    86   130   133    1
    87    90    89    1
    88   129   119   am
    89   119   118    1
    90   119   120    2
    91    40    39    2
    92   118   121    1
    93   195   197    1
    94    78    79    1
    95    78    81    1
    96    46    45    1
    97    39    45   am
    98    39    38    1
    99    82    84    1
   100    82    81    1
   101   186   184   ar
   102    89    86    1
   103    38    41    1
   104   184   183    1
   105   168   169    1
   106    79    85   am
   107    79    80    2
   108    81    83    1
   109   175   176    1
   110   175   170   am
   111    85    86    1
   112   176   177    1
   113   133   134    1
   114   121   122    1
   115    86    87    1
   116   123   122   ar
   117   123   125   ar
   118   122   124   ar
   119   125   127   ar
   120   183   180    1
   121   169   170    1
   122   169   172    1
   123    41    42    1
   124    41    43    1
   125   177   178    2
   126   177   179   am
   127    44    42    1
   128   170   171    2
   129   124   126   ar
   130   127   126   ar
   131   127   128    1
   132   107   106    2
   133   179   180    1
   134   106   105    1
   135    88    87    2
   136    87    93   am
   137   108   105    1
   138   180   181    1
   139   173   172    1
   140   174   172    1
   141   147   146    1
   142   105   104    1
   143    93    94    1
   144   104    95   am
   145   146   148    1
   146   146   143    1
   147   181   182    2
   148    10    11    1
   149    13    12    2
   150   142   143    1
   151    19    18    1
   152    95    94    1
   153    95    96    2
   154    94    97    1
   155   143   144    1
   156   145   144    2
   157    11    12    1
   158    11    14    1
   159    14    15    1
   160   162   160    1
   161   144   149   am
   162    18    20    1
   163    18    17    2
   164    98    97    1
   165    98    99    1
   166    27    26    1
   167    27    21    1
   168    16    15    1
   169    16    17    1
   170    26    25    1
   171   149   150    1
   172   160   161    1
   173   160   157    1
   174   100    99    1
   175   100   101    2
   176   156   151   am
   177   156   157    1
   178    21    22    1
   179   150   151    1
   180   150   153    1
   181   151   152    2
   182   103   101    1
   183   157   158    1
   184    25    22    1
   185   101   102    1
   186    22    23    1
   187   154   153    1
   188   153   155    1
   189    24    23    2
   190   158   159    2
   191    23    28   am
   192    28    29    1
   193    30    31    2
   194    30    29    1
   195    29    32    1
   196    32    33    1
   197    33    34    1
   198    35    34    2
   199    34    36   am
