@<TRIPOS>MOLECULE
tmp/3s5wB02.pdb
 96 89 0 0 0
SMALL
GASTEIGER

@<TRIPOS>ATOM
      1  N        107.3910   37.7220  128.6730 N.3    56  GLN56      -0.1231
      2  CA       106.3280   36.9280  129.3400 C.3    56  GLN56       0.1698
      3  C        105.1090   37.7820  129.6570 C.2    56  GLN56       0.2592
      4  O        104.4040   37.5820  130.6600 O.2    56  GLN56      -0.2718
      5  CB       106.8550   36.3030  130.6340 C.3    56  GLN56       0.0381
      6  CG       107.9750   35.2860  130.4080 C.3    56  GLN56       0.0905
      7  CD       108.3540   34.6500  131.7220 C.2    56  GLN56       0.2608
      8  OE1      107.8200   33.5870  132.0860 O.2    56  GLN56      -0.2717
      9  NE2      109.2350   35.3240  132.4790 N.am   56  GLN56      -0.0878
     10  N        104.8350   38.7250  128.7760 N.am   57  ILE57      -0.1966
     11  CA       103.7120   39.6150  128.9660 C.3    57  ILE57       0.1727
     12  C        103.3500   40.0800  127.5530 C.2    57  ILE57       0.2616
     13  O        104.2170   40.0720  126.6800 O.2    57  ILE57      -0.2715
     14  CB       104.1000   40.7970  129.9110 C.3    57  ILE57       0.0290
     15  CG1      102.8640   41.4530  130.5090 C.3    57  ILE57       0.0022
     16  CG2      104.9930   41.8550  129.1810 C.3    57  ILE57       0.0023
     17  CD1      103.1840   42.4740  131.6310 C.3    57  ILE57       0.0001
     18  N        102.0890   40.4340  127.3360 N.am   58  SER58      -0.1950
     19  CA       101.6290   40.9540  126.0140 C.3    58  SER58       0.1924
     20  C        102.3430   42.2700  125.6580 C.2    58  SER58       0.2314
     21  O        102.5390   43.1070  126.5190 O.2    58  SER58      -0.2863
     22  CB       100.1210   41.2030  126.0400 C.3    58  SER58       0.2116
     23  OG        99.6530   41.8220  124.8410 O.3    58  SER58      -0.2180
     24  N        101.0860   45.5680  127.0010 N.3    61  LYS61      -0.1245
     25  CA       101.4560   46.0600  128.3240 C.3    61  LYS61       0.1561
     26  C        102.8130   46.7630  128.2790 C.2    61  LYS61       0.2260
     27  O        103.6700   46.5340  129.1410 O.2    61  LYS61      -0.2867
     28  CB       101.3970   44.9410  129.3710 C.3    61  LYS61       0.0271
     29  CG        99.9570   44.4020  129.5440 C.3    61  LYS61       0.0035
     30  CD        99.7720   43.7550  130.9130 C.3    61  LYS61       0.0206
     31  CE        98.4190   43.0610  131.0130 C.3    61  LYS61       0.1093
     32  NZ        98.2240   42.6560  132.4440 N.3    61  LYS61      -0.1314
     33  N        100.9040   30.4070  135.4160 N.3   233  ASP233     -0.1225
     34  CA        99.4760   30.6160  135.1590 C.3   233  ASP233      0.1805
     35  C         99.2010   32.0150  134.5800 C.2   233  ASP233      0.2597
     36  O         99.3160   33.0500  135.2800 O.2   233  ASP233     -0.2718
     37  CB        98.7020   30.4270  136.4400 C.3   233  ASP233      0.1424
     38  CG        97.2120   30.2040  136.2040 C.2   233  ASP233      0.3668
     39  OD1       96.7030   30.5210  135.0990 O.co2 233  ASP233     -0.2456
     40  OD2       96.5420   29.7650  137.1590 O.co2 233  ASP233     -0.2456
     41  N         98.8480   32.0380  133.3010 N.am  234  ASP234     -0.1974
     42  CA        98.3490   33.2670  132.6640 C.3   234  ASP234      0.1709
     43  C         96.9550   33.0450  132.0920 C.2   234  ASP234      0.2293
     44  O         96.5140   33.7810  131.2000 O.2   234  ASP234     -0.2864
     45  CB        99.3050   33.7800  131.5720 C.3   234  ASP234      0.1436
     46  CG        99.4480   32.8170  130.3940 C.2   234  ASP234      0.3671
     47  OD1       99.0490   31.6420  130.4910 O.co2 234  ASP234     -0.2456
     48  OD2       99.9950   33.2630  129.3580 O.co2 234  ASP234     -0.2456
     49  N         94.5670   35.8630  135.3270 N.3   239  ASN239     -0.1240
     50  CA        95.4060   36.9800  134.8850 C.3   239  ASN239      0.1653
     51  C         94.8480   38.3740  135.2490 C.2   239  ASN239      0.2266
     52  O         95.5680   39.3970  135.2160 O.2   239  ASN239     -0.2867
     53  CB        95.7090   36.8420  133.3830 C.3   239  ASN239      0.1155
     54  CG        97.0890   37.4100  133.0100 C.2   239  ASN239      0.2627
     55  OD1       98.1070   36.9850  133.5390 O.2   239  ASN239     -0.2716
     56  ND2       97.0990   38.3840  132.1070 N.am  239  ASN239     -0.0877
     57  N         96.5970   40.8650  137.6280 N.3   242  PHE242     -0.1241
     58  CA        97.5770   41.8670  137.1410 C.3   242  PHE242      0.1605
     59  C         96.9530   43.1660  136.6810 C.2   242  PHE242      0.2264
     60  O         97.6770   44.1240  136.3430 O.2   242  PHE242     -0.2867
     61  CB        98.4460   41.2620  136.0320 C.3   242  PHE242      0.0534
     62  CG        99.2570   40.1040  136.5010 C.ar  242  PHE242     -0.0203
     63  CD1      100.4310   40.3060  137.2390 C.ar  242  PHE242     -0.0042
     64  CD2       98.8280   38.7970  136.2450 C.ar  242  PHE242     -0.0042
     65  CE1      101.2000   39.2230  137.6780 C.ar  242  PHE242     -0.0003
     66  CE2       99.5780   37.7050  136.6740 C.ar  242  PHE242     -0.0003
     67  CZ       100.7660   37.9160  137.4260 C.ar  242  PHE242     -0.0000
     68  N        101.5400   32.5630  139.3210 N.3   268  THR268     -0.1203
     69  CA       101.4030   33.4130  138.1220 C.3   268  THR268      0.1994
     70  C        102.7430   34.0850  137.7910 C.2   268  THR268      0.2617
     71  O        102.9070   34.6800  136.7320 O.2   268  THR268     -0.2717
     72  CB       100.3680   34.5420  138.3420 C.3   268  THR268      0.1784
     73  OG1      100.8140   35.3820  139.4200 O.3   268  THR268     -0.2211
     74  CG2       98.9560   33.9580  138.6400 C.3   268  THR268      0.0376
     75  N        103.6100   34.0300  138.7140 N.am  269  ASN269     -0.1974
     76  CA       104.8790   34.7560  138.5740 C.3   269  ASN269      0.1688
     77  C        106.1910   34.1210  139.0790 C.2   269  ASN269      0.2292
     78  O        107.2620   34.3990  138.5410 O.2   269  ASN269     -0.2864
     79  CB       104.7380   36.1630  139.1660 C.3   269  ASN269      0.1181
     80  CG       105.9000   37.0680  138.8050 C.2   269  ASN269      0.2629
     81  OD1      106.4990   36.9320  137.7380 O.2   269  ASN269     -0.2716
     82  ND2      106.2240   37.9980  139.6950 N.am  269  ASN269     -0.0877
     83  N        106.7970   43.9900  137.9150 N.3   393  LEU393     -0.1245
     84  CA       106.6900   43.6160  136.5000 C.3   393  LEU393      0.1561
     85  C        106.4300   44.8510  135.6110 C.2   393  LEU393      0.2260
     86  O        106.4320   46.0100  136.0840 O.2   393  LEU393     -0.2867
     87  CB       105.5290   42.5860  136.3420 C.3   393  LEU393      0.0270
     88  CG       105.6270   41.2700  137.1220 C.3   393  LEU393      0.0019
     89  CD1      104.3820   40.3700  136.8530 C.3   393  LEU393      0.0001
     90  CD2      106.9410   40.5050  136.8390 C.3   393  LEU393      0.0001
     91  N        103.5420   45.0630  134.1860 N.3   395  SER395     -0.1217
     92  CA       102.0730   45.0130  134.0730 C.3   395  SER395      0.1889
     93  C        101.2790   46.2940  134.2580 C.2   395  SER395      0.2288
     94  O        100.3010   46.5460  133.5140 O.2   395  SER395     -0.2866
     95  CB       101.4840   43.9170  134.9950 C.3   395  SER395      0.2089
     96  OG       102.3400   42.7950  134.9430 O.3   395  SER395     -0.2183
@<TRIPOS>BOND
     1    23    22    1
     2    20    19    1
     3    20    21    2
     4    19    22    1
     5    19    18    1
     6    13    12    2
     7    24    25    1
     8    18    12   am
     9    12    11    1
    10    26    25    1
    11    26    27    2
    12    25    28    1
    13     1     2    1
    14    10    11    1
    15    10     3   am
    16    11    14    1
    17    16    14    1
    18     2     3    1
    19     2     5    1
    20    48    46   ar
    21    28    29    1
    22    29    30    1
    23     3     4    2
    24    14    15    1
    25    46    47   ar
    26    46    45    1
    27     6     5    1
    28     6     7    1
    29    15    17    1
    30    30    31    1
    31    31    32    1
    32    44    43    2
    33    45    42    1
    34     7     8    2
    35     7     9   am
    36    43    42    1
    37    56    54   am
    38    42    41    1
    39    54    53    1
    40    54    55    2
    41    41    35   am
    42    53    50    1
    43    94    93    2
    44    92    91    1
    45    92    93    1
    46    92    95    1
    47    35    34    1
    48    35    36    2
    49    50    51    1
    50    50    49    1
    51    96    95    1
    52    39    38   ar
    53    34    33    1
    54    34    37    1
    55    52    51    2
    56    85    86    2
    57    85    84    1
    58    61    62    1
    59    61    58    1
    60    38    37    1
    61    38    40   ar
    62    64    62   ar
    63    64    66   ar
    64    87    84    1
    65    87    88    1
    66    60    59    2
    67    84    83    1
    68    62    63   ar
    69    66    67   ar
    70    59    58    1
    71    71    70    2
    72    90    88    1
    73    89    88    1
    74    58    57    1
    75    63    65   ar
    76    67    65   ar
    77    81    80    2
    78    70    69    1
    79    70    75   am
    80    69    72    1
    81    69    68    1
    82    72    74    1
    83    72    73    1
    84    78    77    2
    85    76    75    1
    86    76    77    1
    87    76    79    1
    88    80    79    1
    89    80    82   am
