@<TRIPOS>MOLECULE
tmp/3s5yA01.pdb
 76 72 0 0 0
SMALL
GASTEIGER

@<TRIPOS>ATOM
      1  N         57.5100   10.6700   21.9520 N.3     1  LEU1       -0.1231
      2  CA        57.5110    9.1730   21.8990 C.3     1  LEU1        0.1693
      3  C         58.0130    8.7090   20.5360 C.2     1  LEU1        0.2592
      4  O         57.5320    9.1730   19.5020 O.2     1  LEU1       -0.2718
      5  CB        56.1050    8.6390   22.1830 C.3     1  LEU1        0.0284
      6  CG        55.7960    7.1530   21.9930 C.3     1  LEU1        0.0019
      7  CD1       56.7040    6.2780   22.8440 C.3     1  LEU1        0.0001
      8  CD2       54.3270    6.9050   22.3200 C.3     1  LEU1        0.0001
      9  N         58.9730    7.7860   20.5440 N.am    2  ASP2       -0.1960
     10  CA        59.6930    7.3910   19.3310 C.3     2  ASP2        0.1840
     11  C         59.0010    6.2140   18.6450 C.2     2  ASP2        0.2622
     12  O         59.5850    5.1430   18.4820 O.2     2  ASP2       -0.2715
     13  CB        61.1490    7.0400   19.6900 C.3     2  ASP2        0.1450
     14  CG        62.0590    6.9200   18.4690 C.2     2  ASP2        0.3671
     15  OD1       61.9190    7.7190   17.5200 O.co2   2  ASP2       -0.2456
     16  OD2       62.9340    6.0280   18.4710 O.co2   2  ASP2       -0.2456
     17  N         57.7510    6.4210   18.2450 N.am    3  ASN3       -0.1958
     18  CA        56.9750    5.3950   17.5510 C.3     3  ASN3        0.1819
     19  C         56.7690    5.7180   16.0690 C.2     3  ASN3        0.2621
     20  O         56.0270    5.0240   15.3810 O.2     3  ASN3       -0.2715
     21  CB        55.6300    5.1470   18.2590 C.3     3  ASN3        0.1195
     22  CG        54.7610    6.4000   18.3660 C.2     3  ASN3        0.2630
     23  OD1       55.1280    7.4690   17.8870 O.2     3  ASN3       -0.2716
     24  ND2       53.6030    6.2650   19.0070 N.am    3  ASN3       -0.0877
     25  N         57.4310    6.7680   15.5840 N.am    4  GLY4       -0.1954
     26  CA        57.2950    7.1990   14.1930 C.3     4  GLY4        0.1869
     27  C         56.0090    7.9620   13.8820 C.2     4  GLY4        0.2309
     28  O         55.7690    8.3200   12.7290 O.2     4  GLY4       -0.2863
     29  N         55.0470   13.1000   13.7140 N.3     7  ARG7       -0.1245
     30  CA        56.2840   13.7810   13.3180 C.3     7  ARG7        0.1563
     31  C         55.9910   15.2450   13.0280 C.2     7  ARG7        0.2260
     32  O         56.8990   16.0680   13.0230 O.2     7  ARG7       -0.2867
     33  CB        56.9370   13.1110   12.1020 C.3     7  ARG7        0.0307
     34  CG        57.2570   11.6250   12.2830 C.3     7  ARG7        0.0489
     35  CD        58.0080   11.3230   13.5830 C.3     7  ARG7        0.2205
     36  NE        59.3360   11.9360   13.6230 N.pl3   7  ARG7       -0.0865
     37  CZ        60.1720   11.8570   14.6590 C.cat   7  ARG7        0.5346
     38  NH1       59.8260   11.1940   15.7630 N.pl3   7  ARG7        0.1354
     39  NH2       61.3640   12.4440   14.5940 N.pl3   7  ARG7        0.1354
     40  N         52.5880   -0.1560   22.7650 N.3   161  ASN161     -0.1240
     41  CA        53.7180   -0.5640   21.9430 C.3   161  ASN161      0.1653
     42  C         53.7460   -2.0750   21.6890 C.2   161  ASN161      0.2266
     43  O         54.0000   -2.5210   20.5680 O.2   161  ASN161     -0.2867
     44  CB        55.0150   -0.1290   22.6060 C.3   161  ASN161      0.1155
     45  CG        56.2020   -0.3620   21.7350 C.2   161  ASN161      0.2627
     46  OD1       56.8100   -1.4270   21.7730 O.2   161  ASN161     -0.2716
     47  ND2       56.5380    0.6340   20.9240 N.am  161  ASN161     -0.0877
     48  N         51.8630   -3.9620   18.8050 N.3   164  GLY164     -0.1210
     49  CA        52.4390   -3.9300   17.4640 C.3   164  GLY164      0.1956
     50  C         51.7110   -2.9850   16.5240 C.2   164  GLY164      0.2612
     51  O         52.1350   -2.7980   15.3850 O.2   164  GLY164     -0.2717
     52  N         50.6130   -2.3880   16.9880 N.am  165  ARG165     -0.1965
     53  CA        49.8830   -1.4150   16.1910 C.3   165  ARG165      0.1729
     54  C         50.3790   -0.0060   16.5230 C.2   165  ARG165      0.2617
     55  O         50.5770    0.3370   17.6930 O.2   165  ARG165     -0.2715
     56  CB        48.3760   -1.5170   16.4390 C.3   165  ARG165      0.0348
     57  CG        47.5490   -0.6170   15.5230 C.3   165  ARG165      0.0492
     58  CD        46.0380   -0.7600   15.7340 C.3   165  ARG165      0.2205
     59  NE        45.2910   -0.0040   14.7200 N.pl3 165  ARG165     -0.0865
     60  CZ        45.0450   -0.4140   13.4710 C.cat 165  ARG165      0.5346
     61  NH1       45.4660   -1.6000   13.0340 N.pl3 165  ARG165      0.1354
     62  NH2       44.3640    0.3730   12.6420 N.pl3 165  ARG165      0.1354
     63  N         50.5840    0.7910   15.4810 N.am  166  SER166     -0.1936
     64  CA        50.9530    2.1960   15.6200 C.3   166  SER166      0.2055
     65  C         49.7790    2.9840   16.1810 C.2   166  SER166      0.2642
     66  O         48.7650    3.1470   15.4990 O.2   166  SER166     -0.2714
     67  CB        51.3450    2.7740   14.2560 C.3   166  SER166      0.2130
     68  OG        52.5720    2.2290   13.8190 O.3   166  SER166     -0.2179
     69  N         49.9060    3.4490   17.4250 N.am  167  ILE167     -0.1977
     70  CA        48.8430    4.2170   18.0670 C.3   167  ILE167      0.1596
     71  C         49.3990    5.5120   18.6520 C.2   167  ILE167      0.2287
     72  O         50.3150    5.4840   19.4690 O.2   167  ILE167     -0.2864
     73  CB        48.1110    3.3850   19.1480 C.3   167  ILE167      0.0276
     74  CG1       47.4060    2.1870   18.5000 C.3   167  ILE167      0.0022
     75  CG2       47.0790    4.2360   19.8970 C.3   167  ILE167      0.0022
     76  CD1       46.7990    1.2060   19.4830 C.3   167  ILE167      0.0001
@<TRIPOS>BOND
     1    33    34    1
     2    33    30    1
     3    34    35    1
     4    62    60    1
     5    28    27    2
     6    32    31    2
     7    31    30    1
     8    61    60    1
     9    30    29    1
    10    60    59    2
    11    35    36    1
    12    36    37    2
    13    68    67    1
    14    27    26    1
    15    26    25    1
    16    67    64    1
    17    39    37    1
    18    37    38    1
    19    59    58    1
    20    20    19    2
    21    51    50    2
    22    63    64    1
    23    63    54   am
    24    66    65    2
    25    57    58    1
    26    57    56    1
    27    25    19   am
    28    64    65    1
    29    19    18    1
    30    65    69   am
    31    53    56    1
    32    53    54    1
    33    53    52    1
    34    54    55    2
    35    50    52   am
    36    50    49    1
    37    69    70    1
    38    49    48    1
    39    15    14   ar
    40    18    17    1
    41    18    21    1
    42    23    22    2
    43    70    71    1
    44    70    73    1
    45    17    11   am
    46    21    22    1
    47    22    24   am
    48    14    16   ar
    49    14    13    1
    50    12    11    2
    51    74    73    1
    52    74    76    1
    53    11    10    1
    54    71    72    2
    55    73    75    1
    56    10    13    1
    57    10     9    1
    58     4     3    2
    59     3     9   am
    60     3     2    1
    61    43    42    2
    62    47    45   am
    63    42    41    1
    64    45    46    2
    65    45    44    1
    66     2     1    1
    67     2     5    1
    68    41    44    1
    69    41    40    1
    70     6     5    1
    71     6     8    1
    72     6     7    1
