@<TRIPOS>MOLECULE
tmp/3s5yB04.pdb
 101 96 0 0 0
SMALL
GASTEIGER

@<TRIPOS>ATOM
      1  N         11.6980   65.4400   28.6410 N.3     5  LEU5       -0.1245
      2  CA        12.5770   64.6730   27.7780 C.3     5  LEU5        0.1561
      3  C         12.7280   63.2480   28.3050 C.2     5  LEU5        0.2260
      4  O         12.3210   62.9330   29.4360 O.2     5  LEU5       -0.2867
      5  CB        13.9510   65.3490   27.6910 C.3     5  LEU5        0.0270
      6  CG        13.9370   66.7960   27.1880 C.3     5  LEU5        0.0019
      7  CD1       15.3360   67.3750   27.1920 C.3     5  LEU5        0.0001
      8  CD2       13.3240   66.8800   25.7900 C.3     5  LEU5        0.0001
      9  N         18.8900   59.0130   17.6080 N.3    56  GLU56      -0.1231
     10  CA        18.6790   60.4370   17.3530 C.3    56  GLU56       0.1699
     11  C         19.8130   61.3510   17.8260 C.2    56  GLU56       0.2592
     12  O         20.0470   62.3920   17.2220 O.2    56  GLU56      -0.2718
     13  CB        17.3550   60.8560   18.0050 C.3    56  GLU56       0.0402
     14  CG        16.9570   62.3240   17.8460 C.3    56  GLU56       0.1161
     15  CD        16.7200   62.7510   16.4040 C.2    56  GLU56       0.3649
     16  OE1       16.6280   61.8840   15.5030 O.co2  56  GLU56      -0.2457
     17  OE2       16.6140   63.9740   16.1780 O.co2  56  GLU56      -0.2457
     18  N         20.5050   60.9600   18.8930 N.am   57  TYR57      -0.1976
     19  CA        21.4820   61.8140   19.5540 C.3    57  TYR57       0.1639
     20  C         22.8970   61.4170   19.1620 C.2    57  TYR57       0.2290
     21  O         23.3440   60.3140   19.4710 O.2    57  TYR57      -0.2864
     22  CB        21.3180   61.7370   21.0850 C.3    57  TYR57       0.0560
     23  CG        20.1120   62.4780   21.6110 C.ar   57  TYR57      -0.0198
     24  CD1       20.2440   63.7330   22.2050 C.ar   57  TYR57      -0.0009
     25  CD2       18.8330   61.9410   21.4920 C.ar   57  TYR57      -0.0009
     26  CE1       19.1380   64.4300   22.6690 C.ar   57  TYR57       0.0417
     27  CE2       17.7150   62.6320   21.9600 C.ar   57  TYR57       0.0417
     28  CZ        17.8760   63.8770   22.5490 C.ar   57  TYR57       0.1957
     29  OH        16.7830   64.5700   23.0210 O.3    57  TYR57      -0.2866
     30  N         21.9150   69.4420   13.4150 N.3    94  HIS94      -0.1241
     31  CA        20.4780   69.7720   13.3960 C.3    94  HIS94       0.1621
     32  C         19.9030   69.8220   11.9820 C.2    94  HIS94       0.2264
     33  O         18.7150   69.5640   11.7890 O.2    94  HIS94      -0.2867
     34  CB        20.2080   71.1180   14.0610 C.3    94  HIS94       0.0745
     35  CG        20.4900   71.1440   15.5280 C.ar   94  HIS94       0.0817
     36  ND1       20.8210   72.3040   16.1940 N.ar   94  HIS94      -0.2268
     37  CD2       20.4960   70.1610   16.4590 C.ar   94  HIS94       0.1154
     38  CE1       21.0130   72.0350   17.4720 C.ar   94  HIS94       0.1986
     39  NE2       20.8180   70.7420   17.6600 N.ar   94  HIS94      -0.2212
     40  N         18.5160   66.5880   10.9310 N.3    97  GLY97      -0.1210
     41  CA        17.3980   66.1100   11.7420 C.3    97  GLY97       0.1956
     42  C         17.8350   65.4280   13.0340 C.2    97  GLY97       0.2612
     43  O         17.0120   64.8110   13.7190 O.2    97  GLY97      -0.2717
     44  N         19.1170   65.5470   13.3750 N.am   98  LEU98      -0.1965
     45  CA        19.6840   64.8740   14.5530 C.3    98  LEU98       0.1728
     46  C         19.8590   65.8540   15.7140 C.2    98  LEU98       0.2616
     47  O         19.6520   67.0600   15.5530 O.2    98  LEU98      -0.2715
     48  CB        21.0360   64.2450   14.2070 C.3    98  LEU98       0.0311
     49  CG        21.0370   63.1080   13.1800 C.3    98  LEU98       0.0022
     50  CD1       22.4670   62.7320   12.7870 C.3    98  LEU98       0.0001
     51  CD2       20.2790   61.8840   13.7070 C.3    98  LEU98       0.0001
     52  N         20.2300   65.3260   16.8800 N.am   99  LYS99      -0.1977
     53  CA        20.5690   66.1500   18.0390 C.3    99  LYS99       0.1596
     54  C         22.0270   65.9490   18.4500 C.2    99  LYS99       0.2287
     55  O         22.6170   64.8990   18.1820 O.2    99  LYS99      -0.2864
     56  CB        19.6320   65.8430   19.1950 C.3    99  LYS99       0.0298
     57  CG        18.1610   66.0080   18.8000 C.3    99  LYS99       0.0038
     58  CD        17.2810   66.4430   19.9310 C.3    99  LYS99       0.0206
     59  CE        15.8910   66.8680   19.4200 C.3    99  LYS99       0.1093
     60  NZ        14.9680   65.7190   19.2830 N.3    99  LYS99      -0.1314
     61  N         23.9760   75.6800   25.9410 N.3   129  ALA129     -0.1245
     62  CA        22.6780   76.1260   25.4020 C.3   129  ALA129      0.1562
     63  C         22.8400   77.1100   24.2430 C.2   129  ALA129      0.2260
     64  O         22.1050   77.0420   23.2570 O.2   129  ALA129     -0.2867
     65  CB        21.8150   76.7450   26.5020 C.3   129  ALA129      0.0290
     66  N         22.0380   69.5750   22.8470 N.3   134  ASP134     -0.1239
     67  CA        20.7550   68.9390   23.1590 C.3   134  ASP134      0.1674
     68  C         20.8250   67.8900   24.2620 C.2   134  ASP134      0.2266
     69  O         19.7800   67.4380   24.7600 O.2   134  ASP134     -0.2867
     70  CB        20.1940   68.2980   21.9030 C.3   134  ASP134      0.1410
     71  CG        20.0270   69.2930   20.7760 C.2   134  ASP134      0.3668
     72  OD1       19.2530   70.2490   20.9560 O.co2 134  ASP134     -0.2456
     73  OD2       20.6850   69.1240   19.7270 O.co2 134  ASP134     -0.2456
     74  N         18.6910   77.8590   31.4950 N.3   163  THR163     -0.1203
     75  CA        18.9940   78.3220   30.1410 C.3   163  THR163      0.1994
     76  C         17.7250   78.4420   29.2970 C.2   163  THR163      0.2618
     77  O         17.7100   79.1700   28.3130 O.2   163  THR163     -0.2717
     78  CB        19.9700   77.3940   29.3850 C.3   163  THR163      0.1784
     79  OG1       19.3180   76.1560   29.0700 O.3   163  THR163     -0.2211
     80  CG2       21.2250   77.1240   30.1930 C.3   163  THR163      0.0376
     81  N         16.6730   77.7110   29.6660 N.am  164  GLY164     -0.1942
     82  CA        15.4260   77.7010   28.8970 C.3   164  GLY164      0.2014
     83  C         15.4440   76.7000   27.7510 C.2   164  GLY164      0.2639
     84  O         14.4090   76.4580   27.1220 O.2   164  GLY164     -0.2714
     85  N         16.6160   76.1220   27.4680 N.am  165  ARG165     -0.1963
     86  CA        16.7540   75.1150   26.4200 C.3   165  ARG165      0.1729
     87  C         16.5800   73.7030   26.9790 C.2   165  ARG165      0.2616
     88  O         17.0610   73.3820   28.0730 O.2   165  ARG165     -0.2715
     89  CB        18.1180   75.2180   25.7300 C.3   165  ARG165      0.0348
     90  CG        18.2100   74.3680   24.4670 C.3   165  ARG165      0.0492
     91  CD        19.5810   74.4110   23.8140 C.3   165  ARG165      0.2205
     92  NE        19.6000   73.6170   22.5860 N.pl3 165  ARG165     -0.0865
     93  CZ        19.0820   73.9990   21.4150 C.cat 165  ARG165      0.5346
     94  NH1       18.4920   75.1830   21.2770 N.pl3 165  ARG165      0.1354
     95  NH2       19.1530   73.1850   20.3640 N.pl3 165  ARG165      0.1354
     96  N         15.8880   72.8660   26.2130 N.am  166  SER166     -0.1950
     97  CA        15.6510   71.4850   26.5990 C.3   166  SER166      0.1924
     98  C         16.9110   70.6770   26.3360 C.2   166  SER166      0.2314
     99  O         17.3460   70.5360   25.1870 O.2   166  SER166     -0.2863
    100  CB        14.4690   70.9110   25.8210 C.3   166  SER166      0.2116
    101  OG        13.2550   71.5140   26.2490 O.3   166  SER166     -0.2180
@<TRIPOS>BOND
     1    40    41    1
     2    41    42    1
     3    33    32    2
     4    32    31    1
     5    50    49    1
     6    42    44   am
     7    42    43    2
     8    49    51    1
     9    49    48    1
    10    44    45    1
    11    31    30    1
    12    31    34    1
    13    34    35    1
    14    48    45    1
    15    45    46    1
    16    16    15   ar
    17    35    36   ar
    18    35    37   ar
    19    47    46    2
    20    46    52   am
    21    17    15   ar
    22    36    38   ar
    23    15    14    1
    24    37    39   ar
    25    52    53    1
    26    12    11    2
    27    10     9    1
    28    10    11    1
    29    10    13    1
    30    38    39   ar
    31    11    18   am
    32    14    13    1
    33    53    54    1
    34    53    56    1
    35    55    54    2
    36    57    56    1
    37    57    58    1
    38    18    19    1
    39    20    21    2
    40    20    19    1
    41    60    59    1
    42    59    58    1
    43    19    22    1
    44    73    71   ar
    45    95    93    1
    46    71    72   ar
    47    71    70    1
    48    22    23    1
    49    94    93    1
    50    93    92    2
    51    25    23   ar
    52    25    27   ar
    53    23    24   ar
    54    70    67    1
    55    27    28   ar
    56    24    26   ar
    57    28    26   ar
    58    28    29    1
    59    92    91    1
    60    66    67    1
    61    67    68    1
    62    64    63    2
    63    91    90    1
    64    63    62    1
    65    68    69    2
    66    90    89    1
    67    99    98    2
    68    62    61    1
    69    62    65    1
    70    89    86    1
    71     8     6    1
    72   100   101    1
    73   100    97    1
    74    96    97    1
    75    96    87   am
    76    98    97    1
    77    86    87    1
    78    86    85    1
    79    87    88    2
    80    84    83    2
    81     6     7    1
    82     6     5    1
    83    85    83   am
    84     5     2    1
    85    83    82    1
    86     2     3    1
    87     2     1    1
    88     3     4    2
    89    77    76    2
    90    82    81    1
    91    79    78    1
    92    76    81   am
    93    76    75    1
    94    78    75    1
    95    78    80    1
    96    75    74    1
