@<TRIPOS>MOLECULE
tmp/3s5zB02.pdb
 126 119 0 0 0
SMALL
GASTEIGER

@<TRIPOS>ATOM
      1  N         21.0290   33.8170   57.2310 N.3    16  TRP16      -0.1241
      2  CA        22.0330   34.8060   56.8670 C.3    16  TRP16       0.1605
      3  C         21.9310   35.4000   55.4630 C.2    16  TRP16       0.2264
      4  O         21.8460   36.6090   55.3210 O.2    16  TRP16      -0.2867
      5  CB        23.4460   34.2800   57.0720 C.3    16  TRP16       0.0550
      6  CG        24.4420   35.3540   56.7850 C.ar   16  TRP16       0.0003
      7  CD1       25.3060   35.4120   55.7360 C.ar   16  TRP16       0.0946
      8  CD2       24.6430   36.5530   57.5390 C.ar   16  TRP16       0.0152
      9  NE1       26.0630   36.5580   55.8070 N.ar   16  TRP16      -0.2442
     10  CE2       25.6770   37.2770   56.9060 C.ar   16  TRP16       0.0810
     11  CE3       24.0770   37.0670   58.7120 C.ar   16  TRP16       0.0012
     12  CZ2       26.1400   38.5100   57.3900 C.ar   16  TRP16       0.0191
     13  CZ3       24.5350   38.2880   59.1960 C.ar   16  TRP16       0.0001
     14  CH2       25.5580   38.9970   58.5300 C.ar   16  TRP16       0.0015
     15  N         21.7980   32.8840   62.6230 N.3    61  ASP61      -0.1225
     16  CA        23.1540   33.2750   62.2880 C.3    61  ASP61       0.1805
     17  C         23.5440   34.5180   63.1180 C.2    61  ASP61       0.2597
     18  O         22.9470   34.7730   64.1530 O.2    61  ASP61      -0.2718
     19  CB        23.2770   33.4960   60.7700 C.3    61  ASP61       0.1424
     20  CG        24.6740   33.1720   60.2450 C.2    61  ASP61       0.3668
     21  OD1       25.5600   34.0420   60.3450 O.co2  61  ASP61      -0.2456
     22  OD2       24.8840   32.0600   59.7160 O.co2  61  ASP61      -0.2456
     23  N         24.5360   35.2760   62.6600 N.am   62  ASP62      -0.1974
     24  CA        25.0780   36.4390   63.3860 C.3    62  ASP62       0.1709
     25  C         23.9930   37.4970   63.6390 C.2    62  ASP62       0.2293
     26  O         22.9190   37.4580   63.0400 O.2    62  ASP62      -0.2864
     27  CB        26.2410   37.0250   62.5650 C.3    62  ASP62       0.1436
     28  CG        27.2520   37.8240   63.3830 C.2    62  ASP62       0.3671
     29  OD1       27.0430   38.1260   64.5780 O.co2  62  ASP62      -0.2456
     30  OD2       28.2950   38.1700   62.7820 O.co2  62  ASP62      -0.2456
     31  N         24.5690   30.8430   66.4260 N.3   103  TYR103     -0.1241
     32  CA        25.8830   31.2420   65.9090 C.3   103  TYR103      0.1605
     33  C         26.7630   31.8420   66.9980 C.2   103  TYR103      0.2264
     34  O         26.2810   32.5420   67.8730 O.2   103  TYR103     -0.2867
     35  CB        25.6590   32.2730   64.7810 C.3   103  TYR103      0.0534
     36  CG        26.8760   33.0250   64.2790 C.ar  103  TYR103     -0.0201
     37  CD1       27.4800   32.6940   63.0670 C.ar  103  TYR103     -0.0009
     38  CD2       27.3920   34.0990   64.9890 C.ar  103  TYR103     -0.0009
     39  CE1       28.6050   33.3980   62.5960 C.ar  103  TYR103      0.0417
     40  CE2       28.5120   34.7940   64.5400 C.ar  103  TYR103      0.0417
     41  CZ        29.1090   34.4470   63.3410 C.ar  103  TYR103      0.1957
     42  OH        30.2030   35.1550   62.9100 O.3   103  TYR103     -0.2866
     43  N         31.7410   38.1990   63.1370 N.3   111  CYS111     -0.1221
     44  CA        32.1110   38.9360   61.9290 C.3   111  CYS111      0.1808
     45  C         31.3240   40.2410   61.7970 C.2   111  CYS111      0.2601
     46  O         31.8410   41.2120   61.2520 O.2   111  CYS111     -0.2717
     47  CB        31.9580   38.0810   60.6730 C.3   111  CYS111      0.0970
     48  SG        32.9250   36.5630   60.7090 S.3   111  CYS111     -0.0800
     49  N         30.0940   40.2730   62.3060 N.am  112  ALA112     -0.1979
     50  CA        29.3000   41.5110   62.3160 C.3   112  ALA112      0.1597
     51  C         29.6470   42.4600   63.4770 C.2   112  ALA112      0.2287
     52  O         29.1020   43.5630   63.5410 O.2   112  ALA112     -0.2864
     53  CB        27.8000   41.1960   62.3210 C.3   112  ALA112      0.0319
     54  N         26.9770   26.9880   64.9430 N.3   137  LYS137     -0.1245
     55  CA        27.8350   27.4000   63.8480 C.3   137  LYS137      0.1561
     56  C         28.8940   28.3050   64.4580 C.2   137  LYS137      0.2260
     57  O         28.5640   29.2830   65.1200 O.2   137  LYS137     -0.2867
     58  CB        27.0180   28.1290   62.7710 C.3   137  LYS137      0.0271
     59  CG        27.8750   28.7790   61.6690 C.3   137  LYS137      0.0035
     60  CD        27.0210   29.3630   60.5420 C.3   137  LYS137      0.0206
     61  CE        27.8660   30.2520   59.6150 C.3   137  LYS137      0.1093
     62  NZ        27.0540   30.9210   58.5520 N.3   137  LYS137     -0.1314
     63  N         32.2300   30.5670   63.9510 N.3   139  ASP139     -0.1239
     64  CA        32.9030   31.3180   62.9220 C.3   139  ASP139      0.1674
     65  C         34.3090   31.6920   63.3850 C.2   139  ASP139      0.2266
     66  O         34.6220   31.5670   64.5550 O.2   139  ASP139     -0.2867
     67  CB        32.0670   32.5530   62.6280 C.3   139  ASP139      0.1410
     68  CG        32.3610   33.1680   61.2670 C.2   139  ASP139      0.3668
     69  OD1       33.3120   32.7520   60.5620 O.co2 139  ASP139     -0.2456
     70  OD2       31.6180   34.0960   60.9090 O.co2 139  ASP139     -0.2456
     71  N         34.2010   26.8300   60.8170 N.3   172  GLU172     -0.1245
     72  CA        34.7200   27.5490   59.6510 C.3   172  GLU172      0.1567
     73  C         36.2460   27.5260   59.6630 C.2   172  GLU172      0.2260
     74  O         36.9000   28.2570   58.9300 O.2   172  GLU172     -0.2867
     75  CB        34.1750   28.9740   59.6180 C.3   172  GLU172      0.0388
     76  CG        32.6470   28.9900   59.5870 C.3   172  GLU172      0.1160
     77  CD        32.0630   30.2820   59.0430 C.2   172  GLU172      0.3649
     78  OE1       32.3290   30.7060   57.9510 O.co2 172  GLU172     -0.2457
     79  OE2       31.2850   30.9280   59.6810 O.co2 172  GLU172     -0.2457
     80  N         38.4390   27.4100   56.3040 N.3   175  LEU175     -0.1231
     81  CA        38.3050   28.6850   55.5940 C.3   175  LEU175      0.1693
     82  C         39.2680   29.7490   56.1320 C.2   175  LEU175      0.2592
     83  O         39.8960   30.4510   55.3450 O.2   175  LEU175     -0.2718
     84  CB        36.8670   29.2040   55.6630 C.3   175  LEU175      0.0284
     85  CG        36.6230   30.6420   55.2020 C.3   175  LEU175      0.0019
     86  CD1       37.0820   30.8460   53.7670 C.3   175  LEU175      0.0001
     87  CD2       35.1560   31.0010   55.3600 C.3   175  LEU175      0.0001
     88  N         39.3850   29.8590   57.4570 N.am  176  TYR176     -0.1976
     89  CA        40.2530   30.8800   58.0820 C.3   176  TYR176      0.1639
     90  C         41.7190   30.4830   58.1750 C.2   176  TYR176      0.2290
     91  O         42.5560   31.2910   58.5510 O.2   176  TYR176     -0.2864
     92  CB        39.7180   31.2810   59.4500 C.3   176  TYR176      0.0560
     93  CG        38.4520   32.0930   59.3230 C.ar  176  TYR176     -0.0198
     94  CD1       38.4950   33.4810   59.2430 C.ar  176  TYR176     -0.0009
     95  CD2       37.2140   31.4690   59.2470 C.ar  176  TYR176     -0.0009
     96  CE1       37.3280   34.2250   59.1020 C.ar  176  TYR176      0.0417
     97  CE2       36.0500   32.1970   59.1020 C.ar  176  TYR176      0.0417
     98  CZ        36.1120   33.5740   59.0320 C.ar  176  TYR176      0.1957
     99  OH        34.9500   34.2940   58.9080 O.3   176  TYR176     -0.2866
    100  N         33.1310   24.7600   56.7770 N.3   196  ARG196     -0.1245
    101  CA        33.1450   25.6670   55.6250 C.3   196  ARG196      0.1563
    102  C         34.5700   25.7660   55.0840 C.2   196  ARG196      0.2260
    103  O         35.5080   26.0310   55.8430 O.2   196  ARG196     -0.2867
    104  CB        32.6450   27.0560   56.0390 C.3   196  ARG196      0.0307
    105  CG        31.1270   27.1470   56.2520 C.3   196  ARG196      0.0489
    106  CD        30.4100   27.4480   54.9590 C.3   196  ARG196      0.2205
    107  NE        31.0910   28.5320   54.2720 N.pl3 196  ARG196     -0.0865
    108  CZ        30.9560   29.8220   54.5720 C.cat 196  ARG196      0.5346
    109  NH1       30.1350   30.2210   55.5420 N.pl3 196  ARG196      0.1354
    110  NH2       31.6510   30.7200   53.8900 N.pl3 196  ARG196      0.1354
    111  N         32.1270   33.1460   51.5470 N.3   200  ASP200     -0.1239
    112  CA        30.6640   33.1960   51.6870 C.3   200  ASP200      0.1674
    113  C         29.9430   33.1630   50.3400 C.2   200  ASP200      0.2266
    114  O         30.3110   33.8560   49.4010 O.2   200  ASP200     -0.2867
    115  CB        30.2320   34.4870   52.4080 C.3   200  ASP200      0.1410
    116  CG        30.6600   34.5450   53.8830 C.2   200  ASP200      0.3668
    117  OD1       31.3330   33.6170   54.3840 O.co2 200  ASP200     -0.2456
    118  OD2       30.3150   35.5610   54.5390 O.co2 200  ASP200     -0.2456
    119  N         25.2940   27.9430   51.9530 N.3   236  MET236     -0.1245
    120  CA        23.8480   27.8490   51.8520 C.3   236  MET236      0.1570
    121  C         23.3060   27.6330   50.4360 C.2   236  MET236      0.2261
    122  O         23.8920   28.0650   49.4460 O.2   236  MET236     -0.2867
    123  CB        23.2150   29.1380   52.4220 C.3   236  MET236      0.0387
    124  CG        23.3800   29.3060   53.9260 C.3   236  MET236      0.0595
    125  SD        23.2570   31.0150   54.4940 S.3   236  MET236     -0.1393
    126  CE        24.9080   31.6040   54.1210 C.3   236  MET236      0.0692
@<TRIPOS>BOND
     1   114   113    2
     2   122   121    2
     3   113   112    1
     4   121   120    1
     5   111   112    1
     6   112   115    1
     7   120   119    1
     8   120   123    1
     9   115   116    1
    10   123   124    1
    11    86    85    1
    12   116   117   ar
    13   116   118   ar
    14   110   108    1
    15   124   125    1
    16   126   125    1
    17   107   108    2
    18   107   106    1
    19   108   109    1
    20   106   105    1
    21   102   101    1
    22   102   103    2
    23    85    87    1
    24    85    84    1
    25     4     3    2
    26    83    82    2
    27     3     2    1
    28    81    84    1
    29    81    82    1
    30    81    80    1
    31   101   104    1
    32   101   100    1
    33     7     9   ar
    34     7     6   ar
    35     9    10   ar
    36   104   105    1
    37    82    88   am
    38     6     5    1
    39     6     8   ar
    40     2     5    1
    41     2     1    1
    42    10    12   ar
    43    10     8   ar
    44    12    14   ar
    45    88    89    1
    46     8    11   ar
    47    78    77   ar
    48    89    90    1
    49    89    92    1
    50    90    91    2
    51    14    13   ar
    52    62    61    1
    53    11    13   ar
    54    99    98    1
    55    74    73    2
    56    98    96   ar
    57    98    97   ar
    58    77    76    1
    59    77    79   ar
    60    96    94   ar
    61    97    95   ar
    62    94    93   ar
    63    95    93   ar
    64    93    92    1
    65    76    75    1
    66    61    60    1
    67    75    72    1
    68    72    73    1
    69    72    71    1
    70    22    20   ar
    71    20    21   ar
    72    20    19    1
    73    60    59    1
    74    69    68   ar
    75    47    48    1
    76    47    44    1
    77    19    16    1
    78    70    68   ar
    79    46    45    2
    80    68    67    1
    81    59    58    1
    82    45    44    1
    83    45    49   am
    84    44    43    1
    85    16    15    1
    86    16    17    1
    87    49    50    1
    88    50    53    1
    89    50    51    1
    90    27    28    1
    91    27    24    1
    92    39    37   ar
    93    39    41   ar
    94    67    64    1
    95    23    17   am
    96    23    24    1
    97    58    55    1
    98    30    28   ar
    99    42    41    1
   100    64    65    1
   101    64    63    1
   102    26    25    2
   103    37    36   ar
   104    17    18    2
   105    41    40   ar
   106    28    29   ar
   107    65    66    2
   108    24    25    1
   109    51    52    2
   110    55    56    1
   111    55    54    1
   112    36    35    1
   113    36    38   ar
   114    56    57    2
   115    40    38   ar
   116    35    32    1
   117    32    31    1
   118    32    33    1
   119    33    34    2
