@<TRIPOS>MOLECULE
tmp/3s5zA00.pdb
 76 72 0 0 0
SMALL
GASTEIGER

@<TRIPOS>ATOM
      1  N         21.9290   58.7950   10.6480 N.3     1  LEU1       -0.1231
      2  CA        21.7950   58.7180    9.1590 C.3     1  LEU1        0.1693
      3  C         20.4450   59.2850    8.7320 C.2     1  LEU1        0.2592
      4  O         19.3920   58.8380    9.2180 O.2     1  LEU1       -0.2718
      5  CB        21.9400   57.2600    8.6880 C.3     1  LEU1        0.0284
      6  CG        21.7800   56.9540    7.1910 C.3     1  LEU1        0.0019
      7  CD1       22.8040   57.7340    6.3410 C.3     1  LEU1        0.0001
      8  CD2       21.8950   55.4450    6.9560 C.3     1  LEU1        0.0001
      9  N         20.4740   60.2580    7.8230 N.am    2  ASP2       -0.1960
     10  CA        19.2700   60.9930    7.4470 C.3     2  ASP2        0.1840
     11  C         18.5470   60.3250    6.2760 C.2     2  ASP2        0.2622
     12  O         18.4290   60.9040    5.2050 O.2     2  ASP2       -0.2715
     13  CB        19.6260   62.4520    7.1120 C.3     2  ASP2        0.1450
     14  CG        18.3970   63.3620    7.0410 C.2     2  ASP2        0.3671
     15  OD1       17.3290   62.9910    7.5860 O.co2   2  ASP2       -0.2456
     16  OD2       18.5010   64.4520    6.4340 O.co2   2  ASP2       -0.2456
     17  N         18.0550   59.1090    6.4930 N.am    3  ASN3       -0.1958
     18  CA        17.3480   58.3690    5.4510 C.3     3  ASN3        0.1819
     19  C         15.8730   58.2120    5.7670 C.2     3  ASN3        0.2621
     20  O         15.1910   57.4200    5.1350 O.2     3  ASN3       -0.2715
     21  CB        17.9960   56.9970    5.2180 C.3     3  ASN3        0.1195
     22  CG        18.0450   56.1310    6.4760 C.2     3  ASN3        0.2630
     23  OD1       17.5050   56.4900    7.5310 O.2     3  ASN3       -0.2716
     24  ND2       18.7070   54.9870    6.3640 N.am    3  ASN3       -0.0877
     25  N         15.3890   58.9750    6.7460 N.am    4  GLY4       -0.1954
     26  CA        13.9970   58.8810    7.1980 C.3     4  GLY4        0.1869
     27  C         13.6590   57.6550    8.0400 C.2     4  GLY4        0.2309
     28  O         12.5100   57.4670    8.4220 O.2     4  GLY4       -0.2863
     29  N         13.3860   56.5840   13.2590 N.3     7  ARG7       -0.1245
     30  CA        13.0360   57.8350   13.9230 C.3     7  ARG7        0.1563
     31  C         12.7680   57.5620   15.4010 C.2     7  ARG7        0.2260
     32  O         12.8920   58.4590   16.2380 O.2     7  ARG7       -0.2867
     33  CB        11.8210   58.5060   13.2590 C.3     7  ARG7        0.0307
     34  CG        11.9980   58.8050   11.7600 C.3     7  ARG7        0.0489
     35  CD        13.3360   59.4860   11.4200 C.3     7  ARG7        0.2205
     36  NE        13.4650   60.8070   12.0340 N.pl3   7  ARG7       -0.0865
     37  CZ        14.5650   61.5580   12.0140 C.cat   7  ARG7        0.5346
     38  NH1       15.6790   61.1410   11.4180 N.pl3   7  ARG7        0.1354
     39  NH2       14.5560   62.7410   12.6050 N.pl3   7  ARG7        0.1354
     40  N         22.2970   53.6990   -0.0730 N.3   161  ASN161     -0.1240
     41  CA        21.5550   54.8770   -0.4560 C.3   161  ASN161      0.1653
     42  C         21.3010   54.9330   -1.9660 C.2   161  ASN161      0.2266
     43  O         20.1870   55.2280   -2.3810 O.2   161  ASN161     -0.2867
     44  CB        22.3000   56.1310    0.0030 C.3   161  ASN161      0.1155
     45  CG        21.5310   57.3900   -0.2810 C.2   161  ASN161      0.2627
     46  OD1       21.6470   57.9770   -1.3520 O.2   161  ASN161     -0.2716
     47  ND2       20.7230   57.8100    0.6870 N.am  161  ASN161     -0.0877
     48  N         18.2690   53.3170   -3.8270 N.3   164  GLY164     -0.1210
     49  CA        16.9500   53.9270   -3.7160 C.3   164  GLY164      0.1956
     50  C         16.0100   53.1890   -2.7780 C.2   164  GLY164      0.2612
     51  O         14.9020   53.6550   -2.5370 O.2   164  GLY164     -0.2717
     52  N         16.4240   52.0330   -2.2550 N.am  165  ARG165     -0.1965
     53  CA        15.5940   51.3010   -1.3020 C.3   165  ARG165      0.1729
     54  C         15.8800   51.7800    0.1230 C.2   165  ARG165      0.2617
     55  O         17.0390   51.9990    0.5030 O.2   165  ARG165     -0.2715
     56  CB        15.8180   49.7870   -1.3940 C.3   165  ARG165      0.0348
     57  CG        14.8280   49.0010   -0.5430 C.3   165  ARG165      0.0492
     58  CD        14.9430   47.4900   -0.6870 C.3   165  ARG165      0.2205
     59  NE        13.9070   46.8260    0.0990 N.pl3 165  ARG165     -0.0865
     60  CZ        12.6250   46.7040   -0.2650 C.cat 165  ARG165      0.5346
     61  NH1       12.1970   47.1700   -1.4260 N.pl3 165  ARG165      0.1354
     62  NH2       11.7660   46.0960    0.5410 N.pl3 165  ARG165      0.1354
     63  N         14.8130   51.9330    0.8960 N.am  166  SER166     -0.1936
     64  CA        14.9030   52.2950    2.3080 C.3   166  SER166      0.2055
     65  C         15.4150   51.1060    3.1140 C.2   166  SER166      0.2642
     66  O         14.6900   50.1340    3.3180 O.2   166  SER166     -0.2714
     67  CB        13.5250   52.7170    2.8370 C.3   166  SER166      0.2130
     68  OG        13.1930   54.0030    2.3540 O.3   166  SER166     -0.2179
     69  N         16.6620   51.1980    3.5580 N.am  167  ILE167     -0.1977
     70  CA        17.3260   50.1340    4.3060 C.3   167  ILE167      0.1596
     71  C         17.9610   50.7010    5.5780 C.2   167  ILE167      0.2287
     72  O         18.7850   51.6210    5.5100 O.2   167  ILE167     -0.2864
     73  CB        18.4220   49.4390    3.4520 C.3   167  ILE167      0.0276
     74  CG1       17.7880   48.8090    2.2020 C.3   167  ILE167      0.0022
     75  CG2       19.1260   48.3610    4.2560 C.3   167  ILE167      0.0022
     76  CD1       18.7750   48.1800    1.2550 C.3   167  ILE167      0.0001
@<TRIPOS>BOND
     1    48    49    1
     2    49    50    1
     3    50    51    2
     4    50    52   am
     5    43    42    2
     6    52    53    1
     7    42    41    1
     8    61    60    1
     9    56    53    1
    10    56    57    1
    11    46    45    2
    12    53    54    1
    13    58    57    1
    14    58    59    1
    15    41    40    1
    16    41    44    1
    17    45    44    1
    18    45    47   am
    19    60    59    2
    20    60    62    1
    21    54    55    2
    22    54    63   am
    23    63    64    1
    24    76    74    1
    25    74    73    1
    26    64    67    1
    27    64    65    1
    28    68    67    1
    29    65    66    2
    30    65    69   am
    31    73    75    1
    32    73    70    1
    33    69    70    1
    34    70    71    1
    35    20    19    2
    36    12    11    2
    37    21    18    1
    38    21    22    1
    39    18    19    1
    40    18    17    1
    41    72    71    2
    42    19    25   am
    43    11    17   am
    44    11    10    1
    45     7     6    1
    46    24    22   am
    47    16    14   ar
    48    22    23    2
    49    25    26    1
    50     8     6    1
    51    14    13    1
    52    14    15   ar
    53    13    10    1
    54     6     5    1
    55    26    27    1
    56    10     9    1
    57     9     3   am
    58    27    28    2
    59     5     2    1
    60     3     2    1
    61     3     4    2
    62     2     1    1
    63    38    37    1
    64    35    34    1
    65    35    36    1
    66    34    33    1
    67    37    36    2
    68    37    39    1
    69    33    30    1
    70    29    30    1
    71    30    31    1
    72    31    32    2
