@<TRIPOS>MOLECULE
tmp/3s61B01.pdb
 96 89 0 0 0
SMALL
GASTEIGER

@<TRIPOS>ATOM
      1  N         13.4090  -40.3180   29.7640 N.3    56  GLN56      -0.1231
      2  CA        14.2390  -39.2520   29.2350 C.3    56  GLN56       0.1698
      3  C         13.5150  -37.9390   29.0960 C.2    56  GLN56       0.2592
      4  O         13.9500  -37.0460   28.4220 O.2    56  GLN56      -0.2718
      5  CB        14.8730  -39.6600   27.9280 C.3    56  GLN56       0.0381
      6  CG        16.1920  -40.3060   28.1120 C.3    56  GLN56       0.0905
      7  CD        17.0510  -40.1110   26.9360 C.2    56  GLN56       0.2608
      8  OE1       17.1730  -39.0210   26.4240 O.2    56  GLN56      -0.2717
      9  NE2       17.6450  -41.1720   26.4720 N.am   56  GLN56      -0.0878
     10  N         12.4050  -37.8320   29.7830 N.am   57  ILE57      -0.1966
     11  CA        11.5570  -36.7000   29.6790 C.3    57  ILE57       0.1727
     12  C         11.1230  -36.4040   31.0830 C.2    57  ILE57       0.2616
     13  O         11.2530  -37.2340   31.9250 O.2    57  ILE57      -0.2715
     14  CB        10.3920  -37.0890   28.8510 C.3    57  ILE57       0.0290
     15  CG1        9.4830  -35.9190   28.6290 C.3    57  ILE57       0.0022
     16  CG2        9.6700  -38.1600   29.5250 C.3    57  ILE57       0.0023
     17  CD1        8.5910  -36.1080   27.5170 C.3    57  ILE57       0.0001
     18  N         10.6440  -35.2100   31.3560 N.am   58  SER58      -0.1950
     19  CA        10.1900  -34.8850   32.6870 C.3    58  SER58       0.1924
     20  C          8.8930  -35.5580   33.0040 C.2    58  SER58       0.2314
     21  O          8.0620  -35.6880   32.1700 O.2    58  SER58      -0.2863
     22  CB        10.0440  -33.3820   32.8260 C.3    58  SER58       0.2116
     23  OG         9.1180  -33.0500   33.8280 O.3    58  SER58      -0.2180
     24  N          5.6880  -33.9360   31.9470 N.3    61  LYS61      -0.1245
     25  CA         5.1640  -34.1600   30.6400 C.3    61  LYS61       0.1561
     26  C          4.6400  -35.5480   30.6770 C.2    61  LYS61       0.2260
     27  O          5.1330  -36.4010   30.0090 O.2    61  LYS61      -0.2867
     28  CB         6.2630  -34.0780   29.6240 C.3    61  LYS61       0.0271
     29  CG         6.8720  -32.7250   29.5240 C.3    61  LYS61       0.0035
     30  CD         7.8440  -32.6270   28.3770 C.3    61  LYS61       0.0206
     31  CE         8.0610  -31.2130   27.9110 C.3    61  LYS61       0.1093
     32  NZ         8.9360  -31.1810   26.7320 N.3    61  LYS61      -0.1314
     33  N         20.4790  -33.4930   23.8190 N.3   233  ASP233     -0.1225
     34  CA        20.4810  -32.1270   24.1900 C.3   233  ASP233      0.1805
     35  C         19.1510  -31.7880   24.7670 C.2   233  ASP233      0.2597
     36  O         18.1610  -31.9050   24.1010 O.2   233  ASP233     -0.2718
     37  CB        20.7020  -31.3190   22.9370 C.3   233  ASP233      0.1424
     38  CG        20.9430  -29.8990   23.2150 C.2   233  ASP233      0.3668
     39  OD1       20.9000  -29.5280   24.3800 O.co2 233  ASP233     -0.2456
     40  OD2       21.1450  -29.1310   22.2780 O.co2 233  ASP233     -0.2456
     41  N         19.1210  -31.4120   26.0360 N.am  234  ASP234     -0.1974
     42  CA        17.9150  -30.8920   26.6580 C.3   234  ASP234      0.1709
     43  C         18.1430  -29.5280   27.2420 C.2   234  ASP234      0.2293
     44  O         17.3970  -29.0740   28.0660 O.2   234  ASP234     -0.2864
     45  CB        17.3820  -31.7950   27.7560 C.3   234  ASP234      0.1436
     46  CG        18.4550  -32.3800   28.5870 C.2   234  ASP234      0.3671
     47  OD1       19.6130  -32.2060   28.2180 O.co2 234  ASP234     -0.2456
     48  OD2       18.1490  -33.0350   29.5910 O.co2 234  ASP234     -0.2456
     49  N         15.2800  -27.1900   24.1090 N.3   239  ASN239     -0.1240
     50  CA        14.2010  -28.0640   24.4850 C.3   239  ASN239      0.1653
     51  C         12.9130  -27.4110   24.1700 C.2   239  ASN239      0.2266
     52  O         11.8710  -27.9900   24.3010 O.2   239  ASN239     -0.2867
     53  CB        14.2690  -28.3750   25.9560 C.3   239  ASN239      0.1155
     54  CG        13.8770  -29.7710   26.2630 C.2   239  ASN239      0.2627
     55  OD1       14.4050  -30.7020   25.7030 O.2   239  ASN239     -0.2716
     56  ND2       12.9350  -29.9300   27.1510 N.am  239  ASN239     -0.0877
     57  N         10.2210  -28.8800   21.6440 N.3   242  PHE242     -0.1241
     58  CA         9.3070  -29.9460   21.9510 C.3   242  PHE242      0.1605
     59  C          8.0820  -29.3090   22.5470 C.2   242  PHE242      0.2264
     60  O          7.1700  -29.9790   22.9400 O.2   242  PHE242     -0.2867
     61  CB         9.8570  -30.9410   22.9500 C.3   242  PHE242      0.0534
     62  CG        11.0770  -31.6530   22.4980 C.ar  242  PHE242     -0.0203
     63  CD1       10.9920  -32.6840   21.6320 C.ar  242  PHE242     -0.0042
     64  CD2       12.2970  -31.3090   22.9680 C.ar  242  PHE242     -0.0042
     65  CE1       12.0860  -33.3270   21.2410 C.ar  242  PHE242     -0.0003
     66  CE2       13.3790  -31.9580   22.5760 C.ar  242  PHE242     -0.0003
     67  CZ        13.2740  -32.9650   21.7080 C.ar  242  PHE242     -0.0000
     68  N         18.5680  -33.8530   19.6610 N.3   268  THR268     -0.1203
     69  CA        17.7370  -33.8050   20.8280 C.3   268  THR268      0.1994
     70  C         17.2420  -35.1670   21.1250 C.2   268  THR268      0.2617
     71  O         17.0260  -35.5210   22.2440 O.2   268  THR268     -0.2717
     72  CB        16.5320  -32.9880   20.5820 C.3   268  THR268      0.1784
     73  OG1       15.5670  -33.8100   19.9490 O.3   268  THR268     -0.2211
     74  CG2       16.8660  -31.8990   19.6670 C.3   268  THR268      0.0376
     75  N         16.9910  -35.9270   20.0930 N.am  269  ASN269     -0.1974
     76  CA        16.3600  -37.1970   20.2900 C.3   269  ASN269      0.1688
     77  C         17.0160  -38.4400   19.7220 C.2   269  ASN269      0.2292
     78  O         16.9530  -39.4710   20.3440 O.2   269  ASN269     -0.2864
     79  CB        14.9580  -37.0810   19.7390 C.3   269  ASN269      0.1181
     80  CG        14.1580  -38.2760   19.9830 C.2   269  ASN269      0.2629
     81  OD1       14.6460  -39.2750   20.4550 O.2   269  ASN269     -0.2716
     82  ND2       12.9180  -38.2020   19.6420 N.am  269  ASN269     -0.0877
     83  N          7.3730  -38.8750   20.5500 N.3   390  LEU390     -0.1245
     84  CA         7.6700  -38.7120   21.9620 C.3   390  LEU390      0.1561
     85  C          6.4120  -38.1810   22.6360 C.2   390  LEU390      0.2260
     86  O          5.5050  -37.6720   21.9760 O.2   390  LEU390     -0.2867
     87  CB         8.8310  -37.7390   22.1620 C.3   390  LEU390      0.0270
     88  CG        10.1580  -38.1230   21.5050 C.3   390  LEU390      0.0019
     89  CD1       11.2210  -37.0710   21.7840 C.3   390  LEU390      0.0001
     90  CD2       10.6170  -39.4930   21.9810 C.3   390  LEU390      0.0001
     91  N          6.0190  -35.8670   24.2240 N.3   392  SER392     -0.1217
     92  CA         6.2360  -34.5490   24.7250 C.3   392  SER392      0.1889
     93  C          4.9660  -33.7640   24.6230 C.2   392  SER392      0.2288
     94  O          4.7140  -32.9300   25.4430 O.2   392  SER392     -0.2866
     95  CB         7.3110  -33.8690   23.9100 C.3   392  SER392      0.2089
     96  OG         8.5430  -34.5210   24.0370 O.3   392  SER392     -0.2183
@<TRIPOS>BOND
     1    82    80   am
     2    68    69    1
     3    74    72    1
     4    77    76    1
     5    77    78    2
     6    79    80    1
     7    79    76    1
     8    73    72    1
     9    80    81    2
    10    75    76    1
    11    75    70   am
    12    83    84    1
    13    72    69    1
    14    69    70    1
    15    70    71    2
    16    65    63   ar
    17    65    67   ar
    18    88    89    1
    19    88    90    1
    20    88    87    1
    21    63    62   ar
    22    57    58    1
    23    67    66   ar
    24    58    59    1
    25    58    61    1
    26    84    87    1
    27    84    85    1
    28    86    85    2
    29    40    38   ar
    30    62    61    1
    31    62    64   ar
    32    59    60    2
    33    66    64   ar
    34    37    38    1
    35    37    34    1
    36    38    39   ar
    37    33    34    1
    38    95    96    1
    39    95    92    1
    40    36    35    2
    41    49    50    1
    42    51    52    2
    43    51    50    1
    44    34    35    1
    45    91    92    1
    46    50    53    1
    47    93    92    1
    48    93    94    2
    49    35    41   am
    50    55    54    2
    51    53    54    1
    52    41    42    1
    53    54    56   am
    54     8     7    2
    55     9     7   am
    56    42    43    1
    57    42    45    1
    58    32    31    1
    59     7     6    1
    60    43    44    2
    61    17    15    1
    62    45    46    1
    63    31    30    1
    64     5     6    1
    65     5     2    1
    66    47    46   ar
    67    30    29    1
    68     4     3    2
    69    46    48   ar
    70    15    14    1
    71    14    16    1
    72    14    11    1
    73     3     2    1
    74     3    10   am
    75     2     1    1
    76    29    28    1
    77    28    25    1
    78    11    10    1
    79    11    12    1
    80    27    26    2
    81    25    26    1
    82    25    24    1
    83    12    18   am
    84    12    13    2
    85    18    19    1
    86    21    20    2
    87    19    22    1
    88    19    20    1
    89    22    23    1
