@<TRIPOS>MOLECULE
tmp/3s68A00.pdb
 118 118 0 0 0
SMALL
GASTEIGER

@<TRIPOS>ATOM
      1  N        -17.1180   28.1700   67.5520 N.3    36  TRP36      -0.1241
      2  CA       -16.0670   28.8220   66.8030 C.3    36  TRP36       0.1605
      3  C        -15.7530   30.1460   67.4770 C.2    36  TRP36       0.2264
      4  O        -16.6440   30.7940   67.9700 O.2    36  TRP36      -0.2867
      5  CB       -16.5280   29.1020   65.3690 C.3    36  TRP36       0.0550
      6  CG       -15.4370   29.7400   64.5340 C.ar   36  TRP36       0.0003
      7  CD1      -14.5110   29.0890   63.7490 C.ar   36  TRP36       0.0946
      8  CD2      -15.1430   31.1460   64.4110 C.ar   36  TRP36       0.0152
      9  NE1      -13.6690   30.0000   63.1410 N.ar   36  TRP36      -0.2442
     10  CE2      -14.0270   31.2660   63.5310 C.ar   36  TRP36       0.0810
     11  CE3      -15.7080   32.3130   64.9580 C.ar   36  TRP36       0.0012
     12  CZ2      -13.4620   32.5110   63.1880 C.ar   36  TRP36       0.0191
     13  CZ3      -15.1420   33.5700   64.6040 C.ar   36  TRP36       0.0001
     14  CH2      -14.0370   33.6500   63.7300 C.ar   36  TRP36       0.0015
     15  N        -12.6530   33.7110   67.2600 N.3    38  MET38      -0.1230
     16  CA       -11.6470   34.3280   66.3910 C.3    38  MET38       0.1702
     17  C        -10.2010   34.2680   66.9370 C.2    38  MET38       0.2592
     18  O         -9.4320   35.2250   66.8160 O.2    38  MET38      -0.2718
     19  CB       -12.0880   35.7620   66.0500 C.3    38  MET38       0.0401
     20  CG       -12.2040   36.6440   67.2580 C.3    38  MET38       0.0596
     21  SD       -12.7780   38.2890   66.8650 S.3    38  MET38      -0.1393
     22  CE       -13.3970   38.8880   68.4740 C.3    38  MET38       0.0692
     23  N         -9.8150   33.1350   67.5400 N.am   39  ASN39      -0.1974
     24  CA        -8.4150   32.9230   67.9180 C.3    39  ASN39       0.1688
     25  C         -7.5960   32.6600   66.6560 C.2    39  ASN39       0.2292
     26  O         -8.1190   32.1320   65.6680 O.2    39  ASN39      -0.2864
     27  CB        -8.2630   31.7180   68.8740 C.3    39  ASN39       0.1181
     28  CG        -9.2130   31.7930   70.0670 C.2    39  ASN39       0.2629
     29  OD1       -9.2020   32.7700   70.8430 O.2    39  ASN39      -0.2716
     30  ND2      -10.0600   30.7770   70.1980 N.am   39  ASN39      -0.0877
     31  N         -3.7030   41.7650   64.6950 N.3   139  ASP139     -0.1225
     32  CA        -4.8320   40.8290   64.6770 C.3   139  ASP139      0.1805
     33  C         -6.0610   41.4630   65.3150 C.2   139  ASP139      0.2598
     34  O         -6.8850   40.7900   65.9420 O.2   139  ASP139     -0.2718
     35  CB        -4.4220   39.5080   65.3590 C.3   139  ASP139      0.1424
     36  CG        -5.4170   38.3970   65.1070 C.2   139  ASP139      0.3668
     37  OD1       -6.0940   38.4200   64.0400 O.co2 139  ASP139     -0.2456
     38  OD2       -5.5320   37.5100   65.9810 O.co2 139  ASP139     -0.2456
     39  N         -6.1970   42.7690   65.1160 N.am  140  HIS140     -0.1961
     40  CA        -7.3770   43.4570   65.6320 C.3   140  HIS140      0.1787
     41  C         -8.3750   43.7580   64.4870 C.2   140  HIS140      0.2620
     42  O         -8.4060   43.0220   63.5150 O.2   140  HIS140     -0.2715
     43  CB        -6.9610   44.6980   66.4390 C.3   140  HIS140      0.0785
     44  CG        -6.0620   45.6760   65.7120 C.ar  140  HIS140      0.0821
     45  ND1       -5.2810   45.3470   64.6210 N.ar  140  HIS140     -0.2267
     46  CD2       -5.8030   46.9830   65.9710 C.ar  140  HIS140      0.1154
     47  CE1       -4.5720   46.4010   64.2480 C.ar  140  HIS140      0.1986
     48  NE2       -4.8850   47.4130   65.0430 N.ar  140  HIS140     -0.2212
     49  N         -9.2040   44.7980   64.5860 N.am  141  TRP141     -0.1960
     50  CA       -10.1440   45.0720   63.4750 C.3   141  TRP141      0.1771
     51  C         -9.3430   45.3520   62.1960 C.2   141  TRP141      0.2619
     52  O         -8.3250   46.0440   62.2180 O.2   141  TRP141     -0.2715
     53  CB       -11.1180   46.2010   63.7960 C.3   141  TRP141      0.0590
     54  CG       -12.1830   45.9200   64.9270 C.ar  141  TRP141      0.0006
     55  CD1      -12.9430   46.8580   65.5700 C.ar  141  TRP141      0.0946
     56  CD2      -12.5720   44.6410   65.4820 C.ar  141  TRP141      0.0152
     57  NE1      -13.7810   46.2490   66.4830 N.ar  141  TRP141     -0.2442
     58  CE2      -13.5780   44.8910   66.4440 C.ar  141  TRP141      0.0810
     59  CE3      -12.1550   43.3070   65.2600 C.ar  141  TRP141      0.0012
     60  CZ2      -14.1830   43.8550   67.1940 C.ar  141  TRP141      0.0191
     61  CZ3      -12.7560   42.2860   65.9920 C.ar  141  TRP141      0.0001
     62  CH2      -13.7610   42.5670   66.9520 C.ar  141  TRP141      0.0015
     63  N         -9.7680   44.7560   61.0820 N.am  142  LYS142     -0.1977
     64  CA        -8.9270   44.7540   59.8850 C.3   142  LYS142      0.1596
     65  C         -8.7020   46.1330   59.2620 C.2   142  LYS142      0.2287
     66  O         -7.6620   46.3930   58.6280 O.2   142  LYS142     -0.2864
     67  CB        -9.4490   43.7360   58.8500 C.3   142  LYS142      0.0298
     68  CG        -9.6580   42.2880   59.4470 C.3   142  LYS142      0.0038
     69  CD        -8.5250   41.8040   60.3770 C.3   142  LYS142      0.0206
     70  CE        -9.0210   40.6890   61.3390 C.3   142  LYS142      0.1093
     71  NZ        -8.0330   40.5020   62.5160 N.3   142  LYS142     -0.1314
     72  N         -2.3620   38.8180   60.6940 N.3   167  ASP167     -0.1225
     73  CA        -3.3050   37.7220   60.5190 C.3   167  ASP167      0.1805
     74  C         -4.3930   38.1190   59.5110 C.2   167  ASP167      0.2597
     75  O         -4.6700   39.3020   59.3650 O.2   167  ASP167     -0.2718
     76  CB        -3.9510   37.3410   61.8810 C.3   167  ASP167      0.1424
     77  CG        -4.7250   36.0340   61.8200 C.2   167  ASP167      0.3668
     78  OD1       -4.4380   35.1770   60.9350 O.co2 167  ASP167     -0.2456
     79  OD2       -5.6240   35.8590   62.6710 O.co2 167  ASP167     -0.2456
     80  N         -5.0420   37.1330   58.8640 N.am  168  ASN168     -0.1974
     81  CA        -6.2940   37.3790   58.1340 C.3   168  ASN168      0.1688
     82  C         -6.0740   38.2290   56.9090 C.2   168  ASN168      0.2292
     83  O         -6.9650   38.9820   56.5080 O.2   168  ASN168     -0.2864
     84  CB        -7.3370   38.0820   59.0210 C.3   168  ASN168      0.1181
     85  CG        -7.6340   37.2910   60.3040 C.2   168  ASN168      0.2629
     86  OD1       -7.4490   37.8050   61.3960 O.2   168  ASN168     -0.2716
     87  ND2       -8.1080   36.0410   60.1560 N.am  168  ASN168     -0.0877
     88  N         -8.7290   36.4120   54.6180 N.3   171  VAL171     -0.1231
     89  CA       -10.0960   36.3050   55.1400 C.3   171  VAL171      0.1678
     90  C        -10.0670   36.6190   56.6200 C.2   171  VAL171      0.2434
     91  O         -9.3150   35.9710   57.3670 O.2   171  VAL171     -0.2733
     92  CB       -10.6500   34.8760   54.9930 C.3   171  VAL171      0.0265
     93  CG1      -11.9970   34.7750   55.6690 C.3   171  VAL171      0.0020
     94  CG2      -10.7410   34.4950   53.4900 C.3   171  VAL171      0.0020
     95  N        -10.8640   37.6130   57.0600 N.am  172  PRO172     -0.2729
     96  CA       -11.7490   38.5010   56.2660 C.3   172  PRO172      0.1401
     97  C        -11.0030   39.3950   55.2420 C.2   172  PRO172      0.2269
     98  O        -11.6590   39.9990   54.3980 O.2   172  PRO172     -0.2865
     99  CB       -12.4110   39.4070   57.3170 C.3   172  PRO172      0.0296
    100  CG       -12.2670   38.6790   58.6390 C.3   172  PRO172      0.0237
    101  CD       -10.9890   37.8250   58.5170 C.3   172  PRO172      0.0939
    102  N         -8.0900   29.5050   57.7660 N.3   196  LEU196     -0.1231
    103  CA        -8.7800   30.2270   58.8370 C.3   196  LEU196      0.1693
    104  C         -8.9540   29.2790   60.0240 C.2   196  LEU196      0.2591
    105  O         -9.2410   28.0970   59.8420 O.2   196  LEU196     -0.2718
    106  CB       -10.1430   30.7510   58.3810 C.3   196  LEU196      0.0284
    107  CG       -10.7610   31.8990   59.1970 C.3   196  LEU196      0.0019
    108  CD1       -9.9270   33.1590   59.1080 C.3   196  LEU196      0.0001
    109  CD2      -12.1870   32.1780   58.7360 C.3   196  LEU196      0.0001
    110  N         -8.7510   29.8140   61.2300 N.am  197  GLU197     -0.1979
    111  CA        -8.8240   29.0180   62.4710 C.3   197  GLU197      0.1602
    112  C        -10.0710   28.1170   62.5040 C.2   197  GLU197      0.2287
    113  O        -11.1990   28.5760   62.2590 O.2   197  GLU197     -0.2864
    114  CB        -8.7670   29.9410   63.7340 C.3   197  GLU197      0.0415
    115  CG        -9.8160   31.1180   63.7440 C.3   197  GLU197      0.1163
    116  CD        -9.2930   32.4330   63.1450 C.2   197  GLU197      0.3649
    117  OE1       -8.3930   32.4100   62.2550 O.co2 197  GLU197     -0.2457
    118  OE2       -9.7740   33.5020   63.5870 O.co2 197  GLU197     -0.2457
@<TRIPOS>BOND
     1    94    92    1
     2    98    97    2
     3    88    89    1
     4    92    89    1
     5    92    93    1
     6    89    90    1
     7    97    96    1
     8    96    95    1
     9    96    99    1
    10    83    82    2
    11    90    95   am
    12    90    91    2
    13    82    81    1
    14    95   101    1
    15    99   100    1
    16   102   103    1
    17    81    80    1
    18    81    84    1
    19   106   103    1
    20   106   107    1
    21   101   100    1
    22    66    65    2
    23   109   107    1
    24   103   104    1
    25    67    68    1
    26    67    64    1
    27    80    74   am
    28    84    85    1
    29   108   107    1
    30    65    64    1
    31    75    74    2
    32    68    69    1
    33    74    73    1
    34   105   104    2
    35    64    63    1
    36   104   110   am
    37    87    85   am
    38    85    86    2
    39    69    70    1
    40    73    72    1
    41    73    76    1
    42    78    77   ar
    43    63    51   am
    44   110   111    1
    45    70    71    1
    46    77    76    1
    47    77    79   ar
    48    51    52    2
    49    51    50    1
    50   117   116   ar
    51   113   112    2
    52   111   112    1
    53   111   114    1
    54     9    10   ar
    55     9     7   ar
    56   116   118   ar
    57   116   115    1
    58    12    10   ar
    59    12    14   ar
    60    50    53    1
    61    50    49    1
    62    42    41    2
    63    10     8   ar
    64    14    13   ar
    65   114   115    1
    66     7     6   ar
    67    53    54    1
    68    37    36   ar
    69    47    45   ar
    70    47    48   ar
    71     8     6   ar
    72     8    11   ar
    73    41    49   am
    74    41    40    1
    75     6     5    1
    76    13    11   ar
    77    45    44   ar
    78    32    31    1
    79    32    33    1
    80    32    35    1
    81    54    56   ar
    82    54    55   ar
    83    48    46   ar
    84    36    35    1
    85    36    38   ar
    86    39    33   am
    87    39    40    1
    88    59    56   ar
    89    59    61   ar
    90    33    34    2
    91     5     2    1
    92    56    58   ar
    93    55    57   ar
    94    40    43    1
    95    26    25    2
    96    44    46   ar
    97    44    43    1
    98    61    62   ar
    99    19    16    1
   100    19    20    1
   101    16    17    1
   102    16    15    1
   103    58    57   ar
   104    58    60   ar
   105    25    24    1
   106     2     3    1
   107     2     1    1
   108    18    17    2
   109    21    20    1
   110    21    22    1
   111    17    23   am
   112    62    60   ar
   113     3     4    2
   114    23    24    1
   115    24    27    1
   116    27    28    1
   117    28    30   am
   118    28    29    2
