@<TRIPOS>MOLECULE
tmp/3s6aA00.pdb
 197 191 0 0 0
SMALL
GASTEIGER

@<TRIPOS>ATOM
      1  N        -16.3210   79.6840    3.6380 N.3    43  TYR43      -0.1241
      2  CA       -17.7510   79.8680    3.8110 C.3    43  TYR43       0.1605
      3  C        -17.9680   80.2590    5.2670 C.2    43  TYR43       0.2264
      4  O        -17.4480   79.5830    6.1570 O.2    43  TYR43      -0.2867
      5  CB       -18.5210   78.5580    3.5550 C.3    43  TYR43       0.0534
      6  CG       -18.4550   77.9520    2.1640 C.ar   43  TYR43      -0.0201
      7  CD1      -18.3730   78.7390    1.0250 C.ar   43  TYR43      -0.0009
      8  CD2      -18.5570   76.5790    1.9960 C.ar   43  TYR43      -0.0009
      9  CE1      -18.3430   78.1660   -0.2510 C.ar   43  TYR43       0.0417
     10  CE2      -18.5310   75.9950    0.7240 C.ar   43  TYR43       0.0417
     11  CZ       -18.4230   76.7890   -0.3890 C.ar   43  TYR43       0.1957
     12  OH       -18.3960   76.1980   -1.6450 O.3    43  TYR43      -0.2866
     13  N        -33.1300   73.9760    0.1780 N.3    54  ILE54      -0.1245
     14  CA       -32.4220   73.9340   -1.0960 C.3    54  ILE54       0.1561
     15  C        -32.9160   72.7490   -1.9070 C.2    54  ILE54       0.2260
     16  O        -33.3940   71.7460   -1.3480 O.2    54  ILE54      -0.2867
     17  CB       -30.8710   73.8140   -0.9180 C.3    54  ILE54       0.0252
     18  CG1      -30.5010   72.7090    0.0790 C.3    54  ILE54       0.0019
     19  CG2      -30.2780   75.1370   -0.4320 C.3    54  ILE54       0.0019
     20  CD1      -28.9560   72.4260    0.1820 C.3    54  ILE54       0.0001
     21  N        -32.0570   70.6830   -6.0060 N.3    56  LYS56      -0.1231
     22  CA       -31.2720   70.5410   -7.2210 C.3    56  LYS56       0.1693
     23  C        -32.0400   69.6180   -8.1580 C.2    56  LYS56       0.2593
     24  O        -32.5930   68.6060   -7.7210 O.2    56  LYS56      -0.2718
     25  CB       -29.9000   69.9540   -6.8610 C.3    56  LYS56       0.0285
     26  CG       -28.8050   70.2970   -7.8550 C.3    56  LYS56       0.0035
     27  CD       -27.4050   70.2460   -7.2230 C.3    56  LYS56       0.0206
     28  CE       -27.0830   71.5140   -6.4320 C.3    56  LYS56       0.1093
     29  NZ       -25.6180   71.6510   -6.1830 N.3    56  LYS56      -0.1314
     30  N        -32.1180   69.9640   -9.4380 N.am   57  GLY57      -0.1942
     31  CA       -33.0290   69.2590  -10.3360 C.3    57  GLY57       0.2014
     32  C        -34.4630   69.2320   -9.7840 C.2    57  GLY57       0.2639
     33  O        -35.0000   70.2490   -9.3400 O.2    57  GLY57      -0.2714
     34  N        -35.0750   68.0590   -9.7860 N.am   58  GLY58      -0.1939
     35  CA       -36.4590   67.9150   -9.3410 C.3    58  GLY58       0.2014
     36  C        -36.5130   67.4690   -7.9000 C.2    58  GLY58       0.2638
     37  O        -37.5700   67.0500   -7.4210 O.2    58  GLY58      -0.2714
     38  N        -35.3780   67.5610   -7.2010 N.am   59  PHE59      -0.1973
     39  CA       -35.2990   67.0570   -5.8530 C.3    59  PHE59       0.1639
     40  C        -35.1000   68.1760   -4.8430 C.2    59  PHE59       0.2290
     41  O        -34.2080   69.0070   -4.9960 O.2    59  PHE59      -0.2864
     42  CB       -34.1860   66.0150   -5.7130 C.3    59  PHE59       0.0560
     43  CG       -34.3020   65.1960   -4.4590 C.ar   59  PHE59      -0.0200
     44  CD1      -35.2610   64.2040   -4.3570 C.ar   59  PHE59      -0.0042
     45  CD2      -33.4720   65.4350   -3.3700 C.ar   59  PHE59      -0.0042
     46  CE1      -35.3850   63.4460   -3.1910 C.ar   59  PHE59      -0.0003
     47  CE2      -33.5980   64.6960   -2.2120 C.ar   59  PHE59      -0.0003
     48  CZ       -34.5610   63.7000   -2.1180 C.ar   59  PHE59      -0.0000
     49  N        -34.1130   68.7120   -1.0320 N.3    61  PHE61      -0.1241
     50  CA       -33.3730   67.9990    0.0060 C.3    61  PHE61       0.1605
     51  C        -34.0970   68.1710    1.3390 C.2    61  PHE61       0.2264
     52  O        -34.9100   69.0640    1.4860 O.2    61  PHE61      -0.2867
     53  CB       -31.9420   68.5280    0.0900 C.3    61  PHE61       0.0534
     54  CG       -31.1430   68.3100   -1.1690 C.ar   61  PHE61      -0.0203
     55  CD1      -30.6760   67.0510   -1.4960 C.ar   61  PHE61      -0.0042
     56  CD2      -30.8580   69.3610   -2.0170 C.ar   61  PHE61      -0.0042
     57  CE1      -29.9670   66.8410   -2.6500 C.ar   61  PHE61      -0.0003
     58  CE2      -30.1440   69.1520   -3.1850 C.ar   61  PHE61      -0.0003
     59  CZ       -29.6960   67.8910   -3.4950 C.ar   61  PHE61      -0.0000
     60  N        -25.0130   56.5840    2.8010 N.3    89  TYR89      -0.1241
     61  CA       -24.4910   57.7090    2.0110 C.3    89  TYR89       0.1605
     62  C        -25.6430   58.3770    1.2580 C.2    89  TYR89       0.2264
     63  O        -25.7470   59.5900    1.2090 O.2    89  TYR89      -0.2867
     64  CB       -23.4380   57.1900    1.0030 C.3    89  TYR89       0.0534
     65  CG       -22.9130   58.2170    0.0170 C.ar   89  TYR89      -0.0201
     66  CD1      -22.3090   59.3880    0.4540 C.ar   89  TYR89      -0.0009
     67  CD2      -22.9890   57.9990   -1.3470 C.ar   89  TYR89      -0.0009
     68  CE1      -21.8130   60.3240   -0.4480 C.ar   89  TYR89       0.0417
     69  CE2      -22.4980   58.9140   -2.2450 C.ar   89  TYR89       0.0417
     70  CZ       -21.9190   60.0840   -1.7910 C.ar   89  TYR89       0.1957
     71  OH       -21.4550   61.0150   -2.6950 O.3    89  TYR89      -0.2866
     72  N        -26.7640   62.1890    1.5910 N.3    93  ASN93      -0.1240
     73  CA       -26.9350   63.0950    0.4530 C.3    93  ASN93       0.1653
     74  C        -28.3420   63.7250    0.4090 C.2    93  ASN93       0.2266
     75  O        -28.4900   64.9140    0.1430 O.2    93  ASN93      -0.2867
     76  CB       -26.6450   62.3580   -0.8410 C.3    93  ASN93       0.1155
     77  CG       -26.7880   63.2490   -2.0390 C.2    93  ASN93       0.2627
     78  OD1      -26.0890   64.2600   -2.1510 O.2    93  ASN93      -0.2716
     79  ND2      -27.7130   62.9060   -2.9350 N.am   93  ASN93      -0.0877
     80  N        -28.3240   66.4410    2.8810 N.3    96  HIS96      -0.1241
     81  CA       -27.6050   67.5780    2.2840 C.3    96  HIS96       0.1621
     82  C        -27.4710   68.7110    3.3060 C.2    96  HIS96       0.2264
     83  O        -27.9810   69.8180    3.1040 O.2    96  HIS96      -0.2867
     84  CB       -28.3820   68.0670    1.0540 C.3    96  HIS96       0.0745
     85  CG       -27.5780   68.1120   -0.2030 C.ar   96  HIS96       0.0817
     86  ND1      -27.0860   66.9710   -0.8060 N.ar   96  HIS96      -0.2268
     87  CD2      -27.2430   69.1460   -1.0130 C.ar   96  HIS96       0.1154
     88  CE1      -26.4590   67.3070   -1.9200 C.ar   96  HIS96       0.1986
     89  NE2      -26.5370   68.6220   -2.0660 N.ar   96  HIS96      -0.2212
     90  N        -25.3860   74.4390    3.2590 N.3    99  LEU99      -0.1231
     91  CA       -25.8150   75.2490    2.1150 C.3    99  LEU99       0.1693
     92  C        -25.0230   74.9300    0.8690 C.2    99  LEU99       0.2592
     93  O        -25.5610   74.9890   -0.2320 O.2    99  LEU99      -0.2718
     94  CB       -25.6800   76.7550    2.4070 C.3    99  LEU99       0.0284
     95  CG       -26.7550   77.3730    3.3140 C.3    99  LEU99       0.0019
     96  CD1      -26.4760   78.8840    3.5150 C.3    99  LEU99       0.0001
     97  CD2      -28.1850   77.1240    2.7530 C.3    99  LEU99       0.0001
     98  N        -23.7360   74.6380    1.0450 N.am  100  GLU100     -0.1966
     99  CA       -22.8390   74.3180   -0.0670 C.3   100  GLU100      0.1733
    100  C        -21.7460   73.3740    0.3960 C.2   100  GLU100      0.2617
    101  O        -21.4840   73.2570    1.5990 O.2   100  GLU100     -0.2715
    102  CB       -22.1620   75.5770   -0.6110 C.3   100  GLU100      0.0429
    103  CG       -23.0960   76.6550   -1.1710 C.3   100  GLU100      0.1163
    104  CD       -22.3470   77.6690   -2.0490 C.2   100  GLU100      0.3649
    105  OE1      -21.8980   77.2670   -3.1470 O.co2 100  GLU100     -0.2457
    106  OE2      -22.2030   78.8510   -1.6410 O.co2 100  GLU100     -0.2457
    107  N        -21.1000   72.7290   -0.5730 N.am  101  GLY101     -0.1940
    108  CA       -19.9680   71.8390   -0.3300 C.3   101  GLY101      0.2014
    109  C        -20.3410   70.4920    0.2360 C.2   101  GLY101      0.2639
    110  O        -19.5140   69.8360    0.8960 O.2   101  GLY101     -0.2714
    111  N        -21.5840   70.0610   -0.0130 N.am  102  ASN102     -0.1958
    112  CA       -22.0590   68.7700    0.4820 C.3   102  ASN102      0.1819
    113  C        -21.3910   67.6200   -0.2310 C.2   102  ASN102      0.2622
    114  O        -21.1210   66.6010    0.3680 O.2   102  ASN102     -0.2715
    115  CB       -23.5890   68.6250    0.3320 C.3   102  ASN102      0.1195
    116  CG       -24.3570   69.5370    1.2530 C.2   102  ASN102      0.2630
    117  OD1      -24.5740   69.2030    2.4100 O.2   102  ASN102     -0.2716
    118  ND2      -24.7700   70.7020    0.7490 N.am  102  ASN102     -0.0877
    119  N        -21.1660   67.7780   -1.5220 N.am  103  GLY103     -0.1940
    120  CA       -20.6050   66.7230   -2.3420 C.3   103  GLY103      0.2014
    121  C        -19.1910   66.3110   -1.9700 C.2   103  GLY103      0.2638
    122  O        -18.9210   65.1220   -1.7870 O.2   103  GLY103     -0.2714
    123  N        -18.2900   67.2850   -1.8800 N.am  104  ARG104     -0.1977
    124  CA       -16.8850   67.0250   -1.5750 C.3   104  ARG104      0.1597
    125  C        -16.7300   66.5400   -0.1260 C.2   104  ARG104      0.2287
    126  O        -15.9990   65.5950    0.1380 O.2   104  ARG104     -0.2864
    127  CB       -16.0660   68.2930   -1.7540 C.3   104  ARG104      0.0334
    128  CG       -15.9070   68.7680   -3.1990 C.3   104  ARG104      0.0492
    129  CD       -15.9870   70.2710   -3.2450 C.3   104  ARG104      0.2205
    130  NE       -15.7140   70.7810   -4.5780 N.pl3 104  ARG104     -0.0865
    131  CZ       -15.6690   72.0730   -4.9090 C.cat 104  ARG104      0.5346
    132  NH1      -15.8990   73.0030   -3.9960 N.pl3 104  ARG104      0.1354
    133  NH2      -15.3930   72.4210   -6.1700 N.pl3 104  ARG104      0.1354
    134  N        -18.3650   62.8640    0.3170 N.3   107  ARG107     -0.1245
    135  CA       -17.5700   61.7920   -0.3380 C.3   107  ARG107      0.1563
    136  C        -16.3610   61.3430    0.5250 C.2   107  ARG107      0.2260
    137  O        -16.0530   60.1420    0.6100 O.2   107  ARG107     -0.2867
    138  CB       -17.0990   62.2030   -1.7300 C.3   107  ARG107      0.0307
    139  CG       -18.1580   62.0230   -2.8010 C.3   107  ARG107      0.0489
    140  CD       -17.6340   62.3190   -4.1990 C.3   107  ARG107      0.2205
    141  NE       -17.3000   63.7340   -4.4100 N.pl3 107  ARG107     -0.0865
    142  CZ       -18.1890   64.6830   -4.6750 C.cat 107  ARG107      0.5346
    143  NH1      -19.4910   64.3900   -4.7310 N.pl3 107  ARG107      0.1354
    144  NH2      -17.7890   65.9340   -4.8460 N.pl3 107  ARG107      0.1354
    145  N        -21.2730   59.5120  -12.3400 N.3   132  TYR132     -0.1227
    146  CA       -21.4210   59.7530  -10.9040 C.3   132  TYR132      0.1736
    147  C        -22.5850   60.7000  -10.6390 C.2   132  TYR132      0.2595
    148  O        -23.3960   60.4500   -9.7550 O.2   132  TYR132     -0.2718
    149  CB       -20.1410   60.3320  -10.2750 C.3   132  TYR132      0.0548
    150  CG       -20.3700   60.7840   -8.8420 C.ar  132  TYR132     -0.0200
    151  CD1      -20.5020   59.8650   -7.8180 C.ar  132  TYR132     -0.0009
    152  CD2      -20.5140   62.1230   -8.5350 C.ar  132  TYR132     -0.0009
    153  CE1      -20.7550   60.2850   -6.5080 C.ar  132  TYR132      0.0417
    154  CE2      -20.7740   62.5410   -7.2530 C.ar  132  TYR132      0.0417
    155  CZ       -20.8880   61.6270   -6.2500 C.ar  132  TYR132      0.1957
    156  OH       -21.1510   62.0790   -4.9820 O.3   132  TYR132     -0.2866
    157  N        -22.6530   61.8020  -11.3810 N.am  133  LEU133     -0.1980
    158  CA       -23.7120   62.7760  -11.1340 C.3   133  LEU133      0.1596
    159  C        -25.0890   62.1790  -11.4900 C.2   133  LEU133      0.2287
    160  O        -26.0460   62.3520  -10.7560 O.2   133  LEU133     -0.2864
    161  CB       -23.4540   64.0970  -11.8740 C.3   133  LEU133      0.0297
    162  CG       -22.2950   64.9710  -11.3480 C.3   133  LEU133      0.0022
    163  CD1      -22.0740   66.2060  -12.2520 C.3   133  LEU133      0.0001
    164  CD2      -22.5530   65.4130   -9.9140 C.3   133  LEU133      0.0001
    165  N        -26.1110   59.7900   -8.6580 N.3   136  MET136     -0.1230
    166  CA       -26.4910   60.4890   -7.4190 C.3   136  MET136      0.1702
    167  C        -27.9070   61.0570   -7.5470 C.2   136  MET136      0.2592
    168  O        -28.7190   60.9470   -6.6280 O.2   136  MET136     -0.2718
    169  CB       -25.5130   61.6410   -7.0820 C.3   136  MET136      0.0401
    170  CG       -24.1020   61.2120   -6.6320 C.3   136  MET136      0.0596
    171  SD       -24.1040   60.0870   -5.2270 S.3   136  MET136     -0.1393
    172  CE       -24.7080   61.1400   -3.9290 C.3   136  MET136      0.0692
    173  N        -28.1840   61.6760   -8.6820 N.am  137  GLU137     -0.1979
    174  CA       -29.5180   62.2240   -8.9700 C.3   137  GLU137      0.1602
    175  C        -30.6200   61.1300   -8.9200 C.2   137  GLU137      0.2287
    176  O        -31.7330   61.3940   -8.5180 O.2   137  GLU137     -0.2864
    177  CB       -29.5200   62.9080  -10.3540 C.3   137  GLU137      0.0415
    178  CG       -28.7200   64.2250  -10.4310 C.3   137  GLU137      0.1163
    179  CD       -28.4280   64.6690  -11.8840 C.2   137  GLU137      0.3649
    180  OE1      -28.6730   63.8760  -12.8050 O.co2 137  GLU137     -0.2457
    181  OE2      -27.9620   65.8100  -12.1090 O.co2 137  GLU137     -0.2457
    182  N        -31.9770   58.7010   -4.7490 N.3   140  PRO140     -0.2116
    183  CA       -33.1470   58.6630   -3.8790 C.3   140  PRO140      0.1372
    184  C        -34.2010   57.6490   -4.3030 C.2   140  PRO140      0.2244
    185  O        -34.8000   57.0510   -3.4630 O.2   140  PRO140     -0.2868
    186  CB       -33.7060   60.0680   -4.0040 C.3   140  PRO140      0.0268
    187  CG       -32.5370   60.8970   -4.3280 C.3   140  PRO140      0.0207
    188  CD       -31.7220   60.0570   -5.2410 C.3   140  PRO140      0.0892
    189  N        -17.9050   68.9930   -8.9910 N.3   175  GLU175     -0.1245
    190  CA       -18.6540   70.2400   -8.8010 C.3   175  GLU175      0.1567
    191  C        -18.1110   71.4540   -9.5440 C.2   175  GLU175      0.2260
    192  O        -18.4150   72.5710   -9.1650 O.2   175  GLU175     -0.2867
    193  CB       -18.7710   70.5850   -7.3180 C.3   175  GLU175      0.0388
    194  CG       -20.0570   70.0770   -6.6540 C.3   175  GLU175      0.1160
    195  CD       -20.1740   68.6010   -6.6690 C.2   175  GLU175      0.3649
    196  OE1      -19.5420   67.9480   -5.8310 O.co2 175  GLU175     -0.2457
    197  OE2      -20.9210   68.0950   -7.5160 O.co2 175  GLU175     -0.2457
@<TRIPOS>BOND
     1   180   179   ar
     2   145   146    1
     3   163   162    1
     4   181   179   ar
     5   179   178    1
     6   161   162    1
     7   161   158    1
     8   159   158    1
     9   159   160    2
    10   157   158    1
    11   157   147   am
    12   162   164    1
    13   146   147    1
    14   146   149    1
    15   147   148    2
    16   178   177    1
    17   177   174    1
    18    31    32    1
    19    31    30    1
    20   149   150    1
    21    34    32   am
    22    34    35    1
    23    32    33    2
    24   191   192    2
    25   191   190    1
    26    30    23   am
    27    35    36    1
    28   189   190    1
    29   174   175    1
    30   174   173    1
    31   175   176    2
    32   150   152   ar
    33   150   151   ar
    34   190   193    1
    35   173   167   am
    36   165   166    1
    37   152   154   ar
    38    23    24    2
    39    23    22    1
    40    36    37    2
    41    36    38   am
    42    26    27    1
    43    26    25    1
    44   151   153   ar
    45   167   166    1
    46   167   168    2
    47   197   195   ar
    48   166   169    1
    49   193   194    1
    50   154   155   ar
    51    27    28    1
    52    22    25    1
    53    22    21    1
    54    38    39    1
    55   169   170    1
    56   195   194    1
    57   195   196   ar
    58   170   171    1
    59   153   155   ar
    60    28    29    1
    61   155   156    1
    62   133   131    1
    63    39    42    1
    64    39    40    1
    65    42    43    1
    66   188   182    1
    67   188   187    1
    68   171   172    1
    69    41    40    2
    70   131   130    2
    71   131   132    1
    72   144   142    1
    73   182   183    1
    74   143   142    1
    75   142   141    2
    76   130   129    1
    77    43    44   ar
    78    43    45   ar
    79   141   140    1
    80    44    46   ar
    81   187   186    1
    82   184   183    1
    83   184   185    2
    84   140   139    1
    85   186   183    1
    86    59    58   ar
    87    59    57   ar
    88    45    47   ar
    89   129   128    1
    90   128   127    1
    91    46    48   ar
    92    58    56   ar
    93   105   104   ar
    94    79    77   am
    95   139   138    1
    96    71    70    1
    97    57    55   ar
    98   120   121    1
    99   120   119    1
   100    69    70   ar
   101    69    67   ar
   102    47    48   ar
   103    78    77    2
   104    89    88   ar
   105    89    87   ar
   106   104   106   ar
   107   104   103    1
   108    77    76    1
   109    56    54   ar
   110   121   123   am
   111   121   122    2
   112    88    86   ar
   113    15    16    2
   114    15    14    1
   115   123   124    1
   116    70    68   ar
   117   127   124    1
   118   138   135    1
   119    12    11    1
   120   124   125    1
   121   119   113   am
   122    55    54   ar
   123    67    65   ar
   124   103   102    1
   125    54    53    1
   126    14    17    1
   127    14    13    1
   128    49    50    1
   129    87    85   ar
   130    17    19    1
   131    17    18    1
   132    76    73    1
   133    86    85   ar
   134   102    99    1
   135   107   108    1
   136   107   100   am
   137    68    66   ar
   138    11     9   ar
   139    11    10   ar
   140   135   134    1
   141   135   136    1
   142   108   109    1
   143     9     7   ar
   144    93    92    2
   145   113   114    2
   146   113   112    1
   147    85    84    1
   148   125   126    2
   149    99   100    1
   150    99    98    1
   151   111   109   am
   152   111   112    1
   153    50    53    1
   154    50    51    1
   155    65    66   ar
   156    65    64    1
   157    18    20    1
   158    75    74    2
   159   109   110    2
   160   115   112    1
   161   115   116    1
   162   100   101    2
   163    74    73    1
   164    73    72    1
   165   136   137    2
   166    10     8   ar
   167   118   116   am
   168    92    98   am
   169    92    91    1
   170    64    61    1
   171     7     6   ar
   172    84    81    1
   173    63    62    2
   174   116   117    2
   175    62    61    1
   176    51    52    2
   177     8     6   ar
   178    61    60    1
   179    91    94    1
   180    91    90    1
   181     6     5    1
   182    81    80    1
   183    81    82    1
   184    94    95    1
   185    97    95    1
   186    83    82    2
   187    95    96    1
   188     5     2    1
   189     1     2    1
   190     2     3    1
   191     3     4    2
