@<TRIPOS>MOLECULE
tmp/3s6fA00.pdb
 171 168 0 0 0
SMALL
GASTEIGER

@<TRIPOS>ATOM
      1  N         18.8210   29.3710   30.8770 N.3    27  GLU27      -0.1245
      2  CA        17.9430   28.2420   30.6080 C.3    27  GLU27       0.1567
      3  C         18.1830   27.2000   31.7010 C.2    27  GLU27       0.2260
      4  O         19.3320   26.8360   32.0230 O.2    27  GLU27      -0.2867
      5  CB        18.1950   27.6420   29.2080 C.3    27  GLU27       0.0388
      6  CG        17.1670   26.5510   28.7990 C.3    27  GLU27       0.1160
      7  CD        17.6160   25.6550   27.6060 C.2    27  GLU27       0.3649
      8  OE1       18.5290   26.0450   26.8430 O.co2  27  GLU27      -0.2457
      9  OE2       17.0220   24.5580   27.3830 O.co2  27  GLU27      -0.2457
     10  N         32.9520   32.9140   34.4430 N.3    75  PRO75      -0.2102
     11  CA        31.7990   32.4090   35.1790 C.3    75  PRO75       0.1504
     12  C         30.6810   31.8210   34.3430 C.2    75  PRO75       0.2576
     13  O         30.0600   30.8410   34.7540 O.2    75  PRO75      -0.2718
     14  CB        31.3160   33.6550   35.9650 C.3    75  PRO75       0.0282
     15  CG        32.5310   34.5340   36.0740 C.3    75  PRO75       0.0208
     16  CD        33.2260   34.3320   34.7510 C.3    75  PRO75       0.0893
     17  N         30.3620   32.4840   33.2360 N.am   76  LEU76      -0.1966
     18  CA        29.1670   32.1940   32.4370 C.3    76  LEU76       0.1728
     19  C         29.4860   32.1270   30.9670 C.2    76  LEU76       0.2616
     20  O         30.1740   33.0020   30.4320 O.2    76  LEU76      -0.2715
     21  CB        28.0950   33.2650   32.6580 C.3    76  LEU76       0.0311
     22  CG        27.6000   33.5190   34.0780 C.3    76  LEU76       0.0022
     23  CD1       26.7590   34.8030   34.1050 C.3    76  LEU76       0.0001
     24  CD2       26.8330   32.3100   34.6440 C.3    76  LEU76       0.0001
     25  N         28.9270   31.1300   30.2960 N.am   77  LEU77      -0.1963
     26  CA        28.9390   30.9800   28.8450 C.3    77  LEU77       0.1728
     27  C         27.5840   30.4110   28.4620 C.2    77  LEU77       0.2616
     28  O         27.2130   29.3450   28.9590 O.2    77  LEU77      -0.2715
     29  CB        30.0580   30.0350   28.4000 C.3    77  LEU77       0.0311
     30  CG        30.0460   29.6030   26.9270 C.3    77  LEU77       0.0022
     31  CD1       30.3930   30.7690   26.0030 C.3    77  LEU77       0.0001
     32  CD2       30.9660   28.4020   26.7160 C.3    77  LEU77       0.0001
     33  N         26.8730   31.0580   27.5470 N.am   78  GLU78      -0.1963
     34  CA        25.6010   30.5070   27.1330 C.3    78  GLU78       0.1733
     35  C         25.2500   30.9950   25.7490 C.2    78  GLU78       0.2616
     36  O         25.4090   32.1530   25.3880 O.2    78  GLU78      -0.2715
     37  CB        24.4670   30.8880   28.0910 C.3    78  GLU78       0.0429
     38  CG        23.1720   30.1340   27.8380 C.3    78  GLU78       0.1163
     39  CD        22.1120   30.3800   28.9110 C.2    78  GLU78       0.3649
     40  OE1       22.3320   31.2550   29.7820 O.co2  78  GLU78      -0.2457
     41  OE2       21.0500   29.7090   28.8610 O.co2  78  GLU78      -0.2457
     42  N         24.7460   30.0450   24.9570 N.am   79  VAL79      -0.1977
     43  CA        24.1590   30.2920   23.6460 C.3    79  VAL79       0.1596
     44  C         22.7170   29.8370   23.7290 C.2    79  VAL79       0.2287
     45  O         22.4220   28.7600   24.2390 O.2    79  VAL79      -0.2864
     46  CB        24.9270   29.5460   22.5220 C.3    79  VAL79       0.0276
     47  CG1       24.2060   29.6140   21.1880 C.3    79  VAL79       0.0022
     48  CG2       26.3710   30.0800   22.4230 C.3    79  VAL79       0.0022
     49  N         22.5860   26.9440   19.0780 N.3    84  ARG84      -0.1231
     50  CA        23.6430   26.0040   19.4220 C.3    84  ARG84       0.1694
     51  C         24.0110   25.1350   18.2250 C.2    84  ARG84       0.2593
     52  O         23.2440   25.0060   17.2570 O.2    84  ARG84      -0.2718
     53  CB        23.1990   25.1380   20.6040 C.3    84  ARG84       0.0321
     54  CG        23.0370   25.9490   21.8620 C.3    84  ARG84       0.0489
     55  CD        22.5270   25.1120   23.0240 C.3    84  ARG84       0.2205
     56  NE        22.2570   25.9860   24.1580 N.pl3  84  ARG84      -0.0865
     57  CZ        21.3460   25.7920   25.0680 C.cat  84  ARG84       0.5346
     58  NH1       20.6900   24.6410   25.1780 N.pl3  84  ARG84       0.1354
     59  NH2       21.1360   26.6900   25.9890 N.pl3  84  ARG84       0.1354
     60  N         25.1630   24.4790   18.3160 N.am   85  SER85      -0.1938
     61  CA        25.5850   23.4880   17.3290 C.3    85  SER85       0.2055
     62  C         26.0110   24.1140   16.0020 C.2    85  SER85       0.2643
     63  O         26.0300   23.4300   14.9510 O.2    85  SER85      -0.2714
     64  CB        24.5370   22.3980   17.1070 C.3    85  SER85       0.2130
     65  OG        25.1090   21.2320   16.5280 O.3    85  SER85      -0.2179
     66  N         26.3620   25.3910   16.0280 N.am   86  LEU86      -0.1963
     67  CA        26.8770   26.1120   14.8710 C.3    86  LEU86       0.1728
     68  C         28.3040   26.5930   15.0790 C.2    86  LEU86       0.2617
     69  O         28.8720   27.2440   14.2110 O.2    86  LEU86      -0.2715
     70  CB        25.9960   27.3130   14.5360 C.3    86  LEU86       0.0311
     71  CG        24.5860   27.0460   14.1190 C.3    86  LEU86       0.0022
     72  CD1       23.7630   28.3220   14.0500 C.3    86  LEU86       0.0001
     73  CD2       24.5770   26.2640   12.7750 C.3    86  LEU86       0.0001
     74  N         28.8870   26.3140   16.2430 N.am   87  GLY87      -0.1940
     75  CA        30.2130   26.7990   16.5870 C.3    87  GLY87       0.2014
     76  C         30.2640   28.1000   17.3550 C.2    87  GLY87       0.2639
     77  O         31.3480   28.6040   17.6760 O.2    87  GLY87      -0.2714
     78  N         29.1020   28.6410   17.7210 N.am   88  LEU88      -0.1963
     79  CA        29.0710   29.9520   18.3800 C.3    88  LEU88       0.1728
     80  C         29.6900   29.9230   19.7880 C.2    88  LEU88       0.2617
     81  O         30.3830   30.8680   20.1860 O.2    88  LEU88      -0.2715
     82  CB        27.6740   30.5230   18.3520 C.3    88  LEU88       0.0311
     83  CG        27.5150   31.9330   18.8990 C.3    88  LEU88       0.0022
     84  CD1       28.3970   32.9160   18.1610 C.3    88  LEU88       0.0001
     85  CD2       26.0720   32.3360   18.8880 C.3    88  LEU88       0.0001
     86  N         29.4110   28.8770   20.5610 N.am   89  GLY89      -0.1940
     87  CA        29.9920   28.8010   21.8840 C.3    89  GLY89       0.2014
     88  C         31.5070   28.7730   21.8360 C.2    89  GLY89       0.2639
     89  O         32.1800   29.4300   22.6280 O.2    89  GLY89      -0.2714
     90  N         32.0550   27.9690   20.9210 N.am   90  SER90      -0.1949
     91  CA        33.5010   27.9020   20.7450 C.3    90  SER90       0.1924
     92  C         34.0690   29.2490   20.3100 C.2    90  SER90       0.2314
     93  O         35.1330   29.6640   20.7880 O.2    90  SER90      -0.2863
     94  CB        33.8500   26.8320   19.7330 C.3    90  SER90       0.2116
     95  OG        33.5060   25.5350   20.2230 O.3    90  SER90      -0.2180
     96  N         34.7650   26.4490   35.8740 N.3   107  SER107     -0.1202
     97  CA        34.1370   25.2400   36.4340 C.3   107  SER107      0.2020
     98  C         33.0980   24.6700   35.5000 C.2   107  SER107      0.2619
     99  O         32.3610   25.4130   34.8430 O.2   107  SER107     -0.2717
    100  CB        33.4740   25.5260   37.7780 C.3   107  SER107      0.2103
    101  OG        34.4240   26.0540   38.7000 O.3   107  SER107     -0.2182
    102  N         32.9850   23.3440   35.4580 N.am  108  CYS108     -0.1955
    103  CA        31.9100   22.7520   34.6720 C.3   108  CYS108      0.1843
    104  C         31.5490   21.3600   35.1570 C.2   108  CYS108      0.2625
    105  O         32.3040   20.7120   35.8760 O.2   108  CYS108     -0.2714
    106  CB        32.2580   22.7570   33.1840 C.3   108  CYS108      0.0997
    107  SG        33.4930   21.5460   32.6940 S.3   108  CYS108     -0.0797
    108  N         30.4300   20.8880   34.6510 N.am  109  ASP109     -0.1971
    109  CA        29.9760   19.5280   34.9160 C.3   109  ASP109      0.1709
    110  C         30.6080   18.5480   33.9290 C.2   109  ASP109      0.2293
    111  O         31.2420   18.9280   32.9330 O.2   109  ASP109     -0.2864
    112  CB        28.4480   19.4930   34.8960 C.3   109  ASP109      0.1436
    113  CG        27.8400   20.1770   36.1250 C.2   109  ASP109      0.3671
    114  OD1       28.3250   19.9090   37.2480 O.co2 109  ASP109     -0.2456
    115  OD2       26.9010   20.9840   35.9600 O.co2 109  ASP109     -0.2456
    116  N         29.4070   16.6410   31.6300 N.3   111  ASP111     -0.1225
    117  CA        28.8490   16.5570   30.2750 C.3   111  ASP111      0.1805
    118  C         29.5070   17.5080   29.2750 C.2   111  ASP111      0.2597
    119  O         29.5920   17.2080   28.0850 O.2   111  ASP111     -0.2718
    120  CB        27.3050   16.7340   30.2810 C.3   111  ASP111      0.1424
    121  CG        26.8380   18.1110   30.7620 C.2   111  ASP111      0.3668
    122  OD1       27.6130   18.8620   31.3910 O.co2 111  ASP111     -0.2456
    123  OD2       25.6480   18.4400   30.5470 O.co2 111  ASP111     -0.2456
    124  N         29.9960   18.6750   29.7430 N.am  112  VAL112     -0.1980
    125  CA        30.5540   19.6840   28.8520 C.3   112  VAL112      0.1595
    126  C         32.1040   19.6670   28.8290 C.2   112  VAL112      0.2287
    127  O         32.7470   20.4500   28.1280 O.2   112  VAL112     -0.2864
    128  CB        29.9620   21.0470   29.2400 C.3   112  VAL112      0.0276
    129  CG1       30.5900   21.5470   30.4800 C.3   112  VAL112      0.0022
    130  CG2       30.1050   22.0420   28.1200 C.3   112  VAL112      0.0022
    131  N         34.1010   17.6660   27.2150 N.3   114  PRO114     -0.2102
    132  CA        34.6780   17.5810   25.8780 C.3   114  PRO114      0.1504
    133  C         34.6430   18.8880   25.0760 C.2   114  PRO114      0.2576
    134  O         35.5750   19.1750   24.3340 O.2   114  PRO114     -0.2718
    135  CB        33.8530   16.4570   25.1930 C.3   114  PRO114      0.0282
    136  CG        33.3200   15.6450   26.3170 C.3   114  PRO114      0.0208
    137  CD        33.1010   16.6170   27.4620 C.3   114  PRO114      0.0893
    138  N         33.6140   19.7050   25.2810 N.am  115  PHE115     -0.1963
    139  CA        33.5360   21.0080   24.6310 C.3   115  PHE115      0.1771
    140  C         34.7930   21.8360   24.9600 C.2   115  PHE115      0.2619
    141  O         35.3730   22.4800   24.0990 O.2   115  PHE115     -0.2715
    142  CB        32.2540   21.7100   25.0830 C.3   115  PHE115      0.0574
    143  CG        32.2030   23.1670   24.7180 C.ar  115  PHE115     -0.0200
    144  CD1       31.7490   23.5660   23.4800 C.ar  115  PHE115     -0.0042
    145  CD2       32.5660   24.1540   25.6010 C.ar  115  PHE115     -0.0042
    146  CE1       31.7280   24.9070   23.1100 C.ar  115  PHE115     -0.0003
    147  CE2       32.5300   25.4770   25.1950 C.ar  115  PHE115     -0.0003
    148  CZ        32.1140   25.8820   24.0080 C.ar  115  PHE115     -0.0000
    149  N         35.1550   21.8330   26.2280 N.am  116  TYR116     -0.1974
    150  CA        36.3020   22.6040   26.6720 C.3   116  TYR116      0.1639
    151  C         37.6390   21.9620   26.2930 C.2   116  TYR116      0.2290
    152  O         38.5980   22.6550   25.9530 O.2   116  TYR116     -0.2864
    153  CB        36.2380   22.8720   28.1790 C.3   116  TYR116      0.0560
    154  CG        35.1040   23.7840   28.5590 C.ar  116  TYR116     -0.0198
    155  CD1       35.1460   25.1270   28.2090 C.ar  116  TYR116     -0.0009
    156  CD2       34.0090   23.3390   29.2830 C.ar  116  TYR116     -0.0009
    157  CE1       34.1080   26.0100   28.5300 C.ar  116  TYR116      0.0417
    158  CE2       32.9700   24.2280   29.6260 C.ar  116  TYR116      0.0417
    159  CZ        33.0330   25.5480   29.2490 C.ar  116  TYR116      0.1957
    160  OH        32.0360   26.4310   29.6120 O.3   116  TYR116     -0.2866
    161  N         38.1840   20.3580   23.5860 N.3   118  ARG118     -0.1245
    162  CA        38.4470   20.6500   22.1710 C.3   118  ARG118      0.1563
    163  C         38.9740   22.0620   21.9400 C.2   118  ARG118      0.2260
    164  O         39.6380   22.3280   20.9290 O.2   118  ARG118     -0.2867
    165  CB        37.2110   20.3680   21.3220 C.3   118  ARG118      0.0307
    166  CG        36.9470   18.8740   21.1700 C.3   118  ARG118      0.0489
    167  CD        35.7290   18.5540   20.2690 C.3   118  ARG118      0.2205
    168  NE        34.8660   17.5260   20.8790 N.pl3 118  ARG118     -0.0865
    169  CZ        33.6510   17.7340   21.3830 C.cat 118  ARG118      0.5346
    170  NH1       33.0640   18.9310   21.3490 N.pl3 118  ARG118      0.1354
    171  NH2       32.9910   16.7090   21.8960 N.pl3 118  ARG118      0.1354
@<TRIPOS>BOND
     1    73    71    1
     2    72    71    1
     3    71    70    1
     4    69    68    2
     5    70    67    1
     6    67    68    1
     7    67    66    1
     8    63    62    2
     9    68    74   am
    10    62    66   am
    11    62    61    1
    12    74    75    1
    13    65    64    1
    14    75    76    1
    15    64    61    1
    16    52    51    2
    17    61    60    1
    18    76    77    2
    19    76    78   am
    20    78    79    1
    21    84    83    1
    22    51    60   am
    23    51    50    1
    24    82    79    1
    25    82    83    1
    26    79    80    1
    27    85    83    1
    28    49    50    1
    29    50    53    1
    30    94    95    1
    31    94    91    1
    32    80    81    2
    33    80    86   am
    34   167   168    1
    35   167   166    1
    36    92    91    1
    37    92    93    2
    38    86    87    1
    39    53    54    1
    40    91    90    1
    41   168   169    2
    42    90    88   am
    43   164   163    2
    44   166   165    1
    45    47    46    1
    46   165   162    1
    47   170   169    1
    48   169   171    1
    49    88    87    1
    50    88    89    2
    51    54    55    1
    52   163   162    1
    53   162   161    1
    54    48    46    1
    55    46    43    1
    56    55    56    1
    57   146   144   ar
    58   146   148   ar
    59   144   143   ar
    60    43    44    1
    61    43    42    1
    62    44    45    2
    63   148   147   ar
    64   141   140    2
    65    56    57    2
    66   134   133    2
    67   139   140    1
    68   139   142    1
    69   139   138    1
    70   143   142    1
    71   143   145   ar
    72    42    35   am
    73   140   149   am
    74    57    58    1
    75    57    59    1
    76   133   138   am
    77   133   132    1
    78   135   132    1
    79   135   136    1
    80   147   145   ar
    81    36    35    2
    82    35    34    1
    83   132   131    1
    84   152   151    2
    85    31    30    1
    86   149   150    1
    87   151   150    1
    88   136   137    1
    89   150   153    1
    90    32    30    1
    91     8     7   ar
    92    30    29    1
    93    34    33    1
    94    34    37    1
    95   131   137    1
    96     9     7   ar
    97    33    27   am
    98     7     6    1
    99    38    37    1
   100    38    39    1
   101   119   118    2
   102   130   128    1
   103   127   126    2
   104   153   154    1
   105   155   157   ar
   106   155   154   ar
   107    29    26    1
   108    27    26    1
   109    27    28    2
   110   157   159   ar
   111   154   156   ar
   112     6     5    1
   113   126   125    1
   114    26    25    1
   115   125   128    1
   116   125   124    1
   117    41    39   ar
   118    39    40   ar
   119     5     2    1
   120   128   129    1
   121   159   160    1
   122   159   158   ar
   123   118   124   am
   124   118   117    1
   125   156   158   ar
   126   117   120    1
   127   117   116    1
   128   120   121    1
   129    25    19   am
   130    20    19    2
   131   123   121   ar
   132     2     1    1
   133     2     3    1
   134   121   122   ar
   135    19    18    1
   136     3     4    2
   137    18    21    1
   138    18    17    1
   139    21    22    1
   140   107   106    1
   141   111   110    2
   142   106   103    1
   143    17    12   am
   144   110   109    1
   145    22    23    1
   146    22    24    1
   147    12    13    2
   148    12    11    1
   149    10    16    1
   150    10    11    1
   151   108   109    1
   152   108   104   am
   153   103   104    1
   154   103   102    1
   155    16    15    1
   156    99    98    2
   157   112   109    1
   158   112   113    1
   159   104   105    2
   160    11    14    1
   161   102    98   am
   162    98    97    1
   163    96    97    1
   164   115   113   ar
   165    14    15    1
   166   113   114   ar
   167    97   100    1
   168   100   101    1
