@<TRIPOS>MOLECULE
tmp/3s6gD01.pdb
 115 113 0 0 0
SMALL
GASTEIGER

@<TRIPOS>ATOM
      1  N         68.5450   41.0620   77.1760 N.3   279  PHE279     -0.1241
      2  CA        68.9240   41.1580   78.5800 C.3   279  PHE279      0.1605
      3  C         67.7020   40.9920   79.4590 C.2   279  PHE279      0.2264
      4  O         66.5830   40.7590   78.9750 O.2   279  PHE279     -0.2867
      5  CB        69.5990   42.4960   78.8660 C.3   279  PHE279      0.0534
      6  CG        70.7530   42.7720   77.9700 C.ar  279  PHE279     -0.0203
      7  CD1       72.0430   42.5800   78.4080 C.ar  279  PHE279     -0.0042
      8  CD2       70.5470   43.1920   76.6710 C.ar  279  PHE279     -0.0042
      9  CE1       73.1120   42.8200   77.5660 C.ar  279  PHE279     -0.0003
     10  CE2       71.6060   43.4240   75.8270 C.ar  279  PHE279     -0.0003
     11  CZ        72.8880   43.2380   76.2710 C.ar  279  PHE279     -0.0000
     12  N         66.2060   43.2460   81.4280 N.3   281  ARG281     -0.1245
     13  CA        65.3660   44.4320   81.5650 C.3   281  ARG281      0.1563
     14  C         65.5100   45.3950   80.3800 C.2   281  ARG281      0.2260
     15  O         66.2510   45.1090   79.4410 O.2   281  ARG281     -0.2867
     16  CB        65.7020   45.1380   82.8890 C.3   281  ARG281      0.0307
     17  CG        66.9820   44.6480   83.5690 C.3   281  ARG281      0.0489
     18  CD        68.1830   44.8620   82.6880 C.3   281  ARG281      0.2205
     19  NE        69.4230   44.9310   83.4480 N.pl3 281  ARG281     -0.0865
     20  CZ        70.3390   43.9750   83.4690 C.cat 281  ARG281      0.5346
     21  NH1       70.1580   42.8610   82.7740 N.pl3 281  ARG281      0.1354
     22  NH2       71.4380   44.1410   84.1850 N.pl3 281  ARG281      0.1354
     23  N         84.2790   52.1340   71.7070 N.3   316  TYR316     -0.1241
     24  CA        83.6820   51.5460   72.8950 C.3   316  TYR316      0.1605
     25  C         82.4060   50.8110   72.4670 C.2   316  TYR316      0.2264
     26  O         81.6140   51.3300   71.6810 O.2   316  TYR316     -0.2867
     27  CB        83.3660   52.6460   73.9290 C.3   316  TYR316      0.0534
     28  CG        82.6010   52.1610   75.1560 C.ar  316  TYR316     -0.0201
     29  CD1       83.2780   51.6190   76.2560 C.ar  316  TYR316     -0.0009
     30  CD2       81.2020   52.2340   75.2130 C.ar  316  TYR316     -0.0009
     31  CE1       82.5960   51.1680   77.3690 C.ar  316  TYR316      0.0417
     32  CE2       80.5020   51.7840   76.3300 C.ar  316  TYR316      0.0417
     33  CZ        81.2110   51.2530   77.4080 C.ar  316  TYR316      0.1957
     34  OH        80.5400   50.8070   78.5300 O.3   316  TYR316     -0.2866
     35  N         78.8690   49.7230   73.1630 N.3   318  ASP318     -0.1225
     36  CA        77.8560   50.1940   74.0920 C.3   318  ASP318      0.1805
     37  C         76.7440   49.1860   74.3060 C.2   318  ASP318      0.2597
     38  O         76.0940   49.1900   75.3490 O.2   318  ASP318     -0.2718
     39  CB        77.2670   51.5180   73.6060 C.3   318  ASP318      0.1424
     40  CG        76.8730   52.4260   74.7510 C.2   318  ASP318      0.3668
     41  OD1       75.6900   52.4420   75.1120 O.co2 318  ASP318     -0.2456
     42  OD2       77.7560   53.1120   75.3040 O.co2 318  ASP318     -0.2456
     43  N         76.5450   48.3300   73.3080 N.am  319  LYS319     -0.1979
     44  CA        75.4060   47.4350   73.2550 C.3   319  LYS319      0.1596
     45  C         75.6880   46.2420   72.3440 C.2   319  LYS319      0.2287
     46  O         76.0450   46.4130   71.1740 O.2   319  LYS319     -0.2864
     47  CB        74.1990   48.1970   72.7190 C.3   319  LYS319      0.0298
     48  CG        72.8670   47.6040   73.0900 C.3   319  LYS319      0.0038
     49  CD        72.7170   47.6080   74.5770 C.3   319  LYS319      0.0206
     50  CE        72.8720   48.9950   75.1110 C.3   319  LYS319      0.1093
     51  NZ        73.4460   48.9670   76.4790 N.3   319  LYS319     -0.1314
     52  N         82.3390   46.5940   78.6900 N.3   348  ARG348     -0.1231
     53  CA        82.1710   46.1460   80.0610 C.3   348  ARG348      0.1694
     54  C         80.9630   45.2750   80.2080 C.2   348  ARG348      0.2593
     55  O         80.1030   45.2320   79.3450 O.2   348  ARG348     -0.2718
     56  CB        82.1040   47.3140   81.0360 C.3   348  ARG348      0.0321
     57  CG        80.8960   48.1600   80.8930 C.3   348  ARG348      0.0489
     58  CD        80.8270   49.1820   82.0040 C.3   348  ARG348      0.2205
     59  NE        79.4820   49.7180   82.0700 N.pl3 348  ARG348     -0.0865
     60  CZ        79.1570   50.8450   82.6800 C.cat 348  ARG348      0.5346
     61  NH1       80.0980   51.5590   83.2750 N.pl3 348  ARG348      0.1354
     62  NH2       77.8930   51.2540   82.6920 N.pl3 348  ARG348      0.1354
     63  N         80.9130   44.5530   81.3080 N.am  349  SER349     -0.1938
     64  CA        79.8430   43.6040   81.4960 C.3   349  SER349      0.2055
     65  C         79.6520   43.4250   82.9800 C.2   349  SER349      0.2642
     66  O         80.5810   43.6400   83.7620 O.2   349  SER349     -0.2714
     67  CB        80.1890   42.2970   80.8070 C.3   349  SER349      0.2130
     68  OG        79.1730   41.3390   81.0050 O.3   349  SER349     -0.2179
     69  N         78.4340   43.1070   83.3860 N.am  350  ARG350     -0.1977
     70  CA        78.2040   42.8870   84.8010 C.3   350  ARG350      0.1597
     71  C         78.8510   41.5630   85.0670 C.2   350  ARG350      0.2287
     72  O         78.8140   40.6710   84.2260 O.2   350  ARG350     -0.2864
     73  CB        76.7130   42.8820   85.1530 C.3   350  ARG350      0.0334
     74  CG        76.0840   44.2560   85.0470 C.3   350  ARG350      0.0492
     75  CD        74.6430   44.2880   85.5270 C.3   350  ARG350      0.2205
     76  NE        74.1820   45.6660   85.6250 N.pl3 350  ARG350     -0.0865
     77  CZ        74.2950   46.4170   86.7200 C.cat 350  ARG350      0.5346
     78  NH1       74.8370   45.9130   87.8280 N.pl3 350  ARG350      0.1354
     79  NH2       73.8660   47.6750   86.7060 N.pl3 350  ARG350      0.1354
     80  N         81.3410   44.9640   88.0220 N.3   372  TRP372     -0.1241
     81  CA        81.6560   45.1600   86.6210 C.3   372  TRP372      0.1605
     82  C         83.0700   44.7250   86.2660 C.2   372  TRP372      0.2264
     83  O         84.0140   44.8740   87.0570 O.2   372  TRP372     -0.2867
     84  CB        81.5000   46.6320   86.2460 C.3   372  TRP372      0.0550
     85  CG        80.1100   47.2000   86.3830 C.ar  372  TRP372      0.0003
     86  CD1       79.5570   47.7790   87.4960 C.ar  372  TRP372      0.0946
     87  CD2       79.1160   47.2870   85.3550 C.ar  372  TRP372      0.0152
     88  NE1       78.2780   48.2090   87.2210 N.ar  372  TRP372     -0.2442
     89  CE2       77.9890   47.9200   85.9140 C.ar  372  TRP372      0.0810
     90  CE3       79.0710   46.8870   84.0140 C.ar  372  TRP372      0.0012
     91  CZ2       76.8370   48.1530   85.1830 C.ar  372  TRP372      0.0191
     92  CZ3       77.9270   47.1220   83.2880 C.ar  372  TRP372      0.0001
     93  CH2       76.8270   47.7450   83.8720 C.ar  372  TRP372      0.0015
     94  N         74.8560   53.3990   84.2450 N.3   396  PRO396     -0.2102
     95  CA        74.1140   52.2400   83.7220 C.3   396  PRO396      0.1504
     96  C         73.2160   52.6010   82.5580 C.2   396  PRO396      0.2576
     97  O         72.6220   53.6720   82.5740 O.2   396  PRO396     -0.2718
     98  CB        73.2630   51.8090   84.9180 C.3   396  PRO396      0.0282
     99  CG        74.0910   52.1900   86.1030 C.3   396  PRO396      0.0208
    100  CD        74.7570   53.4950   85.7140 C.3   396  PRO396      0.0893
    101  N         73.1140   51.7230   81.5670 N.am  397  THR397     -0.1939
    102  CA        72.2180   51.9670   80.4410 C.3   397  THR397      0.2028
    103  C         70.9510   51.1090   80.4730 C.2   397  THR397      0.2642
    104  O         70.0500   51.3010   79.6610 O.2   397  THR397     -0.2714
    105  CB        72.9320   51.7530   79.1210 C.3   397  THR397      0.1808
    106  OG1       73.3180   50.3830   79.0120 O.3   397  THR397     -0.2208
    107  CG2       74.1670   52.6190   79.0610 C.3   397  THR397      0.0379
    108  N         70.8860   50.1660   81.4100 N.am  398  LEU398     -0.1977
    109  CA        69.6750   49.3820   81.6560 C.3   398  LEU398      0.1596
    110  C         69.2600   49.5180   83.1140 C.2   398  LEU398      0.2287
    111  O         70.0800   49.8320   83.9760 O.2   398  LEU398     -0.2864
    112  CB        69.9080   47.9100   81.3380 C.3   398  LEU398      0.0297
    113  CG        70.5470   47.6140   79.9870 C.3   398  LEU398      0.0022
    114  CD1       71.0260   46.1870   79.9450 C.3   398  LEU398      0.0001
    115  CD2       69.5710   47.8750   78.8690 C.3   398  LEU398      0.0001
@<TRIPOS>BOND
     1    46    45    2
     2    26    25    2
     3    23    24    1
     4    45    44    1
     5    25    24    1
     6    47    48    1
     7    47    44    1
     8    24    27    1
     9    48    49    1
    10    35    36    1
    11    44    43    1
    12    43    37   am
    13    39    36    1
    14    39    40    1
    15    27    28    1
    16    36    37    1
    17    37    38    2
    18    49    50    1
    19    40    41   ar
    20    40    42   ar
    21    50    51    1
    22    28    30   ar
    23    28    29   ar
    24    30    32   ar
    25    10    11   ar
    26    10     8   ar
    27    29    31   ar
    28    11     9   ar
    29    32    33   ar
    30     8     6   ar
    31     1     2    1
    32    31    33   ar
    33    33    34    1
    34     9     7   ar
    35     6     7   ar
    36     6     5    1
    37     2     5    1
    38     2     3    1
    39    52    53    1
    40   115   113    1
    41     4     3    2
    42   106   105    1
    43   107   105    1
    44   105   102    1
    45    55    54    2
    46    15    14    2
    47   104   103    2
    48   114   113    1
    49   113   112    1
    50    53    54    1
    51    53    56    1
    52    54    63   am
    53    14    13    1
    54   102   103    1
    55   102   101    1
    56   103   108   am
    57    67    68    1
    58    67    64    1
    59    57    56    1
    60    57    58    1
    61    63    64    1
    62   112   109    1
    63   108   109    1
    64    12    13    1
    65    64    65    1
    66    13    16    1
    67   101    96   am
    68   109   110    1
    69    58    59    1
    70    59    60    2
    71    96    97    2
    72    96    95    1
    73    60    62    1
    74    60    61    1
    75    18    19    1
    76    18    17    1
    77    21    20    1
    78    16    17    1
    79    65    69   am
    80    65    66    2
    81   110   111    2
    82    92    93   ar
    83    92    90   ar
    84    69    70    1
    85    19    20    2
    86    20    22    1
    87    95    94    1
    88    95    98    1
    89    93    91   ar
    90    90    87   ar
    91    72    71    2
    92    94   100    1
    93    70    71    1
    94    70    73    1
    95    98    99    1
    96    74    73    1
    97    74    75    1
    98    91    89   ar
    99    87    89   ar
   100    87    85   ar
   101    75    76    1
   102    76    77    2
   103   100    99    1
   104    89    88   ar
   105    84    85    1
   106    84    81    1
   107    82    81    1
   108    82    83    2
   109    85    86   ar
   110    81    80    1
   111    79    77    1
   112    77    78    1
   113    88    86   ar
