@<TRIPOS>MOLECULE
tmp/3s6hA00.pdb
 168 169 0 0 0
SMALL
GASTEIGER

@<TRIPOS>ATOM
      1  N         13.5190  -12.8560   71.0120 N.3   312  PHE312     -0.1241
      2  CA        13.3500  -13.3590   69.6480 C.3   312  PHE312      0.1605
      3  C         13.5010  -12.1980   68.6840 C.2   312  PHE312      0.2264
      4  O         13.3910  -11.0270   69.0700 O.2   312  PHE312     -0.2867
      5  CB        11.9770  -14.0270   69.4930 C.3   312  PHE312      0.0534
      6  CG        11.6950  -15.0520   70.5590 C.ar  312  PHE312     -0.0203
      7  CD1       12.0360  -16.3700   70.3740 C.ar  312  PHE312     -0.0042
      8  CD2       11.1410  -14.6830   71.7700 C.ar  312  PHE312     -0.0042
      9  CE1       11.8170  -17.2960   71.3760 C.ar  312  PHE312     -0.0003
     10  CE2       10.9320  -15.6110   72.7710 C.ar  312  PHE312     -0.0003
     11  CZ        11.2750  -16.9080   72.5740 C.ar  312  PHE312     -0.0000
     12  N         11.6420  -11.2540   66.3240 N.3   314  ARG314     -0.1245
     13  CA        10.4150  -10.7100   65.7860 C.3   314  ARG314      0.1563
     14  C          9.3170  -10.8140   66.8360 C.2   314  ARG314      0.2260
     15  O          9.5260  -11.4120   67.8910 O.2   314  ARG314     -0.2867
     16  CB        10.0560  -11.4540   64.4980 C.3   314  ARG314      0.0307
     17  CG        11.2380  -12.1950   63.8750 C.3   314  ARG314      0.0489
     18  CD        11.5290  -13.5040   64.6170 C.3   314  ARG314      0.2205
     19  NE        11.4920  -14.6350   63.7030 N.pl3 314  ARG314     -0.0865
     20  CZ        11.3980  -15.9110   64.0700 C.cat 314  ARG314      0.5346
     21  NH1       11.3210  -16.2580   65.3590 N.pl3 314  ARG314      0.1354
     22  NH2       11.3760  -16.8510   63.1330 N.pl3 314  ARG314      0.1354
     23  N          3.0660  -27.0490   79.0080 N.3   349  TYR349     -0.1227
     24  CA         3.8230  -26.9070   77.7820 C.3   349  TYR349      0.1736
     25  C          4.3370  -25.4750   77.8050 C.2   349  TYR349      0.2595
     26  O          3.6380  -24.5880   78.2950 O.2   349  TYR349     -0.2718
     27  CB         2.9070  -27.1680   76.5790 C.3   349  TYR349      0.0548
     28  CG         3.4150  -26.6250   75.2690 C.ar  349  TYR349     -0.0200
     29  CD1        3.7630  -27.4670   74.2360 C.ar  349  TYR349     -0.0009
     30  CD2        3.5540  -25.2710   75.0650 C.ar  349  TYR349     -0.0009
     31  CE1        4.2350  -26.9720   73.0320 C.ar  349  TYR349      0.0417
     32  CE2        4.0340  -24.7670   73.8600 C.ar  349  TYR349      0.0417
     33  CZ         4.3660  -25.6240   72.8480 C.ar  349  TYR349      0.1957
     34  OH         4.8230  -25.1300   71.6500 O.3   349  TYR349     -0.2866
     35  N          5.5520  -25.2500   77.3000 N.am  350  LEU350     -0.1966
     36  CA         6.2130  -23.9480   77.4400 C.3   350  LEU350      0.1728
     37  C          6.0860  -23.1230   76.1910 C.2   350  LEU350      0.2616
     38  O          6.7380  -23.4000   75.1900 O.2   350  LEU350     -0.2715
     39  CB         7.6830  -24.1140   77.7810 C.3   350  LEU350      0.0311
     40  CG         8.3410  -22.7990   78.1600 C.3   350  LEU350      0.0022
     41  CD1        7.3810  -22.0100   79.0010 C.3   350  LEU350      0.0001
     42  CD2        9.6140  -23.0750   78.9310 C.3   350  LEU350      0.0001
     43  N          5.2560  -22.0910   76.2620 N.am  351  ASP351     -0.1957
     44  CA         4.8180  -21.4050   75.0660 C.3   351  ASP351      0.1840
     45  C          5.7360  -20.2260   74.7860 C.2   351  ASP351      0.2622
     46  O          6.0430  -19.9210   73.6280 O.2   351  ASP351     -0.2715
     47  CB         3.3710  -20.9560   75.2350 C.3   351  ASP351      0.1450
     48  CG         2.7950  -20.3310   73.9680 C.2   351  ASP351      0.3671
     49  OD1        2.0210  -21.0150   73.2570 O.co2 351  ASP351     -0.2456
     50  OD2        3.1030  -19.1470   73.6960 O.co2 351  ASP351     -0.2456
     51  N          6.1910  -19.5870   75.8600 N.am  352  LYS352     -0.1963
     52  CA         7.1970  -18.5370   75.7760 C.3   352  LYS352      0.1728
     53  C          8.2100  -18.6550   76.8980 C.2   352  LYS352      0.2616
     54  O          7.8530  -18.7010   78.0740 O.2   352  LYS352     -0.2715
     55  CB         6.5490  -17.1540   75.8110 C.3   352  LYS352      0.0311
     56  CG         5.8150  -16.8270   74.5440 C.3   352  LYS352      0.0038
     57  CD         6.7900  -16.8060   73.3970 C.3   352  LYS352      0.0206
     58  CE         6.0720  -16.8000   72.0730 C.3   352  LYS352      0.1093
     59  NZ         5.4010  -18.1050   71.8840 N.3   352  LYS352     -0.1314
     60  N          9.4760  -18.7530   76.5000 N.am  353  PHE353     -0.1974
     61  CA        10.6290  -18.4360   77.3390 C.3   353  PHE353      0.1639
     62  C         11.3290  -17.3030   76.5950 C.2   353  PHE353      0.2290
     63  O         11.6780  -17.4400   75.4220 O.2   353  PHE353     -0.2864
     64  CB        11.5380  -19.6520   77.4630 C.3   353  PHE353      0.0560
     65  CG        12.4850  -19.5880   78.6150 C.ar  353  PHE353     -0.0200
     66  CD1       12.0120  -19.4470   79.9060 C.ar  353  PHE353     -0.0042
     67  CD2       13.8530  -19.6940   78.4130 C.ar  353  PHE353     -0.0042
     68  CE1       12.8930  -19.3980   80.9850 C.ar  353  PHE353     -0.0003
     69  CE2       14.7380  -19.6430   79.4810 C.ar  353  PHE353     -0.0003
     70  CZ        14.2620  -19.4930   80.7700 C.ar  353  PHE353     -0.0000
     71  N          8.4740  -28.6300   75.7220 N.3   381  TRP381     -0.1227
     72  CA         8.7000  -27.4400   74.8950 C.3   381  TRP381      0.1737
     73  C          9.2960  -27.6310   73.5350 C.2   381  TRP381      0.2595
     74  O          9.4400  -28.7380   73.0340 O.2   381  TRP381     -0.2718
     75  CB         9.4720  -26.3440   75.6120 C.3   381  TRP381      0.0564
     76  CG        10.9150  -26.5790   75.8910 C.ar  381  TRP381      0.0003
     77  CD1       11.9720  -26.0000   75.2680 C.ar  381  TRP381      0.0946
     78  CD2       11.4600  -27.3990   76.9290 C.ar  381  TRP381      0.0152
     79  NE1       13.1430  -26.4250   75.8370 N.ar  381  TRP381     -0.2442
     80  CE2       12.8520  -27.2810   76.8630 C.ar  381  TRP381      0.0810
     81  CE3       10.9010  -28.2300   77.9010 C.ar  381  TRP381      0.0012
     82  CZ2       13.6880  -27.9470   77.7280 C.ar  381  TRP381      0.0191
     83  CZ3       11.7220  -28.8870   78.7490 C.ar  381  TRP381      0.0001
     84  CH2       13.1100  -28.7400   78.6670 C.ar  381  TRP381      0.0015
     85  N          9.6150  -26.5160   72.9160 N.am  382  ARG382     -0.1966
     86  CA        10.0770  -26.5880   71.5580 C.3   382  ARG382      0.1729
     87  C         10.8290  -25.3260   71.2500 C.2   382  ARG382      0.2617
     88  O         10.7340  -24.3470   71.9900 O.2   382  ARG382     -0.2715
     89  CB         8.9190  -26.8140   70.5840 C.3   382  ARG382      0.0348
     90  CG         7.9530  -25.6620   70.5240 C.3   382  ARG382      0.0492
     91  CD         6.9020  -25.8400   69.4370 C.3   382  ARG382      0.2205
     92  NE         6.4780  -24.5330   68.9470 N.pl3 382  ARG382     -0.0865
     93  CZ         5.6630  -24.3330   67.9230 C.cat 382  ARG382      0.5346
     94  NH1        5.1490  -25.3610   67.2660 N.pl3 382  ARG382      0.1354
     95  NH2        5.3760  -23.0900   67.5590 N.pl3 382  ARG382      0.1354
     96  N         11.5950  -25.3750   70.1690 N.am  383  SER383     -0.1936
     97  CA        12.5400  -24.3370   69.8650 C.3   383  SER383      0.2055
     98  C         12.9490  -24.5350   68.4260 C.2   383  SER383      0.2642
     99  O         12.8060  -25.6360   67.8700 O.2   383  SER383     -0.2714
    100  CB        13.7730  -24.4030   70.7790 C.3   383  SER383      0.2130
    101  OG        14.8460  -25.1020   70.1550 O.3   383  SER383     -0.2179
    102  N         13.4310  -23.4570   67.8140 N.am  384  ARG384     -0.1977
    103  CA        13.8350  -23.5340   66.4370 C.3   384  ARG384      0.1597
    104  C         15.2250  -24.1180   66.4530 C.2   384  ARG384      0.2287
    105  O         15.8550  -24.2560   67.5040 O.2   384  ARG384     -0.2864
    106  CB        13.8260  -22.1580   65.7850 C.3   384  ARG384      0.0334
    107  CG        12.4820  -21.4640   65.7680 C.3   384  ARG384      0.0492
    108  CD        12.0990  -21.0040   64.3580 C.3   384  ARG384      0.2205
    109  NE        10.8200  -20.3070   64.3820 N.pl3 384  ARG384     -0.0865
    110  CZ         9.9690  -20.2570   63.3610 C.cat 384  ARG384      0.5346
    111  NH1       10.2570  -20.8590   62.2110 N.pl3 384  ARG384      0.1354
    112  NH2        8.8200  -19.6010   63.4920 N.pl3 384  ARG384      0.1354
    113  N         18.4140  -21.6400   67.2920 N.3   387  ASN387     -0.1240
    114  CA        18.2080  -20.8890   68.5180 C.3   387  ASN387      0.1653
    115  C         19.3830  -20.9760   69.4920 C.2   387  ASN387      0.2266
    116  O         19.7170  -22.0540   69.9850 O.2   387  ASN387     -0.2867
    117  CB        16.9170  -21.3350   69.2000 C.3   387  ASN387      0.1155
    118  CG        16.5300  -20.4410   70.3560 C.2   387  ASN387      0.2627
    119  OD1       17.3260  -19.6260   70.8070 O.2   387  ASN387     -0.2716
    120  ND2       15.2980  -20.5920   70.8440 N.am  387  ASN387     -0.0877
    121  N         18.8970  -25.6240   76.6280 N.3   393  TYR393     -0.1241
    122  CA        17.6760  -26.4160   76.6720 C.3   393  TYR393      0.1605
    123  C         18.1130  -27.8470   76.7970 C.2   393  TYR393      0.2264
    124  O         17.7470  -28.5260   77.7520 O.2   393  TYR393     -0.2867
    125  CB        16.7860  -26.2330   75.4230 C.3   393  TYR393      0.0534
    126  CG        15.9950  -24.9260   75.3500 C.ar  393  TYR393     -0.0201
    127  CD1       15.6400  -24.2330   76.5020 C.ar  393  TYR393     -0.0009
    128  CD2       15.6220  -24.3860   74.1220 C.ar  393  TYR393     -0.0009
    129  CE1       14.9500  -23.0460   76.4370 C.ar  393  TYR393      0.0417
    130  CE2       14.9220  -23.2080   74.0530 C.ar  393  TYR393      0.0417
    131  CZ        14.5910  -22.5420   75.2170 C.ar  393  TYR393      0.1957
    132  OH        13.8860  -21.3690   75.1600 O.3   393  TYR393     -0.2866
    133  N         12.3200  -27.4740   63.5040 N.3   406  TRP406     -0.1241
    134  CA        12.0660  -27.3270   64.9400 C.3   406  TRP406      0.1605
    135  C         12.6510  -28.4690   65.7550 C.2   406  TRP406      0.2264
    136  O         13.2880  -29.3760   65.2130 O.2   406  TRP406     -0.2867
    137  CB        10.5560  -27.2530   65.2130 C.3   406  TRP406      0.0550
    138  CG         9.8720  -26.0200   64.6590 C.ar  406  TRP406      0.0003
    139  CD1        9.4820  -25.7980   63.3650 C.ar  406  TRP406      0.0946
    140  CD2        9.4920  -24.8550   65.3940 C.ar  406  TRP406      0.0152
    141  NE1        8.9060  -24.5640   63.2540 N.ar  406  TRP406     -0.2442
    142  CE2        8.9000  -23.9670   64.4880 C.ar  406  TRP406      0.0810
    143  CE3        9.6100  -24.4720   66.7320 C.ar  406  TRP406      0.0012
    144  CZ2        8.4280  -22.7260   64.8750 C.ar  406  TRP406      0.0191
    145  CZ3        9.1420  -23.2400   67.1130 C.ar  406  TRP406      0.0001
    146  CH2        8.5580  -22.3830   66.1920 C.ar  406  TRP406      0.0015
    147  N          3.2840  -21.4020   64.3480 N.3   431  PRO431     -0.2102
    148  CA         4.0870  -20.2680   64.7990 C.3   431  PRO431      0.1504
    149  C          3.2430  -19.2150   65.5260 C.2   431  PRO431      0.2576
    150  O          2.3850  -18.5810   64.9270 O.2   431  PRO431     -0.2718
    151  CB         4.6220  -19.6910   63.4870 C.3   431  PRO431      0.0282
    152  CG         4.6500  -20.8360   62.5510 C.3   431  PRO431      0.0208
    153  CD         3.4870  -21.6950   62.9200 C.3   431  PRO431      0.0893
    154  N          3.4870  -19.0410   66.8150 N.am  432  THR432     -0.1939
    155  CA         2.8680  -17.9650   67.5560 C.3   432  THR432      0.2028
    156  C          3.6080  -16.6350   67.2510 C.2   432  THR432      0.2642
    157  O          3.0790  -15.5470   67.4900 O.2   432  THR432     -0.2714
    158  CB         2.8560  -18.2730   69.0850 C.3   432  THR432      0.1808
    159  OG1        4.0720  -17.8210   69.6870 O.3   432  THR432     -0.2208
    160  CG2        2.7240  -19.7740   69.3450 C.3   432  THR432      0.0379
    161  N          4.8260  -16.7200   66.7110 N.am  433  LEU433     -0.1977
    162  CA         5.5770  -15.5200   66.3130 C.3   433  LEU433      0.1596
    163  C          5.6410  -15.3320   64.7960 C.2   433  LEU433      0.2287
    164  O          5.2570  -16.2170   64.0320 O.2   433  LEU433     -0.2864
    165  CB         6.9980  -15.5470   66.8720 C.3   433  LEU433      0.0297
    166  CG         7.1800  -15.4990   68.3870 C.3   433  LEU433      0.0022
    167  CD1        8.6480  -15.7420   68.7630 C.3   433  LEU433      0.0001
    168  CD2        6.7050  -14.1890   68.9420 C.3   433  LEU433      0.0001
@<TRIPOS>BOND
     1   111   110    1
     2   152   153    1
     3   152   151    1
     4   153   147    1
     5    22    20    1
     6   141   139   ar
     7   141   142   ar
     8   110   112    1
     9   110   109    2
    10   139   138   ar
    11   151   148    1
    12   133   134    1
    13    19    20    2
    14    19    18    1
    15    17    16    1
    16    17    18    1
    17   164   163    2
    18    20    21    1
    19   147   148    1
    20   108   109    1
    21   108   107    1
    22   142   144   ar
    23   142   140   ar
    24    16    13    1
    25   138   137    1
    26   138   140   ar
    27   163   162    1
    28   148   149    1
    29   144   146   ar
    30   150   149    2
    31   134   137    1
    32   134   135    1
    33   136   135    2
    34   140   143   ar
    35   149   154   am
    36   107   106    1
    37   106   103    1
    38    13    12    1
    39    13    14    1
    40   146   145   ar
    41   162   161    1
    42   162   165    1
    43   103   104    1
    44   103   102    1
    45   104   105    2
    46   161   156   am
    47   143   145   ar
    48   154   155    1
    49    14    15    2
    50   165   166    1
    51   156   157    2
    52   156   155    1
    53    94    93    1
    54   113   114    1
    55   155   158    1
    56    95    93    1
    57   102    98   am
    58    99    98    2
    59    93    92    2
    60   166   167    1
    61   166   168    1
    62    98    97    1
    63   114   117    1
    64   114   115    1
    65     3     4    2
    66     3     2    1
    67    92    91    1
    68   158   160    1
    69   158   159    1
    70   117   118    1
    71    91    90    1
    72   115   116    2
    73     5     2    1
    74     5     6    1
    75     2     1    1
    76    97    96    1
    77    97   100    1
    78   101   100    1
    79    96    87   am
    80   118   119    2
    81   118   120   am
    82     7     6   ar
    83     7     9   ar
    84    90    89    1
    85     6     8   ar
    86    89    86    1
    87    87    86    1
    88    87    88    2
    89     9    11   ar
    90    86    85    1
    91    34    33    1
    92     8    10   ar
    93    59    58    1
    94    58    57    1
    95    11    10   ar
    96    33    31   ar
    97    33    32   ar
    98    85    73   am
    99    31    29   ar
   100    74    73    2
   101    49    48   ar
   102    57    56    1
   103    73    72    1
   104    46    45    2
   105    50    48   ar
   106    32    30   ar
   107    48    47    1
   108   130   128   ar
   109   130   131   ar
   110   128   126   ar
   111    29    28   ar
   112    56    55    1
   113    45    44    1
   114    45    51   am
   115    72    75    1
   116    72    71    1
   117    30    28   ar
   118    44    47    1
   119    44    43    1
   120   132   131    1
   121    38    37    2
   122   131   129   ar
   123    77    79   ar
   124    77    76   ar
   125    28    27    1
   126   126   125    1
   127   126   127   ar
   128    63    62    2
   129   125   122    1
   130    75    76    1
   131    52    55    1
   132    52    51    1
   133    52    53    1
   134    79    80   ar
   135    76    78   ar
   136    37    43   am
   137    37    36    1
   138   129   127   ar
   139    60    53   am
   140    60    61    1
   141    27    24    1
   142    62    61    1
   143   121   122    1
   144   122   123    1
   145   123   124    2
   146    80    78   ar
   147    80    82   ar
   148    53    54    2
   149    78    81   ar
   150    35    36    1
   151    35    25   am
   152    61    64    1
   153    36    39    1
   154    64    65    1
   155    82    84   ar
   156    39    40    1
   157    24    25    1
   158    24    23    1
   159    25    26    2
   160    81    83   ar
   161    40    42    1
   162    40    41    1
   163    67    65   ar
   164    67    69   ar
   165    65    66   ar
   166    84    83   ar
   167    69    70   ar
   168    66    68   ar
   169    70    68   ar
