@<TRIPOS>MOLECULE
tmp/3s6hC00.pdb
 124 125 0 0 0
SMALL
GASTEIGER

@<TRIPOS>ATOM
      1  N         26.4240  -26.9480   51.4660 N.3   215  GLU215     -0.1231
      2  CA        25.2550  -27.0660   50.6060 C.3   215  GLU215      0.1699
      3  C         24.0950  -26.2280   51.1680 C.2   215  GLU215      0.2592
      4  O         23.2920  -25.6540   50.4210 O.2   215  GLU215     -0.2718
      5  CB        24.8600  -28.5370   50.4860 C.3   215  GLU215      0.0402
      6  CG        23.7320  -28.8190   49.5130 C.3   215  GLU215      0.1161
      7  CD        23.2960  -30.2750   49.5380 C.2   215  GLU215      0.3649
      8  OE1       23.4250  -30.9240   50.6010 O.co2 215  GLU215     -0.2457
      9  OE2       22.8270  -30.7710   48.4920 O.co2 215  GLU215     -0.2457
     10  N         24.0320  -26.1440   52.4940 N.am  216  ASP216     -0.1974
     11  CA        22.9450  -25.4480   53.1780 C.3   216  ASP216      0.1709
     12  C         23.2440  -23.9660   53.4730 C.2   216  ASP216      0.2293
     13  O         22.6350  -23.3700   54.3680 O.2   216  ASP216     -0.2864
     14  CB        22.6120  -26.1800   54.4800 C.3   216  ASP216      0.1436
     15  CG        22.1830  -27.6190   54.2480 C.2   216  ASP216      0.3671
     16  OD1       21.3750  -27.8530   53.3200 O.co2 216  ASP216     -0.2456
     17  OD2       22.6530  -28.5130   54.9910 O.co2 216  ASP216     -0.2456
     18  N         24.2920  -33.8740   69.7120 N.3   394  PHE394     -0.1227
     19  CA        22.9850  -33.2740   69.6610 C.3   394  PHE394      0.1736
     20  C         22.6430  -32.5730   68.3390 C.2   394  PHE394      0.2595
     21  O         21.4690  -32.4380   68.0250 O.2   394  PHE394     -0.2718
     22  CB        22.7790  -32.3370   70.8540 C.3   394  PHE394      0.0547
     23  CG        21.3690  -31.8080   70.9750 C.ar  394  PHE394     -0.0202
     24  CD1       20.2920  -32.6770   71.0810 C.ar  394  PHE394     -0.0042
     25  CD2       21.1180  -30.4460   70.9850 C.ar  394  PHE394     -0.0042
     26  CE1       19.0150  -32.1970   71.1950 C.ar  394  PHE394     -0.0003
     27  CE2       19.8550  -29.9660   71.1030 C.ar  394  PHE394     -0.0003
     28  CZ        18.7990  -30.8350   71.1990 C.ar  394  PHE394     -0.0000
     29  N         23.6200  -32.1220   67.5590 N.am  395  GLU395     -0.1965
     30  CA        23.2730  -31.4990   66.2720 C.3   395  GLU395      0.1733
     31  C         23.2830  -32.5320   65.1630 C.2   395  GLU395      0.2616
     32  O         22.9850  -32.2250   64.0060 O.2   395  GLU395     -0.2715
     33  CB        24.2080  -30.3470   65.8590 C.3   395  GLU395      0.0429
     34  CG        24.9300  -29.5990   66.9720 C.3   395  GLU395      0.1163
     35  CD        26.1970  -28.8920   66.4640 C.2   395  GLU395      0.3649
     36  OE1       26.5590  -27.8370   67.0340 O.co2 395  GLU395     -0.2457
     37  OE2       26.8380  -29.3970   65.5050 O.co2 395  GLU395     -0.2457
     38  N         23.6670  -33.7530   65.5040 N.am  396  GLU396     -0.1963
     39  CA        23.7100  -34.8040   64.5080 C.3   396  GLU396      0.1733
     40  C         22.5990  -35.7810   64.8200 C.2   396  GLU396      0.2616
     41  O         22.2100  -36.5920   63.9810 O.2   396  GLU396     -0.2715
     42  CB        25.0670  -35.5000   64.5060 C.3   396  GLU396      0.0429
     43  CG        26.2280  -34.5910   64.1570 C.3   396  GLU396      0.1163
     44  CD        26.2320  -34.1520   62.6960 C.2   396  GLU396      0.3649
     45  OE1       25.9620  -34.9950   61.8050 O.co2 396  GLU396     -0.2457
     46  OE2       26.5230  -32.9580   62.4410 O.co2 396  GLU396     -0.2457
     47  N         22.0730  -35.6850   66.0330 N.am  397  CYS397     -0.1954
     48  CA        21.0240  -36.5870   66.4610 C.3   397  CYS397      0.1843
     49  C         19.6800  -36.1810   65.8890 C.2   397  CYS397      0.2625
     50  O         19.5660  -35.1820   65.1960 O.2   397  CYS397     -0.2714
     51  CB        20.9440  -36.6140   67.9730 C.3   397  CYS397      0.0997
     52  SG        19.8420  -35.3860   68.6360 S.3   397  CYS397     -0.0797
     53  N         18.6670  -36.9840   66.1890 N.am  398  ASP398     -0.1971
     54  CA        17.3020  -36.7950   65.7230 C.3   398  ASP398      0.1709
     55  C         16.5090  -37.1720   66.9270 C.2   398  ASP398      0.2293
     56  O         15.3640  -36.7760   67.1040 O.2   398  ASP398     -0.2864
     57  CB        16.9750  -37.8000   64.6380 C.3   398  ASP398      0.1436
     58  CG        17.5280  -37.4140   63.3010 C.2   398  ASP398      0.3671
     59  OD1       17.5720  -36.2020   63.0210 O.co2 398  ASP398     -0.2456
     60  OD2       17.9010  -38.3220   62.5260 O.co2 398  ASP398     -0.2456
     61  N         19.8190  -41.0300   68.6710 N.3   410  TRP410     -0.1227
     62  CA        19.6340  -41.7650   67.4260 C.3   410  TRP410      0.1737
     63  C         19.5490  -40.8630   66.2140 C.2   410  TRP410      0.2595
     64  O         19.2780  -39.6770   66.3220 O.2   410  TRP410     -0.2718
     65  CB        18.4490  -42.7180   67.4870 C.3   410  TRP410      0.0564
     66  CG        17.0920  -42.0730   67.4790 C.ar  410  TRP410      0.0003
     67  CD1       16.3640  -41.7030   66.3890 C.ar  410  TRP410      0.0946
     68  CD2       16.2890  -41.7730   68.6180 C.ar  410  TRP410      0.0152
     69  NE1       15.1620  -41.1750   66.7820 N.ar  410  TRP410     -0.2442
     70  CE2       15.0950  -41.2080   68.1470 C.ar  410  TRP410      0.0810
     71  CE3       16.4690  -41.9190   69.9920 C.ar  410  TRP410      0.0012
     72  CZ2       14.0900  -40.7890   69.0000 C.ar  410  TRP410      0.0191
     73  CZ3       15.4710  -41.5090   70.8370 C.ar  410  TRP410      0.0001
     74  CH2       14.2960  -40.9510   70.3420 C.ar  410  TRP410      0.0015
     75  N         19.7810  -41.4420   65.0520 N.am  411  ARG411     -0.1966
     76  CA        19.9690  -40.6490   63.8560 C.3   411  ARG411      0.1729
     77  C         19.2500  -41.3350   62.7060 C.2   411  ARG411      0.2617
     78  O         19.2420  -40.8550   61.5710 O.2   411  ARG411     -0.2715
     79  CB        21.4710  -40.5190   63.5770 C.3   411  ARG411      0.0348
     80  CG        21.8670  -39.5070   62.5300 C.3   411  ARG411      0.0492
     81  CD        22.3600  -40.1700   61.2570 C.3   411  ARG411      0.2205
     82  NE        22.7170  -39.1730   60.2570 N.pl3 411  ARG411     -0.0865
     83  CZ        23.0440  -37.9140   60.5420 C.cat 411  ARG411      0.5346
     84  NH1       23.0750  -37.4980   61.8010 N.pl3 411  ARG411      0.1354
     85  NH2       23.3630  -37.0660   59.5700 N.pl3 411  ARG411      0.1354
     86  N         18.6520  -42.4770   63.0050 N.am  412  GLY412     -0.1940
     87  CA        17.6910  -43.0590   62.0950 C.3   412  GLY412      0.2014
     88  C         16.4470  -42.1880   62.0030 C.2   412  GLY412      0.2639
     89  O         16.4090  -41.0690   62.5240 O.2   412  GLY412     -0.2714
     90  N         15.4200  -42.6940   61.3340 N.am  413  GLU413     -0.1963
     91  CA        14.1770  -41.9480   61.2400 C.3   413  GLU413      0.1733
     92  C         13.0620  -42.5950   62.0620 C.2   413  GLU413      0.2616
     93  O         11.9280  -42.1080   62.0750 O.2   413  GLU413     -0.2715
     94  CB        13.7500  -41.7710   59.7790 C.3   413  GLU413      0.0429
     95  CG        14.6770  -40.8800   58.9610 C.3   413  GLU413      0.1163
     96  CD        13.9640  -40.1710   57.8140 C.2   413  GLU413      0.3649
     97  OE1       12.7860  -40.4960   57.5360 O.co2 413  GLU413     -0.2457
     98  OE2       14.5860  -39.2790   57.1950 O.co2 413  GLU413     -0.2457
     99  N         13.3830  -43.6870   62.7480 N.am  414  MET414     -0.1963
    100  CA        12.4050  -44.3250   63.6140 C.3   414  MET414      0.1736
    101  C         11.8780  -43.3330   64.6400 C.2   414  MET414      0.2617
    102  O         12.4350  -42.2430   64.8120 O.2   414  MET414     -0.2715
    103  CB        13.0000  -45.5390   64.3150 C.3   414  MET414      0.0427
    104  CG        14.3350  -45.2860   64.9630 C.3   414  MET414      0.0599
    105  SD        15.6780  -45.2020   63.7690 S.3   414  MET414     -0.1393
    106  CE        17.0600  -45.6400   64.8200 C.3   414  MET414      0.0692
    107  N         10.8040  -43.7140   65.3230 N.am  415  GLY415     -0.1941
    108  CA        10.1410  -42.8060   66.2400 C.3   415  GLY415      0.1998
    109  C         10.3050  -43.1570   67.7010 C.2   415  GLY415      0.2481
    110  O         10.6210  -44.3040   68.0200 O.2   415  GLY415     -0.2729
    111  N         10.0720  -42.1730   68.5960 N.am  416  PRO416     -0.2715
    112  CA        10.2160  -42.3560   70.0440 C.3   416  PRO416      0.1536
    113  C          9.8310  -43.7650   70.5330 C.2   416  PRO416      0.2598
    114  O         10.5690  -44.3100   71.3630 O.2   416  PRO416     -0.2715
    115  CB         9.2800  -41.2860   70.6180 C.3   416  PRO416      0.0310
    116  CG         9.3320  -40.2100   69.6260 C.3   416  PRO416      0.0237
    117  CD         9.5410  -40.8370   68.2730 C.3   416  PRO416      0.0939
    118  N          8.7430  -44.3440   70.0000 N.am  417  VAL417     -0.1978
    119  CA         8.1740  -45.6110   70.4890 C.3   417  VAL417      0.1596
    120  C          8.6550  -46.8330   69.7310 C.2   417  VAL417      0.2287
    121  O          8.4450  -47.9680   70.1850 O.2   417  VAL417     -0.2864
    122  CB         6.6680  -45.6120   70.3760 C.3   417  VAL417      0.0276
    123  CG1        6.1840  -44.2080   70.1930 C.3   417  VAL417      0.0022
    124  CG2        6.2550  -46.4700   69.1990 C.3   417  VAL417      0.0022
@<TRIPOS>BOND
     1     9     7   ar
     2     6     7    1
     3     6     5    1
     4     7     8   ar
     5     4     3    2
     6     5     2    1
     7     2     3    1
     8     2     1    1
     9     3    10   am
    10    10    11    1
    11    11    12    1
    12    11    14    1
    13    16    15   ar
    14    12    13    2
    15    15    14    1
    16    15    17   ar
    17    98    96   ar
    18    97    96   ar
    19    96    95    1
    20    95    94    1
    21    85    83    1
    22    94    91    1
    23    82    83    2
    24    82    81    1
    25    83    84    1
    26    91    90    1
    27    91    92    1
    28    81    80    1
    29    90    88   am
    30    78    77    2
    31    45    44   ar
    32    88    87    1
    33    88    89    2
    34    92    93    2
    35    92    99   am
    36    87    86    1
    37    46    44   ar
    38    60    58   ar
    39    80    79    1
    40    44    43    1
    41    77    86   am
    42    77    76    1
    43    99   100    1
    44    59    58   ar
    45    58    57    1
    46    79    76    1
    47   100   103    1
    48   100   101    1
    49   105   106    1
    50   105   104    1
    51    76    75    1
    52    41    40    2
    53    32    31    2
    54    43    42    1
    55   103   104    1
    56    42    39    1
    57    39    40    1
    58    39    38    1
    59    57    54    1
    60   101   102    2
    61   101   107   am
    62    40    47   am
    63    75    63   am
    64    31    38   am
    65    31    30    1
    66    50    49    2
    67   107   108    1
    68    37    35   ar
    69    54    53    1
    70    54    55    1
    71    33    30    1
    72    33    34    1
    73    49    53   am
    74    49    48    1
    75    47    48    1
    76    63    64    2
    77    63    62    1
    78   108   109    1
    79    30    29    1
    80    67    69   ar
    81    67    66   ar
    82    48    51    1
    83    35    34    1
    84    35    36   ar
    85    69    70   ar
    86    55    56    2
    87    62    65    1
    88    62    61    1
    89    66    65    1
    90    66    68   ar
    91    29    20   am
    92   109   110    2
    93   109   111   am
    94    51    52    1
    95    21    20    2
    96    70    68   ar
    97    70    72   ar
    98   117   111    1
    99   117   116    1
   100    20    19    1
   101   111   112    1
   102    68    71   ar
   103    72    74   ar
   104   124   122    1
   105   116   115    1
   106    19    18    1
   107    19    22    1
   108   120   121    2
   109   120   119    1
   110    71    73   ar
   111   118   119    1
   112   118   113   am
   113   112   113    1
   114   112   115    1
   115   123   122    1
   116    74    73   ar
   117   122   119    1
   118   113   114    2
   119    22    23    1
   120    23    25   ar
   121    23    24   ar
   122    25    27   ar
   123    24    26   ar
   124    27    28   ar
   125    26    28   ar
