@<TRIPOS>MOLECULE
tmp/3s6tA00.pdb
 157 155 0 0 0
SMALL
GASTEIGER

@<TRIPOS>ATOM
      1  N         50.5480    3.0730   11.4810 N.3   201  ARG201     -0.1245
      2  CA        49.7880    3.9750   12.3020 C.3   201  ARG201      0.1563
      3  C         50.7130    4.6440   13.2900 C.2   201  ARG201      0.2260
      4  O         50.4810    5.7190   13.6760 O.2   201  ARG201     -0.2867
      5  CB        48.6080    3.3070   12.9680 C.3   201  ARG201      0.0307
      6  CG        47.3490    3.4090   12.2040 C.3   201  ARG201      0.0489
      7  CD        47.4350    2.6410   10.9040 C.3   201  ARG201      0.2205
      8  NE        46.1780    2.6810   10.2160 N.pl3 201  ARG201     -0.0865
      9  CZ        45.2510    1.7560   10.2920 C.cat 201  ARG201      0.5346
     10  NH1       45.4540    0.6770   10.9940 N.pl3 201  ARG201      0.1354
     11  NH2       44.1370    1.9150    9.6530 N.pl3 201  ARG201      0.1354
     12  N         51.9810   -5.6760    9.5300 N.3   227  HIS227     -0.1241
     13  CA        51.1390   -4.7700    8.7890 C.3   227  HIS227      0.1621
     14  C         51.9550   -3.4960    8.6200 C.2   227  HIS227      0.2264
     15  O         51.8580   -2.5560    9.3450 O.2   227  HIS227     -0.2867
     16  CB        49.8400   -4.5440    9.5310 C.3   227  HIS227      0.0745
     17  CG        48.8880   -3.6370    8.8370 C.ar  227  HIS227      0.0817
     18  ND1       47.8500   -4.0990    8.0770 N.ar  227  HIS227     -0.2268
     19  CD2       48.7970   -2.2950    8.8160 C.ar  227  HIS227      0.1154
     20  CE1       47.1640   -3.0840    7.6140 C.ar  227  HIS227      0.1986
     21  NE2       47.7260   -1.9770    8.0360 N.ar  227  HIS227     -0.2212
     22  N         50.1230    1.5890    5.5970 N.3   230  ASP230     -0.1239
     23  CA        48.7790    2.0720    5.7100 C.3   230  ASP230      0.1674
     24  C         48.7380    3.4870    5.1610 C.2   230  ASP230      0.2266
     25  O         49.6750    3.9510    4.6210 O.2   230  ASP230     -0.2867
     26  CB        48.2320    1.9770    7.1150 C.3   230  ASP230      0.1410
     27  CG        46.7730    1.7030    7.1380 C.2   230  ASP230      0.3668
     28  OD1       45.9970    2.6110    6.9150 O.co2 230  ASP230     -0.2456
     29  OD2       46.4000    0.5810    7.3570 O.co2 230  ASP230     -0.2456
     30  N         43.4000    1.8630    2.5400 N.3   284  HIS284     -0.1241
     31  CA        44.5260    2.0110    3.4360 C.3   284  HIS284      0.1621
     32  C         45.8250    2.3440    2.7620 C.2   284  HIS284      0.2264
     33  O         46.8190    1.7680    3.0200 O.2   284  HIS284     -0.2867
     34  CB        44.6580    0.8120    4.3350 C.3   284  HIS284      0.0745
     35  CG        43.4530    0.5790    5.1680 C.ar  284  HIS284      0.0817
     36  ND1       43.2930    1.1140    6.4120 N.ar  284  HIS284     -0.2268
     37  CD2       42.3260   -0.0980    4.9090 C.ar  284  HIS284      0.1154
     38  CE1       42.1260    0.7640    6.8880 C.ar  284  HIS284      0.1986
     39  NE2       41.5200    0.0280    5.9950 N.ar  284  HIS284     -0.2212
     40  N         36.5800    4.9550    7.0270 N.3   308  GLY308     -0.1210
     41  CA        36.5050    4.5460    8.3970 C.3   308  GLY308      0.1956
     42  C         37.2840    5.3800    9.3690 C.2   308  GLY308      0.2611
     43  O         36.8570    5.5630   10.4630 O.2   308  GLY308     -0.2717
     44  N         38.4670    5.8110    8.9610 N.am  309  GLU309     -0.1979
     45  CA        39.3150    6.6670    9.7360 C.3   309  GLU309      0.1602
     46  C         40.2600    7.4780    8.8880 C.2   309  GLU309      0.2287
     47  O         40.6770    7.0640    7.8700 O.2   309  GLU309     -0.2864
     48  CB        40.1200    5.8630   10.7360 C.3   309  GLU309      0.0415
     49  CG        41.3300    5.1980   10.1820 C.3   309  GLU309      0.1163
     50  CD        41.8350    4.0930   11.0560 C.2   309  GLU309      0.3649
     51  OE1       42.8480    4.2550   11.7050 O.co2 309  GLU309     -0.2457
     52  OE2       41.2180    3.0550   11.0740 O.co2 309  GLU309     -0.2457
     53  N         40.7450   -4.9600    3.6300 N.3   348  ASP348     -0.1239
     54  CA        39.7040   -4.5150    4.5260 C.3   348  ASP348      0.1674
     55  C         38.9020   -3.4540    3.8230 C.2   348  ASP348      0.2266
     56  O         39.3440   -2.9210    2.8430 O.2   348  ASP348     -0.2867
     57  CB        40.1540   -4.1600    5.9450 C.3   348  ASP348      0.1410
     58  CG        41.4020   -3.4020    5.9860 C.2   348  ASP348      0.3668
     59  OD1       42.0570   -3.3200    4.9840 O.co2 348  ASP348     -0.2456
     60  OD2       41.7510   -2.9270    7.0380 O.co2 348  ASP348     -0.2456
     61  N         41.0820  -10.0060    4.5870 N.3   405  TRP405     -0.1241
     62  CA        40.1950   -9.7740    5.7030 C.3   405  TRP405      0.1605
     63  C         38.7410   -9.9890    5.3520 C.2   405  TRP405      0.2264
     64  O         38.3670   -9.8620    4.2360 O.2   405  TRP405     -0.2867
     65  CB        40.3100   -8.3400    6.2090 C.3   405  TRP405      0.0550
     66  CG        41.5810   -7.9560    6.7990 C.ar  405  TRP405      0.0003
     67  CD1       42.5260   -7.2160    6.2310 C.ar  405  TRP405      0.0946
     68  CD2       42.0620   -8.2900    8.0920 C.ar  405  TRP405      0.0152
     69  NE1       43.5700   -7.0780    7.0500 N.ar  405  TRP405     -0.2442
     70  CE2       43.3090   -7.7200    8.2150 C.ar  405  TRP405      0.0810
     71  CE3       41.5560   -9.0150    9.1560 C.ar  405  TRP405      0.0012
     72  CZ2       44.0640   -7.8510    9.3420 C.ar  405  TRP405      0.0191
     73  CZ3       42.3000   -9.1340   10.2590 C.ar  405  TRP405      0.0001
     74  CH2       43.5350   -8.5540   10.3540 C.ar  405  TRP405      0.0015
     75  N         37.6980  -10.9630   11.4540 N.3   429  TRP429     -0.1241
     76  CA        37.6730  -10.0030   12.5180 C.3   429  TRP429      0.1605
     77  C         36.2940   -9.6590   13.0230 C.2   429  TRP429      0.2264
     78  O         36.1630   -8.8360   13.8560 O.2   429  TRP429     -0.2867
     79  CB        38.4840   -8.7760   12.1820 C.3   429  TRP429      0.0550
     80  CG        37.9980   -7.9760   11.1010 C.ar  429  TRP429      0.0003
     81  CD1       38.0420   -8.2820    9.8220 C.ar  429  TRP429      0.0946
     82  CD2       37.4360   -6.6860   11.1840 C.ar  429  TRP429      0.0152
     83  NE1       37.5230   -7.3120    9.0830 N.ar  429  TRP429     -0.2442
     84  CE2       37.1350   -6.2990    9.8910 C.ar  429  TRP429      0.0810
     85  CE3       37.1530   -5.8180   12.2270 C.ar  429  TRP429      0.0012
     86  CZ2       36.5580   -5.0970    9.5940 C.ar  429  TRP429      0.0191
     87  CZ3       36.5840   -4.6310   11.9370 C.ar  429  TRP429      0.0001
     88  CH2       36.2870   -4.2720   10.6260 C.ar  429  TRP429      0.0015
     89  N         37.1760   -9.5530   16.7990 N.3   452  TYR452     -0.1241
     90  CA        37.4140   -8.3480   17.5470 C.3   452  TYR452      0.1605
     91  C         36.9330   -8.2930   18.9720 C.2   452  TYR452      0.2264
     92  O         37.4760   -7.5710   19.7390 O.2   452  TYR452     -0.2867
     93  CB        37.0280   -7.1070   16.7680 C.3   452  TYR452      0.0534
     94  CG        35.5970   -6.7260   16.8360 C.ar  452  TYR452     -0.0201
     95  CD1       34.7350   -7.0830   15.8570 C.ar  452  TYR452     -0.0009
     96  CD2       35.1130   -6.0260   17.8870 C.ar  452  TYR452     -0.0009
     97  CE1       33.4490   -6.7430   15.9140 C.ar  452  TYR452      0.0417
     98  CE2       33.8450   -5.6960   17.9540 C.ar  452  TYR452      0.0417
     99  CZ        33.0070   -6.0470   16.9550 C.ar  452  TYR452      0.1957
    100  OH        31.7130   -5.7220   17.0230 O.3   452  TYR452     -0.2866
    101  N         41.1160   -8.2350   19.7120 N.3   456  TYR456     -0.1241
    102  CA        41.6420   -6.9330   19.3380 C.3   456  TYR456      0.1605
    103  C         42.3110   -6.3060   20.5490 C.2   456  TYR456      0.2264
    104  O         41.6780   -5.8450   21.4210 O.2   456  TYR456     -0.2867
    105  CB        40.5620   -6.0380   18.7310 C.3   456  TYR456      0.0534
    106  CG        40.4800   -6.1080   17.2340 C.ar  456  TYR456     -0.0201
    107  CD1       40.1120   -5.0320   16.4820 C.ar  456  TYR456     -0.0009
    108  CD2       40.7750   -7.2640   16.5820 C.ar  456  TYR456     -0.0009
    109  CE1       40.0470   -5.1230   15.1400 C.ar  456  TYR456      0.0417
    110  CE2       40.7150   -7.3570   15.2690 C.ar  456  TYR456      0.0417
    111  CZ        40.3610   -6.2920   14.5380 C.ar  456  TYR456      0.1957
    112  OH        40.3180   -6.4500   13.2140 O.3   456  TYR456     -0.2866
    113  N         44.1010   -3.6060   20.8050 N.3   458  ASP458     -0.1239
    114  CA        43.9900   -2.1680   20.8420 C.3   458  ASP458      0.1674
    115  C         42.8270   -1.6310   21.6670 C.2   458  ASP458      0.2266
    116  O         42.8660   -0.5380   22.1260 O.2   458  ASP458     -0.2867
    117  CB        44.0290   -1.5650   19.4360 C.3   458  ASP458      0.1410
    118  CG        42.9360   -2.0690   18.5260 C.2   458  ASP458      0.3668
    119  OD1       42.7310   -3.2500   18.4020 O.co2 458  ASP458     -0.2456
    120  OD2       42.3030   -1.2600   17.9030 O.co2 458  ASP458     -0.2456
    121  N         36.8070    2.6400   19.6930 N.3   471  TRP471     -0.1241
    122  CA        35.6490    1.9680   19.1030 C.3   471  TRP471      0.1605
    123  C         35.2330    0.6040   19.6040 C.2   471  TRP471      0.2264
    124  O         34.0720    0.3360   19.7240 O.2   471  TRP471     -0.2867
    125  CB        35.7470    1.9250   17.5740 C.3   471  TRP471      0.0550
    126  CG        36.4760    0.7640   16.9990 C.ar  471  TRP471      0.0003
    127  CD1       37.7680    0.7080   16.7170 C.ar  471  TRP471      0.0946
    128  CD2       35.9440   -0.5100   16.6640 C.ar  471  TRP471      0.0152
    129  NE1       38.0990   -0.4910   16.2220 N.ar  471  TRP471     -0.2442
    130  CE2       36.9860   -1.2680   16.1740 C.ar  471  TRP471      0.0810
    131  CE3       34.6830   -1.0810   16.7250 C.ar  471  TRP471      0.0012
    132  CZ2       36.8190   -2.5610   15.7530 C.ar  471  TRP471      0.0191
    133  CZ3       34.5260   -2.3490   16.3030 C.ar  471  TRP471      0.0001
    134  CH2       35.5760   -3.0810   15.8290 C.ar  471  TRP471      0.0015
    135  N         46.4810   -3.1290   16.4650 N.3   505  TRP505     -0.1241
    136  CA        46.3740   -1.9740   15.6370 C.3   505  TRP505      0.1605
    137  C         47.0590   -0.8290   16.3750 C.2   505  TRP505      0.2264
    138  O         47.0440   -0.7630   17.5530 O.2   505  TRP505     -0.2867
    139  CB        44.9280   -1.7250   15.3020 C.3   505  TRP505      0.0550
    140  CG        44.3770   -2.8030   14.4970 C.ar  505  TRP505      0.0003
    141  CD1       43.5160   -3.7150   14.8880 C.ar  505  TRP505      0.0946
    142  CD2       44.6970   -3.1160   13.1510 C.ar  505  TRP505      0.0152
    143  NE1       43.2520   -4.5620   13.9070 N.ar  505  TRP505     -0.2442
    144  CE2       43.9610   -4.2100   12.8110 C.ar  505  TRP505      0.0810
    145  CE3       45.5220   -2.5490   12.2000 C.ar  505  TRP505      0.0012
    146  CZ2       44.0160   -4.7710   11.5750 C.ar  505  TRP505      0.0191
    147  CZ3       45.5760   -3.0910   10.9870 C.ar  505  TRP505      0.0001
    148  CH2       44.8260   -4.1860   10.6700 C.ar  505  TRP505      0.0015
    149  N         46.9180    2.7980   16.2300 N.3   507  GLU507     -0.1245
    150  CA        46.5110    4.1720   16.2950 C.3   507  GLU507      0.1567
    151  C         46.9490    4.7380   17.6120 C.2   507  GLU507      0.2260
    152  O         47.2300    5.8850   17.7240 O.2   507  GLU507     -0.2867
    153  CB        45.0190    4.3210   16.1120 C.3   507  GLU507      0.0388
    154  CG        44.5480    4.0530   14.7340 C.3   507  GLU507      0.1160
    155  CD        44.2260    2.6290   14.4540 C.2   507  GLU507      0.3649
    156  OE1       44.5030    1.7520   15.2450 O.co2 507  GLU507     -0.2457
    157  OE2       43.7060    2.3950   13.4080 O.co2 507  GLU507     -0.2457
@<TRIPOS>BOND
     1    30    31    1
     2    32    33    2
     3    32    31    1
     4    56    55    2
     5    31    34    1
     6    53    54    1
     7    55    54    1
     8    64    63    2
     9    34    35    1
    10    54    57    1
    11    61    62    1
    12    25    24    2
    13    37    35   ar
    14    37    39   ar
    15    59    58   ar
    16    24    23    1
    17    35    36   ar
    18    63    62    1
    19    22    23    1
    20    62    65    1
    21    23    26    1
    22    57    58    1
    23    58    60   ar
    24    39    38   ar
    25    65    66    1
    26    67    66   ar
    27    67    69   ar
    28    36    38   ar
    29    66    68   ar
    30    28    27   ar
    31    40    41    1
    32    69    70   ar
    33    26    27    1
    34    27    29   ar
    35    20    21   ar
    36    20    18   ar
    37    47    46    2
    38    21    19   ar
    39    18    17   ar
    40    68    70   ar
    41    68    71   ar
    42    70    72   ar
    43    41    42    1
    44    14    13    1
    45    14    15    2
    46    13    12    1
    47    13    16    1
    48    19    17   ar
    49    17    16    1
    50    46    45    1
    51    44    42   am
    52    44    45    1
    53    83    81   ar
    54    83    84   ar
    55    71    73   ar
    56    72    74   ar
    57    42    43    2
    58    86    84   ar
    59    86    88   ar
    60    11     9    1
    61    45    48    1
    62    81    80   ar
    63    84    82   ar
    64    49    48    1
    65    49    50    1
    66     8     9    2
    67     8     7    1
    68    73    74   ar
    69     9    10    1
    70    88    87   ar
    71   148   147   ar
    72   148   146   ar
    73     7     6    1
    74   147   145   ar
    75    50    52   ar
    76    50    51   ar
    77    80    82   ar
    78    80    79    1
    79    82    85   ar
    80    75    76    1
    81     1     2    1
    82   146   144   ar
    83    87    85   ar
    84    79    76    1
    85   145   142   ar
    86     6     5    1
    87     2     5    1
    88     2     3    1
    89    76    77    1
    90   144   142   ar
    91   144   143   ar
    92    77    78    2
    93   142   140   ar
    94   112   111    1
    95     3     4    2
    96   157   155   ar
    97   143   141   ar
    98   155   154    1
    99   155   156   ar
   100   140   141   ar
   101   140   139    1
   102   111   109   ar
   103   111   110   ar
   104   154   153    1
   105   109   107   ar
   106   110   108   ar
   107   139   136    1
   108   136   137    1
   109   136   135    1
   110   132   134   ar
   111   132   130   ar
   112   134   133   ar
   113    95    97   ar
   114    95    94   ar
   115    97    99   ar
   116   153   150    1
   117   130   129   ar
   118   130   128   ar
   119   129   127   ar
   120   149   150    1
   121   150   151    1
   122   133   131   ar
   123   137   138    2
   124   107   106   ar
   125   108   106   ar
   126   128   131   ar
   127   128   126   ar
   128   127   126   ar
   129    93    94    1
   130    93    90    1
   131    89    90    1
   132    94    96   ar
   133    99   100    1
   134    99    98   ar
   135   126   125    1
   136   106   105    1
   137    90    91    1
   138   125   122    1
   139   151   152    2
   140    96    98   ar
   141   120   118   ar
   142   119   118   ar
   143   118   117    1
   144   105   102    1
   145    91    92    2
   146   122   123    1
   147   122   121    1
   148   102   101    1
   149   102   103    1
   150   117   114    1
   151   123   124    2
   152   103   104    2
   153   113   114    1
   154   114   115    1
   155   115   116    2
