@<TRIPOS>MOLECULE
tmp/3s6xB00.pdb
 95 92 0 0 0
SMALL
GASTEIGER

@<TRIPOS>ATOM
      1  N         38.1310  -67.4370   20.3820 N.3    33  THR33      -0.1218
      2  CA        39.2910  -67.8630   21.1540 C.3    33  THR33       0.1862
      3  C         38.8950  -68.8410   22.2550 C.2    33  THR33       0.2287
      4  O         37.7260  -69.2080   22.3680 O.2    33  THR33      -0.2866
      5  CB        40.0290  -66.6460   21.7630 C.3    33  THR33       0.1770
      6  OG1       41.2800  -67.0650   22.3170 O.3    33  THR33      -0.2211
      7  CG2       39.1970  -65.9870   22.8370 C.3    33  THR33       0.0375
      8  N         38.6570  -69.4940   26.2540 N.3    35  SER35      -0.1217
      9  CA        38.7130  -68.9670   27.6070 C.3    35  SER35       0.1889
     10  C         38.5310  -70.1340   28.5540 C.2    35  SER35       0.2288
     11  O         37.4060  -70.5310   28.8540 O.2    35  SER35      -0.2866
     12  CB        37.6340  -67.9160   27.8340 C.3    35  SER35       0.2089
     13  OG        37.6690  -67.4560   29.1720 O.3    35  SER35      -0.2183
     14  N         35.1070  -68.5920   23.2620 N.3    40  ALA40      -0.1231
     15  CA        34.8050  -67.2280   23.6700 C.3    40  ALA40       0.1694
     16  C         34.9970  -66.2780   22.5100 C.2    40  ALA40       0.2592
     17  O         35.7230  -66.5730   21.5550 O.2    40  ALA40      -0.2718
     18  CB        35.6890  -66.8040   24.8520 C.3    40  ALA40       0.0304
     19  N         34.3370  -65.1310   22.6020 N.am   41  ILE41      -0.1966
     20  CA        34.5470  -64.0500   21.6550 C.3    41  ILE41       0.1727
     21  C         35.7080  -63.2090   22.1730 C.2    41  ILE41       0.2616
     22  O         35.6880  -62.7500   23.3170 O.2    41  ILE41      -0.2715
     23  CB        33.2760  -63.1860   21.5170 C.3    41  ILE41       0.0290
     24  CG1       32.1060  -64.0410   21.0220 C.3    41  ILE41       0.0022
     25  CG2       33.5090  -62.0260   20.5670 C.3    41  ILE41       0.0023
     26  CD1       30.7640  -63.3300   21.0920 C.3    41  ILE41       0.0001
     27  N         36.7240  -63.0220   21.3390 N.am   42  ARG42      -0.1963
     28  CA        37.9050  -62.2570   21.7320 C.3    42  ARG42       0.1729
     29  C         37.7500  -60.7770   21.3920 C.2    42  ARG42       0.2616
     30  O         37.5440  -60.4180   20.2330 O.2    42  ARG42      -0.2715
     31  CB        39.1660  -62.8310   21.0750 C.3    42  ARG42       0.0348
     32  CG        40.3890  -61.9390   21.2280 C.3    42  ARG42       0.0492
     33  CD        41.6520  -62.7170   21.5980 C.3    42  ARG42       0.2205
     34  NE        42.6320  -61.8220   22.2070 N.pl3  42  ARG42      -0.0865
     35  CZ        43.7050  -61.3430   21.5880 C.cat  42  ARG42       0.5346
     36  NH1       43.9650  -61.7000   20.3360 N.pl3  42  ARG42       0.1354
     37  NH2       44.5260  -60.5180   22.2280 N.pl3  42  ARG42       0.1354
     38  N         37.8410  -59.9240   22.4080 N.am   43  LEU43      -0.1964
     39  CA        37.6860  -58.4830   22.2170 C.3    43  LEU43       0.1713
     40  C         38.9620  -57.7450   22.5810 C.2    43  LEU43       0.2458
     41  O         39.0890  -57.2630   23.7060 O.2    43  LEU43      -0.2730
     42  CB        36.5480  -57.9470   23.0900 C.3    43  LEU43       0.0310
     43  CG        35.1910  -58.6290   22.9360 C.3    43  LEU43       0.0022
     44  CD1       34.2150  -58.0990   23.9770 C.3    43  LEU43       0.0001
     45  CD2       34.6590  -58.4310   21.5260 C.3    43  LEU43       0.0001
     46  N         39.9080  -57.6420   21.6330 N.am   44  PRO44      -0.2716
     47  CA        41.1950  -56.9820   21.9080 C.3    44  PRO44       0.1536
     48  C         41.0330  -55.5290   22.3470 C.2    44  PRO44       0.2599
     49  O         40.2200  -54.7930   21.7850 O.2    44  PRO44      -0.2715
     50  CB        41.9210  -57.0390   20.5550 C.3    44  PRO44       0.0310
     51  CG        41.2770  -58.1680   19.8200 C.3    44  PRO44       0.0237
     52  CD        39.8310  -58.1500   20.2540 C.3    44  PRO44       0.0939
     53  N         41.8080  -55.1270   23.3490 N.am   45  GLY45      -0.1941
     54  CA        41.8140  -53.7470   23.7980 C.3    45  GLY45       0.2014
     55  C         40.4940  -53.2810   24.3890 C.2    45  GLY45       0.2639
     56  O         39.7700  -54.0510   25.0310 O.2    45  GLY45      -0.2714
     57  N         40.1930  -52.0060   24.1660 N.am   46  ASN46      -0.1958
     58  CA        38.9810  -51.3720   24.6600 C.3    46  ASN46       0.1819
     59  C         38.3980  -50.4890   23.5640 C.2    46  ASN46       0.2621
     60  O         38.8400  -49.3610   23.3780 O.2    46  ASN46      -0.2715
     61  CB        39.3100  -50.5100   25.8850 C.3    46  ASN46       0.1195
     62  CG        38.9760  -51.1920   27.2000 C.2    46  ASN46       0.2630
     63  OD1       38.5900  -50.5370   28.1660 O.2    46  ASN46      -0.2716
     64  ND2       39.1150  -52.5060   27.2420 N.am   46  ASN46      -0.0877
     65  N         37.4120  -50.9900   22.8290 N.am   47  THR47      -0.1951
     66  CA        36.8660  -50.2120   21.7200 C.3    47  THR47       0.1897
     67  C         35.3580  -50.0040   21.8210 C.2    47  THR47       0.2313
     68  O         34.7130  -49.6320   20.8420 O.2    47  THR47      -0.2863
     69  CB        37.2060  -50.8450   20.3570 C.3    47  THR47       0.1794
     70  OG1       36.6180  -52.1450   20.2740 O.3    47  THR47      -0.2208
     71  CG2       38.7110  -50.9700   20.1860 C.3    47  THR47       0.0378
     72  N         33.2620  -52.4610   22.9830 N.3    49  LEU49      -0.1231
     73  CA        32.6410  -53.7780   23.0420 C.3    49  LEU49       0.1693
     74  C         33.0640  -54.4700   24.3230 C.2    49  LEU49       0.2592
     75  O         34.2190  -54.3700   24.7450 O.2    49  LEU49      -0.2718
     76  CB        33.0570  -54.6350   21.8430 C.3    49  LEU49       0.0284
     77  CG        32.6770  -54.1710   20.4380 C.3    49  LEU49       0.0019
     78  CD1       33.3910  -55.0270   19.3890 C.3    49  LEU49       0.0001
     79  CD2       31.1630  -54.2090   20.2510 C.3    49  LEU49       0.0001
     80  N         32.1310  -55.1760   24.9430 N.am   50  ASN50      -0.1960
     81  CA        32.4500  -55.8930   26.1630 C.3    50  ASN50       0.1819
     82  C         31.5740  -57.1170   26.3310 C.2    50  ASN50       0.2621
     83  O         30.4270  -57.1290   25.8780 O.2    50  ASN50      -0.2715
     84  CB        32.2710  -54.9720   27.3650 C.3    50  ASN50       0.1195
     85  CG        33.0010  -55.4700   28.5860 C.2    50  ASN50       0.2630
     86  OD1       34.1740  -55.8330   28.5140 O.2    50  ASN50      -0.2716
     87  ND2       32.3080  -55.5020   29.7170 N.am   50  ASN50      -0.0877
     88  N         32.1130  -58.1520   26.9730 N.am   51  ILE51      -0.1977
     89  CA        31.2790  -59.2640   27.4120 C.3    51  ILE51       0.1596
     90  C         30.7500  -58.9570   28.8110 C.2    51  ILE51       0.2287
     91  O         31.5040  -58.9590   29.7850 O.2    51  ILE51      -0.2864
     92  CB        32.0270  -60.6000   27.4570 C.3    51  ILE51       0.0276
     93  CG1       32.6930  -60.9130   26.1090 C.3    51  ILE51       0.0022
     94  CG2       31.0630  -61.7040   27.8730 C.3    51  ILE51       0.0022
     95  CD1       31.7300  -61.1000   24.9650 C.3    51  ILE51       0.0001
@<TRIPOS>BOND
     1    78    77    1
     2    51    52    1
     3    51    50    1
     4    71    69    1
     5    30    29    2
     6    79    77    1
     7    52    46    1
     8    70    69    1
     9    36    35    1
    10    69    66    1
    11     1     2    1
    12    77    76    1
    13    50    47    1
    14    25    23    1
    15    68    67    2
    16    24    26    1
    17    24    23    1
    18    31    32    1
    19    31    28    1
    20     2     5    1
    21     2     3    1
    22    32    33    1
    23    27    28    1
    24    27    21   am
    25    29    28    1
    26    29    38   am
    27    23    20    1
    28    45    43    1
    29    17    16    2
    30    35    34    2
    31    35    37    1
    32    33    34    1
    33    46    47    1
    34    46    40   am
    35    20    21    1
    36    20    19    1
    37    66    67    1
    38    66    65    1
    39     5     6    1
    40     5     7    1
    41    49    48    2
    42    76    73    1
    43    47    48    1
    44    21    22    2
    45    39    38    1
    46    39    40    1
    47    39    42    1
    48     3     4    2
    49    48    53   am
    50    16    19   am
    51    16    15    1
    52    40    41    2
    53    65    59   am
    54    43    42    1
    55    43    44    1
    56    72    73    1
    57    73    74    1
    58    14    15    1
    59    53    54    1
    60    60    59    2
    61    59    58    1
    62    15    18    1
    63    54    55    1
    64    57    55   am
    65    57    58    1
    66    74    75    2
    67    74    80   am
    68    55    56    2
    69    58    61    1
    70    80    81    1
    71    95    93    1
    72    83    82    2
    73    61    62    1
    74    93    92    1
    75    81    82    1
    76    81    84    1
    77     8     9    1
    78    82    88   am
    79    88    89    1
    80    62    64   am
    81    62    63    2
    82    84    85    1
    83    89    92    1
    84    89    90    1
    85    92    94    1
    86     9    12    1
    87     9    10    1
    88    12    13    1
    89    86    85    2
    90    10    11    2
    91    85    87   am
    92    90    91    2
