@<TRIPOS>MOLECULE
tmp/3s6yC00.pdb
 96 94 0 0 0
SMALL
GASTEIGER

@<TRIPOS>ATOM
      1  N        -28.0880   69.3010   23.2360 N.3    29  THR29      -0.1203
      2  CA       -26.9390   69.9270   23.8570 C.3    29  THR29       0.1994
      3  C        -26.1670   70.8180   22.8880 C.2    29  THR29       0.2618
      4  O        -26.3140   70.7130   21.6750 O.2    29  THR29      -0.2717
      5  CB       -26.0090   68.8480   24.4100 C.3    29  THR29       0.1784
      6  OG1      -25.1150   69.4220   25.3670 O.3    29  THR29      -0.2211
      7  CG2      -25.2390   68.1960   23.2740 C.3    29  THR29       0.0376
      8  N        -25.3550   71.7140   23.4320 N.am   30  LEU30      -0.1965
      9  CA       -24.5040   72.5680   22.6050 C.3    30  LEU30       0.1728
     10  C        -23.1590   71.8850   22.3610 C.2    30  LEU30       0.2616
     11  O        -22.4750   71.4950   23.3090 O.2    30  LEU30      -0.2715
     12  CB       -24.2850   73.9220   23.2810 C.3    30  LEU30       0.0311
     13  CG       -25.5310   74.7450   23.6220 C.3    30  LEU30       0.0022
     14  CD1      -25.1820   75.8800   24.5810 C.3    30  LEU30       0.0001
     15  CD2      -26.2170   75.2800   22.3520 C.3    30  LEU30       0.0001
     16  N        -22.7950   71.7170   21.0940 N.am   31  SER31      -0.1950
     17  CA       -21.5290   71.1070   20.7650 C.3    31  SER31       0.1924
     18  C        -20.4950   72.2150   20.8100 C.2    31  SER31       0.2314
     19  O        -19.6160   72.2490   21.7020 O.2    31  SER31      -0.2863
     20  CB       -21.5670   70.4630   19.3820 C.3    31  SER31       0.2116
     21  OG       -20.4570   69.5900   19.2000 O.3    31  SER31      -0.2180
     22  N        -26.8780   70.2670   19.0010 N.3    36  ALA36      -0.1231
     23  CA       -26.5280   68.8650   18.7260 C.3    36  ALA36       0.1694
     24  C        -27.3710   67.8340   19.5160 C.2    36  ALA36       0.2592
     25  O        -28.0130   68.1420   20.5200 O.2    36  ALA36      -0.2718
     26  CB       -25.0350   68.6340   18.9670 C.3    36  ALA36       0.0304
     27  N        -27.3740   66.5990   19.0490 N.am   37  ILE37      -0.1966
     28  CA       -28.0530   65.5290   19.7640 C.3    37  ILE37       0.1727
     29  C        -27.0720   64.8610   20.7250 C.2    37  ILE37       0.2616
     30  O        -25.9610   64.4890   20.3290 O.2    37  ILE37      -0.2715
     31  CB       -28.5750   64.4970   18.7680 C.3    37  ILE37       0.0290
     32  CG1      -29.4280   65.2060   17.7120 C.3    37  ILE37       0.0022
     33  CG2      -29.3200   63.4020   19.4820 C.3    37  ILE37       0.0023
     34  CD1      -30.1750   64.2720   16.8130 C.3    37  ILE37       0.0001
     35  N        -27.4560   64.7230   21.9930 N.am   38  ARG38      -0.1963
     36  CA       -26.5300   64.1420   22.9590 C.3    38  ARG38       0.1729
     37  C        -26.6350   62.6180   23.0930 C.2    38  ARG38       0.2616
     38  O        -27.6990   62.0780   23.4190 O.2    38  ARG38      -0.2715
     39  CB       -26.6200   64.8060   24.3340 C.3    38  ARG38       0.0348
     40  CG       -25.3920   64.4400   25.1850 C.3    38  ARG38       0.0492
     41  CD       -25.5690   64.7000   26.6620 C.3    38  ARG38       0.2205
     42  NE       -24.4210   64.1990   27.4070 N.pl3  38  ARG38      -0.0865
     43  CZ       -24.4460   63.8870   28.6980 C.cat  38  ARG38       0.5346
     44  NH1      -25.5660   64.0250   29.3950 N.pl3  38  ARG38       0.1354
     45  NH2      -23.3500   63.4300   29.2930 N.pl3  38  ARG38       0.1354
     46  N        -25.5110   61.9450   22.8500 N.am   39  LEU39      -0.1964
     47  CA       -25.4310   60.4900   22.9050 C.3    39  LEU39       0.1713
     48  C        -24.4890   60.0410   24.0260 C.2    39  LEU39       0.2458
     49  O        -23.3090   59.7340   23.7790 O.2    39  LEU39      -0.2730
     50  CB       -24.9590   59.9250   21.5540 C.3    39  LEU39       0.0310
     51  CG       -25.7890   60.2420   20.2990 C.3    39  LEU39       0.0022
     52  CD1      -25.1110   59.7530   19.0140 C.3    39  LEU39       0.0001
     53  CD2      -27.2020   59.6670   20.4200 C.3    39  LEU39       0.0001
     54  N        -25.0000   60.0120   25.2720 N.am   40  PRO40      -0.2716
     55  CA       -24.1700   59.5930   26.4150 C.3    40  PRO40       0.1536
     56  C        -23.7530   58.1220   26.3070 C.2    40  PRO40       0.2599
     57  O        -24.5550   57.2640   25.9130 O.2    40  PRO40      -0.2715
     58  CB       -25.0820   59.8060   27.6350 C.3    40  PRO40       0.0310
     59  CG       -26.2310   60.6530   27.1530 C.3    40  PRO40       0.0237
     60  CD       -26.3610   60.4230   25.6710 C.3    40  PRO40       0.0939
     61  N        -22.4960   57.8440   26.6450 N.am   41  GLY41      -0.1941
     62  CA       -21.9710   56.4890   26.6310 C.3    41  GLY41       0.2014
     63  C        -21.7130   55.9160   25.2470 C.2    41  GLY41       0.2638
     64  O        -21.4140   56.6480   24.3010 O.2    41  GLY41      -0.2714
     65  N        -21.8150   54.5920   25.1490 N.am   42  ASN42      -0.1972
     66  CA       -21.7250   53.8660   23.8850 C.3    42  ASN42       0.1688
     67  C        -22.8290   52.8180   23.7750 C.2    42  ASN42       0.2292
     68  O        -22.5810   51.6450   24.0310 O.2    42  ASN42      -0.2864
     69  CB       -20.3720   53.1670   23.7680 C.3    42  ASN42       0.1181
     70  CG       -19.3470   53.9960   23.0260 C.2    42  ASN42       0.2629
     71  OD1      -19.4100   55.2280   23.0140 O.2    42  ASN42      -0.2716
     72  ND2      -18.3890   53.3200   22.3960 N.am   42  ASN42      -0.0877
     73  N        -25.7790   53.8900   19.2680 N.3    45  LEU45      -0.1231
     74  CA       -26.0770   55.0800   18.4810 C.3    45  LEU45       0.1693
     75  C        -24.8080   55.8740   18.2390 C.2    45  LEU45       0.2592
     76  O        -23.8470   55.7470   18.9960 O.2    45  LEU45      -0.2718
     77  CB       -27.0880   55.9540   19.2120 C.3    45  LEU45       0.0284
     78  CG       -28.4410   55.3120   19.5220 C.3    45  LEU45       0.0019
     79  CD1      -29.2010   56.2230   20.4670 C.3    45  LEU45       0.0001
     80  CD2      -29.2480   55.0220   18.2400 C.3    45  LEU45       0.0001
     81  N        -24.8220   56.6990   17.1930 N.am   46  ASN46      -0.1960
     82  CA       -23.6600   57.4760   16.7780 C.3    46  ASN46       0.1819
     83  C        -23.9620   58.5250   15.6980 C.2    46  ASN46       0.2621
     84  O        -24.8340   58.3280   14.8560 O.2    46  ASN46      -0.2715
     85  CB       -22.5760   56.5360   16.2590 C.3    46  ASN46       0.1195
     86  CG       -21.2490   57.2310   16.0890 C.2    46  ASN46       0.2630
     87  OD1      -20.8000   57.9510   16.9780 O.2    46  ASN46      -0.2716
     88  ND2      -20.6220   57.0380   14.9390 N.am   46  ASN46      -0.0877
     89  N        -23.2270   59.6350   15.7110 N.am   47  ILE47      -0.1977
     90  CA       -23.3520   60.6430   14.6610 C.3    47  ILE47       0.1596
     91  C        -22.3040   60.3960   13.5810 C.2    47  ILE47       0.2287
     92  O        -21.0990   60.5220   13.8160 O.2    47  ILE47      -0.2864
     93  CB       -23.2340   62.0890   15.2080 C.3    47  ILE47       0.0276
     94  CG1      -24.2960   62.3560   16.2780 C.3    47  ILE47       0.0022
     95  CG2      -23.3930   63.1130   14.0840 C.3    47  ILE47       0.0022
     96  CD1      -25.7250   62.2610   15.7650 C.3    47  ILE47       0.0001
@<TRIPOS>BOND
     1    91    92    2
     2    91    90    1
     3    95    93    1
     4    90    93    1
     5    90    89    1
     6    84    83    2
     7    88    86   am
     8    93    94    1
     9    83    89   am
    10    83    82    1
    11    96    94    1
    12    86    85    1
    13    86    87    2
    14    85    82    1
    15    82    81    1
    16    34    32    1
    17    81    75   am
    18    32    31    1
    19    75    74    1
    20    75    76    2
    21    80    78    1
    22    74    77    1
    23    74    73    1
    24    23    26    1
    25    23    22    1
    26    23    24    1
    27    31    33    1
    28    31    28    1
    29    52    51    1
    30    27    24   am
    31    27    28    1
    32    21    20    1
    33    77    78    1
    34    20    17    1
    35    24    25    2
    36    78    79    1
    37    28    29    1
    38    51    53    1
    39    51    50    1
    40    30    29    2
    41    29    35   am
    42    17    18    1
    43    17    16    1
    44    18    19    2
    45    16    10   am
    46    50    47    1
    47     4     3    2
    48    35    36    1
    49    15    13    1
    50    10     9    1
    51    10    11    2
    52    72    70   am
    53     9    12    1
    54     9     8    1
    55    46    47    1
    56    46    37   am
    57     3     8   am
    58     3     2    1
    59    47    48    1
    60    36    37    1
    61    36    39    1
    62    71    70    2
    63    70    69    1
    64    37    38    2
    65     1     2    1
    66     7     5    1
    67    12    13    1
    68    13    14    1
    69    69    66    1
    70    67    66    1
    71    67    68    2
    72    49    48    2
    73     2     5    1
    74    66    65    1
    75    48    54   am
    76    64    63    2
    77    39    40    1
    78     5     6    1
    79    65    63   am
    80    40    41    1
    81    63    62    1
    82    54    60    1
    83    54    55    1
    84    60    59    1
    85    57    56    2
    86    56    55    1
    87    56    61   am
    88    55    58    1
    89    62    61    1
    90    41    42    1
    91    59    58    1
    92    42    43    2
    93    43    45    1
    94    43    44    1
