@<TRIPOS>MOLECULE
tmp/3s6yB00.pdb
 106 102 0 0 0
SMALL
GASTEIGER

@<TRIPOS>ATOM
      1  N        -39.8620   68.0020   20.0450 N.3    33  THR33      -0.1218
      2  CA       -41.0440   68.4910   20.7270 C.3    33  THR33       0.1862
      3  C        -40.6920   69.3670   21.9280 C.2    33  THR33       0.2287
      4  O        -39.5280   69.5550   22.2480 O.2    33  THR33      -0.2866
      5  CB       -41.9200   67.3080   21.1780 C.3    33  THR33       0.1770
      6  OG1      -43.2100   67.7850   21.5710 O.3    33  THR33      -0.2211
      7  CG2      -41.2580   66.5460   22.3320 C.3    33  THR33       0.0375
      8  N        -40.8560   70.1030   26.0000 N.3    35  SER35      -0.1217
      9  CA       -41.0670   69.5480   27.3210 C.3    35  SER35       0.1889
     10  C        -40.7890   70.6450   28.3060 C.2    35  SER35       0.2288
     11  O        -39.6510   71.0740   28.4400 O.2    35  SER35      -0.2866
     12  CB       -40.1340   68.3870   27.5910 C.3    35  SER35       0.2089
     13  OG       -40.3290   67.9470   28.9180 O.3    35  SER35      -0.2183
     14  N        -36.9320   69.1950   22.9430 N.3    40  ALA40      -0.1231
     15  CA       -36.8150   67.8240   23.4560 C.3    40  ALA40       0.1694
     16  C        -37.0080   66.7800   22.3520 C.2    40  ALA40       0.2592
     17  O        -37.6800   67.0470   21.3470 O.2    40  ALA40      -0.2718
     18  CB       -37.8150   67.5880   24.6040 C.3    40  ALA40       0.0304
     19  N        -36.4190   65.5970   22.5350 N.am   41  ILE41      -0.1966
     20  CA       -36.6250   64.4950   21.6000 C.3    41  ILE41       0.1727
     21  C        -37.8350   63.6440   21.9980 C.2    41  ILE41       0.2616
     22  O        -37.8910   63.1500   23.1230 O.2    41  ILE41      -0.2715
     23  CB       -35.3780   63.6040   21.5100 C.3    41  ILE41       0.0290
     24  CG1      -34.2250   64.3820   20.8880 C.3    41  ILE41       0.0022
     25  CG2      -35.6560   62.3480   20.6840 C.3    41  ILE41       0.0023
     26  CD1      -32.9270   63.5990   20.8560 C.3    41  ILE41       0.0001
     27  N        -38.7980   63.4790   21.0800 N.am   42  ARG42      -0.1963
     28  CA       -39.9660   62.6220   21.3250 C.3    42  ARG42       0.1729
     29  C        -39.7780   61.1670   20.9020 C.2    42  ARG42       0.2616
     30  O        -39.5640   60.8690   19.7270 O.2    42  ARG42      -0.2715
     31  CB       -41.2310   63.1780   20.6800 C.3    42  ARG42       0.0348
     32  CG       -42.4010   62.1880   20.6950 C.3    42  ARG42       0.0492
     33  CD       -43.7270   62.8400   21.0710 C.3    42  ARG42       0.2205
     34  NE       -44.7640   61.8380   21.3060 N.pl3  42  ARG42      -0.0865
     35  CZ       -45.7420   61.5460   20.4490 C.cat  42  ARG42       0.5346
     36  NH1      -45.8390   62.1890   19.2880 N.pl3  42  ARG42       0.1354
     37  NH2      -46.6350   60.6080   20.7570 N.pl3  42  ARG42       0.1354
     38  N        -39.8920   60.2710   21.8820 N.am   43  LEU43      -0.1964
     39  CA       -39.7530   58.8330   21.6800 C.3    43  LEU43       0.1713
     40  C        -41.0550   58.0650   21.9330 C.2    43  LEU43       0.2458
     41  O        -41.2250   57.4630   23.0000 O.2    43  LEU43      -0.2730
     42  CB       -38.6670   58.2910   22.6060 C.3    43  LEU43       0.0310
     43  CG       -37.2900   58.9140   22.3930 C.3    43  LEU43       0.0022
     44  CD1      -36.3320   58.4160   23.4520 C.3    43  LEU43       0.0001
     45  CD2      -36.7740   58.5960   21.0030 C.3    43  LEU43       0.0001
     46  N        -41.9600   58.0430   20.9360 N.am   44  PRO44      -0.2716
     47  CA       -43.2700   57.4040   21.1230 C.3    44  PRO44       0.1536
     48  C        -43.1260   55.9210   21.3950 C.2    44  PRO44       0.2599
     49  O        -42.4260   55.2300   20.6500 O.2    44  PRO44      -0.2715
     50  CB       -43.9710   57.5970   19.7690 C.3    44  PRO44       0.0310
     51  CG       -43.1330   58.5750   18.9960 C.3    44  PRO44       0.0237
     52  CD       -41.7350   58.4540   19.5400 C.3    44  PRO44       0.0939
     53  N        -43.7790   55.4450   22.4510 N.am   45  GLY45      -0.1941
     54  CA       -43.8620   54.0200   22.7170 C.3    45  GLY45       0.2014
     55  C        -42.6660   53.4230   23.4340 C.2    45  GLY45       0.2639
     56  O        -42.0620   54.0430   24.3160 O.2    45  GLY45      -0.2714
     57  N        -42.3390   52.1930   23.0560 N.am   46  ASN46      -0.1958
     58  CA       -41.1900   51.4900   23.5950 C.3    46  ASN46       0.1819
     59  C        -40.5200   50.6880   22.4970 C.2    46  ASN46       0.2621
     60  O        -40.8650   49.5340   22.2670 O.2    46  ASN46      -0.2715
     61  CB       -41.6050   50.5480   24.7260 C.3    46  ASN46       0.1195
     62  CG       -42.3690   51.2540   25.8260 C.2    46  ASN46       0.2630
     63  OD1      -41.7950   52.0170   26.6040 O.2    46  ASN46      -0.2716
     64  ND2      -43.6730   50.9900   25.9070 N.am   46  ASN46      -0.0877
     65  N        -39.5640   51.3030   21.8160 N.am   47  THR47      -0.1951
     66  CA       -38.8310   50.6110   20.7730 C.3    47  THR47       0.1897
     67  C        -37.3630   50.3940   21.1580 C.2    47  THR47       0.2313
     68  O        -36.5260   50.0740   20.3080 O.2    47  THR47      -0.2863
     69  CB       -38.9580   51.3530   19.4350 C.3    47  THR47       0.1794
     70  OG1      -38.3750   52.6600   19.5430 O.3    47  THR47      -0.2208
     71  CG2      -40.4300   51.4940   19.0710 C.3    47  THR47       0.0378
     72  N        -35.4170   52.7240   22.5500 N.3    49  LEU49      -0.1231
     73  CA       -34.7950   54.0310   22.7240 C.3    49  LEU49       0.1693
     74  C        -35.3500   54.6990   23.9800 C.2    49  LEU49       0.2592
     75  O        -36.5020   54.4740   24.3450 O.2    49  LEU49      -0.2718
     76  CB       -35.0640   54.9100   21.5010 C.3    49  LEU49       0.0284
     77  CG       -34.3820   54.5370   20.1830 C.3    49  LEU49       0.0019
     78  CD1      -34.9750   55.3040   19.0140 C.3    49  LEU49       0.0001
     79  CD2      -32.8670   54.7640   20.2820 C.3    49  LEU49       0.0001
     80  N        -34.5360   55.5160   24.6400 N.am   50  ASN50      -0.1960
     81  CA       -34.9910   56.2340   25.8260 C.3    50  ASN50       0.1819
     82  C        -34.0660   57.3940   26.2100 C.2    50  ASN50       0.2621
     83  O        -32.8490   57.3010   26.0350 O.2    50  ASN50      -0.2715
     84  CB       -35.1450   55.2680   27.0000 C.3    50  ASN50       0.1195
     85  CG       -35.9130   55.8750   28.1670 C.2    50  ASN50       0.2630
     86  OD1      -36.9880   56.4580   27.9960 O.2    50  ASN50      -0.2716
     87  ND2      -35.3560   55.7460   29.3600 N.am   50  ASN50      -0.0877
     88  N        -34.6460   58.4860   26.7160 N.am   51  ILE51      -0.1977
     89  CA       -33.8530   59.5900   27.2600 C.3    51  ILE51       0.1596
     90  C        -33.4740   59.2700   28.6990 C.2    51  ILE51       0.2287
     91  O        -34.3430   59.1100   29.5540 O.2    51  ILE51      -0.2864
     92  CB       -34.6040   60.9420   27.2520 C.3    51  ILE51       0.0276
     93  CG1      -34.9820   61.3710   25.8270 C.3    51  ILE51       0.0022
     94  CG2      -33.7650   62.0100   27.9230 C.3    51  ILE51       0.0022
     95  CD1      -33.8190   61.4500   24.8800 C.3    51  ILE51       0.0001
     96  N        -31.5440   50.6170   24.5220 N.3    59  ARG59      -0.1245
     97  CA       -31.6930   49.6700   25.6200 C.3    59  ARG59       0.1563
     98  C        -31.8330   48.2420   25.1160 C.2    59  ARG59       0.2260
     99  O        -32.6550   47.9570   24.2480 O.2    59  ARG59      -0.2867
    100  CB       -32.9140   50.0300   26.4640 C.3    59  ARG59       0.0307
    101  CG       -32.8480   51.3890   27.1220 C.3    59  ARG59       0.0489
    102  CD       -34.2450   51.8480   27.5150 C.3    59  ARG59       0.2205
    103  NE       -34.8970   50.9030   28.4150 N.pl3  59  ARG59      -0.0865
    104  CZ       -34.7510   50.9170   29.7360 C.cat  59  ARG59       0.5346
    105  NH1      -33.9750   51.8330   30.3010 N.pl3  59  ARG59       0.1354
    106  NH2      -35.3770   50.0180   30.4890 N.pl3  59  ARG59       0.1354
@<TRIPOS>BOND
     1    51    52    1
     2    51    50    1
     3    78    77    1
     4    71    69    1
     5    36    35    1
     6    69    70    1
     7    69    66    1
     8    52    46    1
     9    30    29    2
    10    50    47    1
    11     1     2    1
    12    77    79    1
    13    77    76    1
    14    68    67    2
    15    35    37    1
    16    35    34    2
    17    49    48    2
    18    31    32    1
    19    31    28    1
    20    25    23    1
    21    32    33    1
    22     2     5    1
    23     2     3    1
    24    66    67    1
    25    66    65    1
    26    26    24    1
    27    24    23    1
    28    29    28    1
    29    29    38   am
    30    46    47    1
    31    46    40   am
    32    45    43    1
    33    33    34    1
    34    27    28    1
    35    27    21   am
    36    47    48    1
    37     5     6    1
    38     5     7    1
    39    17    16    2
    40    48    53   am
    41    76    73    1
    42    23    20    1
    43    20    21    1
    44    20    19    1
    45    39    38    1
    46    39    40    1
    47    39    42    1
    48    65    59   am
    49     3     4    2
    50    40    41    2
    51    21    22    2
    52    60    59    2
    53    16    19   am
    54    16    15    1
    55    43    42    1
    56    43    44    1
    57    53    54    1
    58    59    58    1
    59    72    73    1
    60    54    55    1
    61    73    74    1
    62    14    15    1
    63    57    55   am
    64    57    58    1
    65    55    56    2
    66    15    18    1
    67    58    61    1
    68    74    75    2
    69    74    80   am
    70    99    98    2
    71    96    97    1
    72    80    81    1
    73    61    62    1
    74    95    93    1
    75    98    97    1
    76    97   100    1
    77    81    82    1
    78    81    84    1
    79    62    64   am
    80    62    63    2
    81    93    92    1
    82     8     9    1
    83    83    82    2
    84    82    88   am
    85   100   101    1
    86    88    89    1
    87    84    85    1
    88   101   102    1
    89    92    89    1
    90    92    94    1
    91    89    90    1
    92     9    12    1
    93     9    10    1
    94   102   103    1
    95    12    13    1
    96    86    85    2
    97    85    87   am
    98    10    11    2
    99   103   104    2
   100    90    91    2
   101   104   105    1
   102   104   106    1
