@<TRIPOS>MOLECULE
tmp/3s6zC00.pdb
 88 85 0 0 0
SMALL
GASTEIGER

@<TRIPOS>ATOM
      1  N         26.0680  235.5900    6.0310 N.3    30  THR30      -0.1218
      2  CA        24.9630  236.2660    5.3800 C.3    30  THR30       0.1862
      3  C         24.1960  237.1550    6.3540 C.2    30  THR30       0.2287
      4  O         24.3650  237.0630    7.5700 O.2    30  THR30      -0.2866
      5  CB        24.0030  235.2390    4.7520 C.3    30  THR30       0.1770
      6  OG1       23.0600  235.9090    3.9100 O.3    30  THR30      -0.2211
      7  CG2       23.2740  234.4690    5.8380 C.3    30  THR30       0.0375
      8  N         20.9480  238.2200    8.3390 N.3    32  SER32      -0.1217
      9  CA        19.6550  237.7690    8.8240 C.3    32  SER32       0.1889
     10  C         19.0310  238.9580    9.5220 C.2    32  SER32       0.2288
     11  O         19.4130  239.2980   10.6470 O.2    32  SER32      -0.2866
     12  CB        19.7950  236.6100    9.7960 C.3    32  SER32       0.2089
     13  OG        18.5450  236.3200   10.3950 O.3    32  SER32      -0.2183
     14  N         25.0310  236.4430   10.2710 N.3    37  ALA37      -0.1231
     15  CA        24.6450  235.0580   10.5420 C.3    37  ALA37       0.1694
     16  C         25.4540  234.0460    9.7490 C.2    37  ALA37       0.2592
     17  O         25.9580  234.3380    8.6610 O.2    37  ALA37      -0.2718
     18  CB        23.1400  234.8520   10.2890 C.3    37  ALA37       0.0304
     19  N         25.5740  232.8500   10.3100 N.am   38  ILE38      -0.1966
     20  CA        26.1420  231.7260    9.5860 C.3    38  ILE38       0.1727
     21  C         25.0770  231.1560    8.6700 C.2    38  ILE38       0.2616
     22  O         23.9600  230.8530    9.1070 O.2    38  ILE38      -0.2715
     23  CB        26.6430  230.6440   10.5470 C.3    38  ILE38       0.0290
     24  CG1       27.7400  231.2270   11.4410 C.3    38  ILE38       0.0022
     25  CG2       27.1570  229.4280    9.7790 C.3    38  ILE38       0.0023
     26  CD1       28.1420  230.3240   12.5840 C.3    38  ILE38       0.0001
     27  N         25.4090  231.0400    7.3890 N.am   39  ARG39      -0.1963
     28  CA        24.4720  230.4810    6.4180 C.3    39  ARG39       0.1729
     29  C         24.6350  228.9660    6.3060 C.2    39  ARG39       0.2616
     30  O         25.7470  228.4620    6.1340 O.2    39  ARG39      -0.2715
     31  CB        24.6430  231.1470    5.0470 C.3    39  ARG39       0.0348
     32  CG        23.8270  230.4940    3.9460 C.3    39  ARG39       0.0492
     33  CD        22.9230  231.4760    3.2480 C.3    39  ARG39       0.2205
     34  NE        21.7610  230.8020    2.6830 N.pl3  39  ARG39      -0.0865
     35  CZ        21.6420  230.4400    1.4100 C.cat  39  ARG39       0.5346
     36  NH1       20.5390  229.8260    0.9970 N.pl3  39  ARG39       0.1354
     37  NH2       22.6200  230.6930    0.5500 N.pl3  39  ARG39       0.1354
     38  N         23.5200  228.2490    6.4090 N.am   40  LEU40      -0.1964
     39  CA        23.5230  226.7890    6.3390 C.3    40  LEU40       0.1713
     40  C         22.4660  226.2970    5.3480 C.2    40  LEU40       0.2458
     41  O         21.3560  225.9320    5.7410 O.2    40  LEU40      -0.2730
     42  CB        23.2550  226.1930    7.7230 C.3    40  LEU40       0.0310
     43  CG        24.1810  226.6230    8.8680 C.3    40  LEU40       0.0022
     44  CD1       23.6690  226.1010   10.2120 C.3    40  LEU40       0.0001
     45  CD2       25.6050  226.1580    8.6150 C.3    40  LEU40       0.0001
     46  N         22.8070  226.2860    4.0530 N.am   41  PRO41      -0.2716
     47  CA        21.8410  225.8920    3.0230 C.3    41  PRO41       0.1536
     48  C         21.4030  224.4480    3.2170 C.2    41  PRO41       0.2599
     49  O         22.2320  223.6080    3.5670 O.2    41  PRO41      -0.2715
     50  CB        22.6420  226.0100    1.7170 C.3    41  PRO41       0.0310
     51  CG        23.8680  226.7970    2.0650 C.3    41  PRO41       0.0237
     52  CD        24.1530  226.4930    3.5000 C.3    41  PRO41       0.0939
     53  N         20.1190  224.1730    2.9950 N.am   42  GLY42      -0.1941
     54  CA        19.5950  222.8190    3.0320 C.3    42  GLY42       0.2014
     55  C         19.6910  222.1550    4.3910 C.2    42  GLY42       0.2638
     56  O         19.6490  222.8230    5.4250 O.2    42  GLY42      -0.2714
     57  N         19.8090  220.8290    4.3820 N.am   43  ASN43      -0.1972
     58  CA        19.9810  220.0490    5.6010 C.3    43  ASN43       0.1688
     59  C         21.0930  219.0340    5.4230 C.2    43  ASN43       0.2292
     60  O         20.9520  218.0630    4.6740 O.2    43  ASN43      -0.2864
     61  CB        18.6880  219.3270    5.9770 C.3    43  ASN43       0.1181
     62  CG        17.5110  220.2640    6.0730 C.2    43  ASN43       0.2629
     63  OD1       17.3310  220.9550    7.0760 O.2    43  ASN43      -0.2716
     64  ND2       16.7030  220.3000    5.0240 N.am   43  ASN43      -0.0877
     65  N         23.8530  220.1690    9.9820 N.3    46  LEU46      -0.1231
     66  CA        24.2380  221.3820   10.6930 C.3    46  LEU46       0.1693
     67  C         23.0200  222.2420   11.0010 C.2    46  LEU46       0.2592
     68  O         22.1000  222.3540   10.1840 O.2    46  LEU46      -0.2718
     69  CB        25.2310  222.1920    9.8600 C.3    46  LEU46       0.0284
     70  CG        26.6010  221.5760    9.5870 C.3    46  LEU46       0.0019
     71  CD1       27.4050  222.4770    8.6510 C.3    46  LEU46       0.0001
     72  CD2       27.3560  221.3300   10.8920 C.3    46  LEU46       0.0001
     73  N         23.0240  222.8590   12.1780 N.am   47  ASN47      -0.1960
     74  CA        21.9240  223.7230   12.5830 C.3    47  ASN47       0.1819
     75  C         22.3280  224.7720   13.6120 C.2    47  ASN47       0.2621
     76  O         23.2770  224.5730   14.3760 O.2    47  ASN47      -0.2715
     77  CB        20.7790  222.8840   13.1550 C.3    47  ASN47       0.1195
     78  CG        19.4460  223.5690   13.0110 C.2    47  ASN47       0.2630
     79  OD1       19.1440  224.1320   11.9590 O.2    47  ASN47      -0.2716
     80  ND2       18.6490  223.5500   14.0700 N.am   47  ASN47      -0.0877
     81  N         21.6050  225.8900   13.6320 N.am   48  ILE48      -0.1977
     82  CA        21.7520  226.8600   14.7100 C.3    48  ILE48       0.1596
     83  C         20.7270  226.5100   15.7760 C.2    48  ILE48       0.2287
     84  O         19.5250  226.5740   15.5310 O.2    48  ILE48      -0.2864
     85  CB        21.5220  228.3180   14.2420 C.3    48  ILE48       0.0276
     86  CG1       22.5140  228.7020   13.1420 C.3    48  ILE48       0.0022
     87  CG2       21.6310  229.2750   15.4220 C.3    48  ILE48       0.0022
     88  CD1       23.9760  228.6180   13.5690 C.3    48  ILE48       0.0001
@<TRIPOS>BOND
     1    37    35    1
     2    36    35    1
     3    35    34    2
     4    50    51    1
     5    50    47    1
     6    51    52    1
     7    34    33    1
     8    53    54    1
     9    53    48   am
    10    47    48    1
    11    47    46    1
    12    54    55    1
    13    48    49    2
    14    33    32    1
    15    52    46    1
    16     6     5    1
    17    32    31    1
    18    46    40   am
    19    57    55   am
    20    57    58    1
    21    55    56    2
    22    60    59    2
    23     5     2    1
    24     5     7    1
    25    64    62   am
    26    31    28    1
    27    40    41    2
    28    40    39    1
    29     2     1    1
    30     2     3    1
    31    59    58    1
    32    58    61    1
    33    61    62    1
    34    62    63    2
    35    30    29    2
    36    29    38   am
    37    29    28    1
    38    39    38    1
    39    39    42    1
    40     3     4    2
    41    28    27    1
    42    27    21   am
    43    42    43    1
    44     8     9    1
    45    45    43    1
    46    71    70    1
    47    17    16    2
    48    21    22    2
    49    21    20    1
    50     9    10    1
    51     9    12    1
    52    43    44    1
    53    10    11    2
    54    20    19    1
    55    20    23    1
    56    70    69    1
    57    70    72    1
    58    16    19   am
    59    16    15    1
    60    25    23    1
    61    12    13    1
    62    69    66    1
    63    65    66    1
    64    68    67    2
    65    14    15    1
    66    18    15    1
    67    23    24    1
    68    66    67    1
    69    67    73   am
    70    24    26    1
    71    79    78    2
    72    73    74    1
    73    74    77    1
    74    74    75    1
    75    78    77    1
    76    78    80   am
    77    86    88    1
    78    86    85    1
    79    75    81   am
    80    75    76    2
    81    81    82    1
    82    85    82    1
    83    85    87    1
    84    82    83    1
    85    84    83    2
