@<TRIPOS>MOLECULE
tmp/3s71A00.pdb
 124 123 0 0 0
SMALL
GASTEIGER

@<TRIPOS>ATOM
      1  N         20.3790   -2.1880    6.4100 N.3    62  HIS62      -0.1241
      2  CA        20.2750   -2.9520    7.6810 C.3    62  HIS62       0.1621
      3  C         18.8750   -3.4460    7.9420 C.2    62  HIS62       0.2264
      4  O         18.7070   -4.4010    8.6860 O.2    62  HIS62      -0.2867
      5  CB        20.8920   -2.1970    8.8960 C.3    62  HIS62       0.0745
      6  CG        20.4440   -0.7570    9.0770 C.ar   62  HIS62       0.0817
      7  ND1       21.0830    0.3370    8.4860 N.ar   62  HIS62      -0.2268
      8  CD2       19.4480   -0.2420    9.8520 C.ar   62  HIS62       0.1154
      9  CE1       20.4720    1.4360    8.9040 C.ar   62  HIS62       0.1986
     10  NE2       19.5060    1.1050    9.7590 N.ar   62  HIS62      -0.2212
     11  N          8.5750    6.1860   11.1530 N.3    90  GLN90      -0.1245
     12  CA         8.8310    4.9970   10.2670 C.3    90  GLN90       0.1566
     13  C          8.5370    3.7760   11.1020 C.2    90  GLN90       0.2260
     14  O          8.5650    3.8160   12.3450 O.2    90  GLN90      -0.2867
     15  CB        10.2950    4.9910    9.7500 C.3    90  GLN90       0.0367
     16  CG        11.3750    5.2050   10.8590 C.3    90  GLN90       0.0905
     17  CD        12.1080    3.9140   11.2170 C.2    90  GLN90       0.2608
     18  OE1       11.5580    2.8080   11.1370 O.2    90  GLN90      -0.2717
     19  NE2       13.3390    4.0670   11.6660 N.am   90  GLN90      -0.0878
     20  N          9.9270   -0.5180   10.9430 N.3    92  HIS92      -0.1241
     21  CA        10.8190   -1.5170   10.3290 C.3    92  HIS92       0.1621
     22  C         10.7170   -2.7850   11.1740 C.2    92  HIS92       0.2264
     23  O         10.1040   -2.7710   12.2410 O.2    92  HIS92      -0.2867
     24  CB        12.2610   -0.9940   10.2300 C.3    92  HIS92       0.0745
     25  CG        12.8150   -0.7020   11.6090 C.ar   92  HIS92       0.0817
     26  ND1       12.6240    0.5080   12.2240 N.ar   92  HIS92      -0.2268
     27  CD2       13.4190   -1.5010   12.4960 C.ar   92  HIS92       0.1154
     28  CE1       13.1460    0.4380   13.4740 C.ar   92  HIS92       0.1986
     29  NE2       13.6530   -0.7950   13.6770 N.ar   92  HIS92      -0.2212
     30  N         13.0220   -6.4510   12.5460 N.3    94  HIS94      -0.1241
     31  CA        14.2370   -7.2300   12.7090 C.3    94  HIS94       0.1621
     32  C         13.8280   -8.6990   12.6630 C.2    94  HIS94       0.2264
     33  O         12.7420   -9.0500   13.1550 O.2    94  HIS94      -0.2867
     34  CB        14.9450   -6.9720   14.0790 C.3    94  HIS94       0.0745
     35  CG        15.1930   -5.5390   14.3350 C.ar   94  HIS94       0.0817
     36  ND1       16.4050   -4.9550   14.0630 N.ar   94  HIS94      -0.2268
     37  CD2       14.4010   -4.5280   14.7960 C.ar   94  HIS94       0.1154
     38  CE1       16.3540   -3.6180   14.3870 C.ar   94  HIS94       0.1986
     39  NE2       15.1350   -3.3310   14.7930 N.ar   94  HIS94      -0.2212
     40  N          9.1300   -2.6170   14.8740 N.3   117  HIS117     -0.1241
     41  CA         9.3370   -1.3840   15.6120 C.3   117  HIS117      0.1621
     42  C          8.6260   -0.2320   14.9190 C.2   117  HIS117      0.2264
     43  O          9.0310    0.1080   13.7870 O.2   117  HIS117     -0.2867
     44  CB        10.8460   -1.0740   15.7330 C.3   117  HIS117      0.0745
     45  CG        11.5380   -2.0270   16.6500 C.ar  117  HIS117      0.0817
     46  ND1       12.8790   -2.2260   16.6350 N.ar  117  HIS117     -0.2268
     47  CD2       10.9940   -2.8890   17.5640 C.ar  117  HIS117      0.1154
     48  CE1       13.1650   -3.1350   17.5290 C.ar  117  HIS117      0.1986
     49  NE2       12.0600   -3.5550   18.1670 N.ar  117  HIS117     -0.2212
     50  N          8.3540    3.5370   15.1930 N.3   119  VAL119     -0.1245
     51  CA         9.2160    4.5800   15.8290 C.3   119  VAL119      0.1561
     52  C          8.5250    5.9440   15.8420 C.2   119  VAL119      0.2260
     53  O          8.0730    6.3780   14.7510 O.2   119  VAL119     -0.2867
     54  CB        10.5090    4.6560   14.9780 C.3   119  VAL119      0.0252
     55  CG1       11.5120    5.6910   15.6130 C.3   119  VAL119      0.0019
     56  CG2       11.2310    3.2810   14.8530 C.3   119  VAL119      0.0019
     57  N         13.1980   15.0300   14.6850 N.3   128  PHE128     -0.1241
     58  CA        13.7210   13.7360   15.1430 C.3   128  PHE128      0.1605
     59  C         15.1290   13.8390   15.5920 C.2   128  PHE128      0.2264
     60  O         15.5330   13.2570   16.6080 O.2   128  PHE128     -0.2867
     61  CB        13.5520   12.7620   13.9630 C.3   128  PHE128      0.0534
     62  CG        14.0840   11.3900   14.2960 C.ar  128  PHE128     -0.0203
     63  CD1       13.2630   10.4490   14.8770 C.ar  128  PHE128     -0.0042
     64  CD2       15.4010   11.0590   14.0390 C.ar  128  PHE128     -0.0042
     65  CE1       13.7040    9.1740   15.1910 C.ar  128  PHE128     -0.0003
     66  CE2       15.8550    9.7370   14.3760 C.ar  128  PHE128     -0.0003
     67  CZ        14.9920    8.8310   14.9460 C.ar  128  PHE128     -0.0000
     68  N          9.1510    3.8590   21.0640 N.3   140  VAL140     -0.1245
     69  CA         9.1380    2.7880   20.0630 C.3   140  VAL140      0.1561
     70  C          8.1800    1.7520   20.5390 C.2   140  VAL140      0.2260
     71  O          8.2800    1.2390   21.6820 O.2   140  VAL140     -0.2867
     72  CB        10.5180    2.1990   19.7290 C.3   140  VAL140      0.0252
     73  CG1       10.3730    1.1640   18.5950 C.3   140  VAL140      0.0019
     74  CG2       11.4810    3.2850   19.2950 C.3   140  VAL140      0.0019
     75  N         18.0140    3.2620   21.2680 N.3   195  LEU195     -0.1231
     76  CA        17.9620    2.7270   19.9060 C.3   195  LEU195      0.1693
     77  C         18.7170    1.4420   19.8720 C.2   195  LEU195      0.2593
     78  O         19.7890    1.3080   20.5480 O.2   195  LEU195     -0.2718
     79  CB        18.6460    3.7600   18.9460 C.3   195  LEU195      0.0284
     80  CG        18.0950    5.1500   18.9790 C.3   195  LEU195      0.0019
     81  CD1       18.9580    6.0810   18.0630 C.3   195  LEU195      0.0001
     82  CD2       16.6050    5.1650   18.5280 C.3   195  LEU195      0.0001
     83  N         18.3310    0.5070   19.0220 N.am  196  THR196     -0.1939
     84  CA        19.0150   -0.7650   18.9450 C.3   196  THR196      0.2028
     85  C         19.9830   -0.9070   17.7670 C.2   196  THR196      0.2643
     86  O         20.6220   -1.9520   17.6590 O.2   196  THR196     -0.2714
     87  CB        18.0440   -1.9440   18.9470 C.3   196  THR196      0.1808
     88  OG1       17.3920   -1.9540   17.6590 O.3   196  THR196     -0.2208
     89  CG2       17.0220   -1.8910   20.0710 C.3   196  THR196      0.0379
     90  N         20.0820    0.1570   16.9740 N.am  197  THR197     -0.1937
     91  CA        21.1900    0.2240   16.0030 C.3   197  THR197      0.2013
     92  C         21.9100    1.5300   16.2920 C.2   197  THR197      0.2484
     93  O         21.3720    2.4730   16.8900 O.2   197  THR197     -0.2729
     94  CB        20.6850    0.2510   14.5440 C.3   197  THR197      0.1807
     95  OG1       19.6810    1.2650   14.3700 O.3   197  THR197     -0.2208
     96  CG2       20.0690   -1.1070   14.1800 C.3   197  THR197      0.0379
     97  N         23.1960    1.6070   15.8510 N.am  198  PRO198     -0.2715
     98  CA        23.9360    2.8760   15.9690 C.3   198  PRO198      0.1521
     99  C         23.1360    4.0220   15.4850 C.2   198  PRO198      0.2440
    100  O         22.4940    3.9370   14.4150 O.2   198  PRO198     -0.2731
    101  CB        25.2350    2.5250   15.1090 C.3   198  PRO198      0.0310
    102  CG        25.4300    1.1360   15.3240 C.3   198  PRO198      0.0237
    103  CD        24.0120    0.5160   15.2740 C.3   198  PRO198      0.0939
    104  N         23.0960    5.1520   16.1800 N.am  199  PRO199     -0.2727
    105  CA        24.0270    5.5060   17.2750 C.3   199  PRO199      0.1402
    106  C         23.7120    4.9900   18.6800 C.2   199  PRO199      0.2269
    107  O         24.3980    5.4080   19.6090 O.2   199  PRO199     -0.2865
    108  CB        24.0330    7.0770   17.2350 C.3   199  PRO199      0.0296
    109  CG        22.6290    7.4290   16.7800 C.3   199  PRO199      0.0237
    110  CD        22.2730    6.3010   15.7070 C.3   199  PRO199      0.0939
    111  N         10.4960    2.4450   25.6640 N.3   206  TRP206     -0.1241
    112  CA        10.0660    1.2250   24.9420 C.3   206  TRP206      0.1605
    113  C          8.6950    0.8110   25.4550 C.2   206  TRP206      0.2264
    114  O          8.4530    0.7780   26.6730 O.2   206  TRP206     -0.2867
    115  CB        11.0910    0.0640   25.1890 C.3   206  TRP206      0.0550
    116  CG        12.2160    0.1480   24.2320 C.ar  206  TRP206      0.0003
    117  CD1       13.4390    0.7420   24.4140 C.ar  206  TRP206      0.0946
    118  CD2       12.1550   -0.2420   22.8640 C.ar  206  TRP206      0.0152
    119  NE1       14.1520    0.7500   23.2280 N.ar  206  TRP206     -0.2442
    120  CE2       13.3860    0.1300   22.2540 C.ar  206  TRP206      0.0810
    121  CE3       11.1820   -0.8930   22.0940 C.ar  206  TRP206      0.0012
    122  CZ2       13.6440   -0.1350   20.9230 C.ar  206  TRP206      0.0191
    123  CZ3       11.4740   -1.1730   20.7660 C.ar  206  TRP206      0.0001
    124  CH2       12.7080   -0.8130   20.2180 C.ar  206  TRP206      0.0015
@<TRIPOS>BOND
     1     1     2    1
     2     2     3    1
     3     2     5    1
     4     3     4    2
     5     7     9   ar
     6     7     6   ar
     7     5     6    1
     8     9    10   ar
     9     6     8   ar
    10    15    12    1
    11    15    16    1
    12    10     8   ar
    13    24    21    1
    14    24    25    1
    15    12    13    1
    16    12    11    1
    17    21    20    1
    18    21    22    1
    19    16    17    1
    20    13    14    2
    21    18    17    2
    22    22    23    2
    23    17    19   am
    24    25    26   ar
    25    25    27   ar
    26    26    28   ar
    27    27    29   ar
    28    30    31    1
    29    32    31    1
    30    32    33    2
    31    31    34    1
    32    28    29   ar
    33    43    42    2
    34    61    62    1
    35    61    58    1
    36    64    62   ar
    37    64    66   ar
    38    36    35   ar
    39    36    38   ar
    40    34    35    1
    41    96    94    1
    42    62    63   ar
    43    35    37   ar
    44    95    94    1
    45    66    67   ar
    46    38    39   ar
    47   100    99    2
    48    94    91    1
    49    57    58    1
    50    53    52    2
    51    39    37   ar
    52    56    54    1
    53    40    41    1
    54    63    65   ar
    55    42    41    1
    56    67    65   ar
    57    54    55    1
    58    54    51    1
    59   101   102    1
    60   101    98    1
    61    58    59    1
    62    50    51    1
    63   103   102    1
    64   103    97    1
    65    99    98    1
    66    99   104   am
    67    59    60    2
    68    41    44    1
    69   110   104    1
    70   110   109    1
    71    44    45    1
    72    51    52    1
    73    97    98    1
    74    97    92   am
    75    91    92    1
    76    91    90    1
    77   104   105    1
    78    92    93    2
    79    46    45   ar
    80    46    48   ar
    81    45    47   ar
    82   109   108    1
    83    90    85   am
    84   108   105    1
    85   105   106    1
    86    48    49   ar
    87    47    49   ar
    88    86    85    2
    89    88    87    1
    90    85    84    1
    91    81    80    1
    92    82    80    1
    93    73    72    1
    94   106   107    2
    95    84    87    1
    96    84    83    1
    97    79    80    1
    98    79    76    1
    99    87    89    1
   100    83    77   am
   101    74    72    1
   102    72    69    1
   103    77    76    1
   104    77    78    2
   105    76    75    1
   106    69    70    1
   107    69    68    1
   108   124   123   ar
   109   124   122   ar
   110    70    71    2
   111   123   121   ar
   112   122   120   ar
   113   121   118   ar
   114   120   118   ar
   115   120   119   ar
   116   118   116   ar
   117   119   117   ar
   118   116   117   ar
   119   116   115    1
   120   112   115    1
   121   112   113    1
   122   112   111    1
   123   113   114    2
