@<TRIPOS>MOLECULE
tmp/3s72A00.pdb
 114 113 0 0 0
SMALL
GASTEIGER

@<TRIPOS>ATOM
      1  N          8.5080    6.2470   11.2560 N.3    89  GLN89      -0.1245
      2  CA         8.7750    5.0740   10.3650 C.3    89  GLN89       0.1566
      3  C          8.5340    3.8450   11.1580 C.2    89  GLN89       0.2260
      4  O          8.5000    3.9010   12.3650 O.2    89  GLN89      -0.2867
      5  CB        10.2340    5.0240    9.7770 C.3    89  GLN89       0.0367
      6  CG        11.2780    5.2070   10.9480 C.3    89  GLN89       0.0905
      7  CD        12.0470    3.9190   11.2790 C.2    89  GLN89       0.2608
      8  OE1       11.4580    2.8500   11.2160 O.2    89  GLN89      -0.2717
      9  NE2       13.3740    4.0640   11.5910 N.am   89  GLN89      -0.0878
     10  N          9.8630   -0.4680   10.9760 N.3    91  HIS91      -0.1241
     11  CA        10.7310   -1.4600   10.3720 C.3    91  HIS91       0.1621
     12  C         10.6540   -2.7270   11.2270 C.2    91  HIS91       0.2264
     13  O          9.9800   -2.7730   12.2880 O.2    91  HIS91      -0.2867
     14  CB        12.1810   -0.9640   10.3190 C.3    91  HIS91       0.0745
     15  CG        12.7370   -0.6810   11.7160 C.ar   91  HIS91       0.0817
     16  ND1       12.5810    0.5340   12.3270 N.ar   91  HIS91      -0.2268
     17  CD2       13.3490   -1.4850   12.5960 C.ar   91  HIS91       0.1154
     18  CE1       13.0850    0.4890   13.5500 C.ar   91  HIS91       0.1986
     19  NE2       13.5460   -0.7510   13.7460 N.ar   91  HIS91      -0.2212
     20  N         12.9320   -6.4390   12.5850 N.3    93  HIS93      -0.1241
     21  CA        14.1640   -7.2350   12.7700 C.3    93  HIS93       0.1621
     22  C         13.7550   -8.6790   12.6340 C.2    93  HIS93       0.2264
     23  O         12.6760   -9.0590   13.1610 O.2    93  HIS93      -0.2867
     24  CB        14.8430   -6.9930   14.1110 C.3    93  HIS93       0.0745
     25  CG        15.0700   -5.5370   14.4170 C.ar   93  HIS93       0.0817
     26  ND1       16.3060   -4.9710   14.1250 N.ar   93  HIS93      -0.2268
     27  CD2       14.2570   -4.5200   14.7990 C.ar   93  HIS93       0.1154
     28  CE1       16.2810   -3.6650   14.4700 C.ar   93  HIS93       0.1986
     29  NE2       15.0400   -3.3540   14.8190 N.ar   93  HIS93      -0.2212
     30  N          9.0340   -2.5810   14.9680 N.3   116  HIS116     -0.1241
     31  CA         9.2600   -1.3720   15.7400 C.3   116  HIS116      0.1621
     32  C          8.6130   -0.2040   14.9440 C.2   116  HIS116      0.2264
     33  O          9.0160    0.1630   13.8010 O.2   116  HIS116     -0.2867
     34  CB        10.7590   -1.0950   15.7950 C.3   116  HIS116      0.0745
     35  CG        11.4210   -2.0300   16.7350 C.ar  116  HIS116      0.0817
     36  ND1       12.7870   -2.2840   16.6730 N.ar  116  HIS116     -0.2268
     37  CD2       10.8770   -2.8720   17.6400 C.ar  116  HIS116      0.1154
     38  CE1       13.0550   -3.2080   17.5890 C.ar  116  HIS116      0.1986
     39  NE2       11.9320   -3.5650   18.1940 N.ar  116  HIS116     -0.2212
     40  N          8.3510    3.6090   15.2280 N.3   118  VAL118     -0.1245
     41  CA         9.2140    4.5850   15.9230 C.3   118  VAL118      0.1561
     42  C          8.5470    5.9630   15.9270 C.2   118  VAL118      0.2260
     43  O          8.1110    6.4520   14.8230 O.2   118  VAL118     -0.2867
     44  CB        10.5000    4.7380   15.1540 C.3   118  VAL118      0.0252
     45  CG1       11.4880    5.8150   15.8100 C.3   118  VAL118      0.0019
     46  CG2       11.2680    3.3780   15.0390 C.3   118  VAL118      0.0019
     47  N         13.0360   15.1060   14.7750 N.3   127  PHE127     -0.1241
     48  CA        13.6040   13.8210   15.2270 C.3   127  PHE127      0.1605
     49  C         15.0300   13.9250   15.6740 C.2   127  PHE127      0.2264
     50  O         15.4380   13.2990   16.6630 O.2   127  PHE127     -0.2867
     51  CB        13.4100   12.8100   14.0620 C.3   127  PHE127      0.0534
     52  CG        13.9800   11.4520   14.3330 C.ar  127  PHE127     -0.0203
     53  CD1       13.2090   10.5560   15.0370 C.ar  127  PHE127     -0.0042
     54  CD2       15.3140   11.0980   13.9730 C.ar  127  PHE127     -0.0042
     55  CE1       13.7130    9.2650   15.3410 C.ar  127  PHE127     -0.0003
     56  CE2       15.8180    9.8200   14.3050 C.ar  127  PHE127     -0.0003
     57  CZ        15.0130    8.9100   14.9860 C.ar  127  PHE127     -0.0000
     58  N          9.1090    3.8900   21.1480 N.3   139  VAL139     -0.1245
     59  CA         9.1100    2.8570   20.1300 C.3   139  VAL139      0.1561
     60  C          8.1270    1.7650   20.6270 C.2   139  VAL139      0.2260
     61  O          8.2340    1.2560   21.7490 O.2   139  VAL139     -0.2867
     62  CB        10.5240    2.2260   19.8230 C.3   139  VAL139      0.0252
     63  CG1       10.3680    1.2230   18.6120 C.3   139  VAL139      0.0019
     64  CG2       11.5040    3.3330   19.3950 C.3   139  VAL139      0.0019
     65  N         17.9290    3.2570   21.3240 N.3   194  LEU194     -0.1231
     66  CA        17.8710    2.7170   19.9380 C.3   194  LEU194      0.1693
     67  C         18.6430    1.4420   19.9510 C.2   194  LEU194      0.2593
     68  O         19.7090    1.3190   20.6570 O.2   194  LEU194     -0.2718
     69  CB        18.5310    3.7270   18.9760 C.3   194  LEU194      0.0284
     70  CG        17.9340    5.1230   19.0040 C.3   194  LEU194      0.0019
     71  CD1       18.7480    6.0960   18.0710 C.3   194  LEU194      0.0001
     72  CD2       16.5130    5.0100   18.3940 C.3   194  LEU194      0.0001
     73  N         18.1970    0.4810   19.1290 N.am  195  THR195     -0.1939
     74  CA        18.8990   -0.8120   19.0820 C.3   195  THR195      0.2028
     75  C         19.8500   -0.9370   17.9640 C.2   195  THR195      0.2643
     76  O         20.4770   -2.0250   17.8220 O.2   195  THR195     -0.2714
     77  CB        17.9480   -1.9940   19.0220 C.3   195  THR195      0.1808
     78  OG1       17.3120   -2.0340   17.7520 O.3   195  THR195     -0.2208
     79  CG2       16.9030   -1.9860   20.2020 C.3   195  THR195      0.0379
     80  N         19.9620    0.1200   17.1610 N.am  196  THR196     -0.1937
     81  CA        21.0580    0.1760   16.1930 C.3   196  THR196      0.2013
     82  C         21.8720    1.4170   16.4630 C.2   196  THR196      0.2484
     83  O         21.3190    2.4050   16.9980 O.2   196  THR196     -0.2729
     84  CB        20.5480    0.2770   14.7170 C.3   196  THR196      0.1807
     85  OG1       19.6830    1.3960   14.4960 O.3   196  THR196     -0.2208
     86  CG2       19.7920   -1.0060   14.3560 C.3   196  THR196      0.0379
     87  N         23.1230    1.4590   15.9480 N.am  197  PRO197     -0.2715
     88  CA        23.8370    2.7350   16.0390 C.3   197  PRO197      0.1521
     89  C         22.9680    3.9270   15.5110 C.2   197  PRO197      0.2440
     90  O         22.2620    3.8200   14.4430 O.2   197  PRO197     -0.2731
     91  CB        25.0910    2.4520   15.1500 C.3   197  PRO197      0.0310
     92  CG        25.3190    1.0350   15.3900 C.3   197  PRO197      0.0237
     93  CD        23.9350    0.3830   15.3370 C.3   197  PRO197      0.0939
     94  N         22.9630    5.0820   16.2030 N.am  198  PRO198     -0.2727
     95  CA        23.9400    5.4780   17.2320 C.3   198  PRO198      0.1402
     96  C         23.6040    5.0190   18.6680 C.2   198  PRO198      0.2269
     97  O         24.3290    5.4570   19.6220 O.2   198  PRO198     -0.2865
     98  CB        23.8720    7.0120   17.1620 C.3   198  PRO198      0.0296
     99  CG        22.4190    7.3120   16.8130 C.3   198  PRO198      0.0237
    100  CD        22.1860    6.2580   15.7390 C.3   198  PRO198      0.0939
    101  N         10.4580    2.4450   25.7740 N.3   205  TRP205     -0.1241
    102  CA        10.0140    1.2560   25.0720 C.3   205  TRP205      0.1605
    103  C          8.6570    0.8270   25.5710 C.2   205  TRP205      0.2264
    104  O          8.3830    0.7520   26.7670 O.2   205  TRP205     -0.2867
    105  CB        11.0480    0.0470   25.2800 C.3   205  TRP205      0.0550
    106  CG        12.1360    0.1590   24.2760 C.ar  205  TRP205      0.0003
    107  CD1       13.3870    0.7580   24.4200 C.ar  205  TRP205      0.0946
    108  CD2       12.0590   -0.2530   22.9020 C.ar  205  TRP205      0.0152
    109  NE1       14.0650    0.7090   23.2540 N.ar  205  TRP205     -0.2442
    110  CE2       13.2840    0.0990   22.2920 C.ar  205  TRP205      0.0810
    111  CE3       11.0540   -0.8950   22.1300 C.ar  205  TRP205      0.0012
    112  CZ2       13.5830   -0.1810   20.9660 C.ar  205  TRP205      0.0191
    113  CZ3       11.3480   -1.2130   20.8060 C.ar  205  TRP205      0.0001
    114  CH2       12.6110   -0.8530   20.2220 C.ar  205  TRP205      0.0015
@<TRIPOS>BOND
     1     5     2    1
     2     5     6    1
     3    14    11    1
     4    14    15    1
     5     2     3    1
     6     2     1    1
     7    11    10    1
     8    11    12    1
     9     6     7    1
    10     3     4    2
    11     8     7    2
    12    12    13    2
    13     7     9   am
    14    15    16   ar
    15    15    17   ar
    16    16    18   ar
    17    20    21    1
    18    17    19   ar
    19    22    21    1
    20    22    23    2
    21    21    24    1
    22    18    19   ar
    23    33    32    2
    24    54    56   ar
    25    54    52   ar
    26    51    52    1
    27    51    48    1
    28    24    25    1
    29    26    25   ar
    30    26    28   ar
    31    56    57   ar
    32    52    53   ar
    33    86    84    1
    34    25    27   ar
    35    90    89    2
    36    28    29   ar
    37    85    84    1
    38    84    81    1
    39    47    48    1
    40    27    29   ar
    41    43    42    2
    42    32    31    1
    43    30    31    1
    44    57    55   ar
    45    53    55   ar
    46    46    44    1
    47    91    92    1
    48    91    88    1
    49    44    45    1
    50    44    41    1
    51    48    49    1
    52    40    41    1
    53    93    92    1
    54    93    87    1
    55    89    88    1
    56    89    94   am
    57    49    50    2
    58   100    94    1
    59   100    99    1
    60    31    34    1
    61    34    35    1
    62    41    42    1
    63    87    88    1
    64    87    82   am
    65    81    82    1
    66    81    80    1
    67    94    95    1
    68    82    83    2
    69    36    35   ar
    70    36    38   ar
    71    35    37   ar
    72    99    98    1
    73    80    75   am
    74    98    95    1
    75    95    96    1
    76    38    39   ar
    77    37    39   ar
    78    78    77    1
    79    76    75    2
    80    75    74    1
    81    71    70    1
    82    72    70    1
    83    63    62    1
    84    96    97    2
    85    69    70    1
    86    69    66    1
    87    77    74    1
    88    77    79    1
    89    74    73    1
    90    73    67   am
    91    64    62    1
    92    62    59    1
    93    66    67    1
    94    66    65    1
    95    67    68    2
    96    59    60    1
    97    59    58    1
    98   114   113   ar
    99   114   112   ar
   100    60    61    2
   101   113   111   ar
   102   112   110   ar
   103   111   108   ar
   104   110   108   ar
   105   110   109   ar
   106   108   106   ar
   107   109   107   ar
   108   106   107   ar
   109   106   105    1
   110   102   105    1
   111   102   103    1
   112   102   101    1
   113   103   104    2
