@<TRIPOS>MOLECULE
tmp/3s74A01.pdb
 124 123 0 0 0
SMALL
GASTEIGER

@<TRIPOS>ATOM
      1  N         20.3690   -2.2200    6.1580 N.3    61  HIS61      -0.1241
      2  CA        20.2600   -3.0500    7.3860 C.3    61  HIS61       0.1621
      3  C         18.8630   -3.5600    7.6230 C.2    61  HIS61       0.2264
      4  O         18.7650   -4.6720    8.1690 O.2    61  HIS61      -0.2867
      5  CB        20.8400   -2.4760    8.6770 C.3    61  HIS61       0.0745
      6  CG        20.6910   -1.0050    8.8290 C.ar   61  HIS61       0.0817
      7  ND1       19.6500   -0.4170    9.5130 N.ar   61  HIS61      -0.2268
      8  CD2       21.4600    0.0100    8.3620 C.ar   61  HIS61       0.1154
      9  CE1       19.7980    0.8980    9.4810 C.ar   61  HIS61       0.1986
     10  NE2       20.8870    1.1820    8.7870 N.ar   61  HIS61      -0.2212
     11  N          8.4370    6.2410   11.1850 N.3    89  GLN89      -0.1245
     12  CA         8.6650    5.1100   10.3170 C.3    89  GLN89       0.1566
     13  C          8.4210    3.8540   11.0980 C.2    89  GLN89       0.2260
     14  O          8.4120    3.8940   12.3030 O.2    89  GLN89      -0.2867
     15  CB        10.1290    5.1020    9.8040 C.3    89  GLN89       0.0367
     16  CG        11.2920    5.2320   10.9490 C.3    89  GLN89       0.0905
     17  CD        12.0680    3.9550   11.2120 C.2    89  GLN89       0.2608
     18  OE1       11.4980    2.8760   11.1570 O.2    89  GLN89      -0.2717
     19  NE2       13.3450    4.1010   11.5310 N.am   89  GLN89      -0.0878
     20  N          9.8410   -0.4350   10.8730 N.3    91  HIS91      -0.1241
     21  CA        10.7820   -1.4000   10.2350 C.3    91  HIS91       0.1621
     22  C         10.6900   -2.7000   11.0730 C.2    91  HIS91       0.2264
     23  O         10.0290   -2.7400   12.1250 O.2    91  HIS91      -0.2867
     24  CB        12.2000   -0.9070   10.2070 C.3    91  HIS91       0.0745
     25  CG        12.7400   -0.6360   11.5940 C.ar   91  HIS91       0.0817
     26  ND1       12.5630    0.5880   12.2050 N.ar   91  HIS91      -0.2268
     27  CD2       13.2880   -1.4650   12.5100 C.ar   91  HIS91       0.1154
     28  CE1       13.0120    0.5040   13.4480 C.ar   91  HIS91       0.1986
     29  NE2       13.4810   -0.7400   13.6570 N.ar   91  HIS91      -0.2212
     30  N         12.9670   -6.4180   12.4310 N.3    93  HIS93      -0.1241
     31  CA        14.2060   -7.1960   12.6010 C.3    93  HIS93       0.1621
     32  C         13.7660   -8.6670   12.5050 C.2    93  HIS93       0.2264
     33  O         12.6750   -9.0320   13.0430 O.2    93  HIS93      -0.2867
     34  CB        14.8560   -6.9680   13.9840 C.3    93  HIS93       0.0745
     35  CG        15.0700   -5.5220   14.2810 C.ar   93  HIS93       0.0817
     36  ND1       16.3170   -4.9790   14.0960 N.ar   93  HIS93      -0.2268
     37  CD2       14.2480   -4.5280   14.7050 C.ar   93  HIS93       0.1154
     38  CE1       16.2590   -3.6810   14.5110 C.ar   93  HIS93       0.1986
     39  NE2       15.0100   -3.3580   14.7840 N.ar   93  HIS93      -0.2212
     40  N          9.0230   -2.6090   14.8300 N.3   116  HIS116     -0.1241
     41  CA         9.2310   -1.3790   15.6050 C.3   116  HIS116      0.1621
     42  C          8.5500   -0.2230   14.8730 C.2   116  HIS116      0.2264
     43  O          8.9600    0.1330   13.7230 O.2   116  HIS116     -0.2867
     44  CB        10.7660   -1.1010   15.6990 C.3   116  HIS116      0.0745
     45  CG        11.4300   -2.0700   16.5990 C.ar  116  HIS116      0.0817
     46  ND1       12.7770   -2.3050   16.5620 N.ar  116  HIS116     -0.2268
     47  CD2       10.8710   -2.8910   17.5430 C.ar  116  HIS116      0.1154
     48  CE1       13.0630   -3.2270   17.4420 C.ar  116  HIS116      0.1986
     49  NE2       11.9410   -3.5730   18.0910 N.ar  116  HIS116     -0.2212
     50  N          8.2970    3.6050   15.1340 N.3   118  VAL118     -0.1245
     51  CA         9.1240    4.6460   15.7770 C.3   118  VAL118      0.1561
     52  C          8.4530    5.9910   15.8070 C.2   118  VAL118      0.2260
     53  O          8.0520    6.4470   14.7350 O.2   118  VAL118     -0.2867
     54  CB        10.4810    4.7040   14.9970 C.3   118  VAL118      0.0252
     55  CG1       11.4650    5.7750   15.6400 C.3   118  VAL118      0.0019
     56  CG2       11.2320    3.3380   14.8270 C.3   118  VAL118      0.0019
     57  N         12.8320   14.8830   14.6720 N.3   127  PHE127     -0.1241
     58  CA        13.3850   13.6060   15.1190 C.3   127  PHE127      0.1605
     59  C         14.8340   13.8460   15.5140 C.2   127  PHE127      0.2264
     60  O         15.2950   13.2610   16.5370 O.2   127  PHE127     -0.2867
     61  CB        13.2610   12.6080   13.9670 C.3   127  PHE127      0.0534
     62  CG        13.9340   11.2960   14.2820 C.ar  127  PHE127     -0.0203
     63  CD1       13.1970   10.3120   14.9170 C.ar  127  PHE127     -0.0042
     64  CD2       15.3080   11.0230   14.0780 C.ar  127  PHE127     -0.0042
     65  CE1       13.7600    9.0970   15.2440 C.ar  127  PHE127     -0.0003
     66  CE2       15.8620    9.8000   14.3770 C.ar  127  PHE127     -0.0003
     67  CZ        15.0630    8.8240   15.0150 C.ar  127  PHE127     -0.0000
     68  N          9.1280    3.8500   21.0600 N.3   139  VAL139     -0.1245
     69  CA         9.1270    2.8000   20.0500 C.3   139  VAL139      0.1561
     70  C          8.1720    1.7170   20.5410 C.2   139  VAL139      0.2260
     71  O          8.2730    1.2000   21.6630 O.2   139  VAL139     -0.2867
     72  CB        10.5090    2.2100   19.7150 C.3   139  VAL139      0.0252
     73  CG1       10.3540    1.1860   18.5270 C.3   139  VAL139      0.0019
     74  CG2       11.4220    3.3390   19.2670 C.3   139  VAL139      0.0019
     75  N         18.0410    3.2350   21.1650 N.3   194  LEU194     -0.1231
     76  CA        17.9530    2.6910   19.7910 C.3   194  LEU194      0.1693
     77  C         18.7100    1.4150   19.8410 C.2   194  LEU194      0.2593
     78  O         19.7670    1.2240   20.5550 O.2   194  LEU194     -0.2718
     79  CB        18.6730    3.6780   18.8730 C.3   194  LEU194      0.0284
     80  CG        18.1490    5.0690   18.8220 C.3   194  LEU194      0.0019
     81  CD1       18.9380    5.9640   17.8260 C.3   194  LEU194      0.0001
     82  CD2       16.6620    5.1140   18.4030 C.3   194  LEU194      0.0001
     83  N         18.3010    0.4500   19.0180 N.am  195  THR195     -0.1939
     84  CA        18.9840   -0.8640   19.0080 C.3   195  THR195      0.2028
     85  C         19.9400   -1.0090   17.8580 C.2   195  THR195      0.2643
     86  O         20.5660   -2.0760   17.7340 O.2   195  THR195     -0.2714
     87  CB        17.9690   -2.0290   18.9010 C.3   195  THR195      0.1808
     88  OG1       17.3330   -2.0340   17.6120 O.3   195  THR195     -0.2208
     89  CG2       16.8980   -1.9540   19.9870 C.3   195  THR195      0.0379
     90  N         20.1360    0.0480   17.0350 N.am  196  THR196     -0.1937
     91  CA        21.2670    0.0700   16.1150 C.3   196  THR196      0.2013
     92  C         22.0110    1.3550   16.3960 C.2   196  THR196      0.2484
     93  O         21.5100    2.2780   16.9990 O.2   196  THR196     -0.2729
     94  CB        20.8140    0.0920   14.6690 C.3   196  THR196      0.1807
     95  OG1       20.3040    1.4000   14.2830 O.3   196  THR196     -0.2208
     96  CG2       19.7210   -0.8920   14.3160 C.3   196  THR196      0.0379
     97  N         23.2880    1.3980   15.9400 N.am  197  PRO197     -0.2715
     98  CA        24.0060    2.6850   16.0480 C.3   197  PRO197      0.1521
     99  C         23.0990    3.8160   15.4880 C.2   197  PRO197      0.2440
    100  O         22.3750    3.6200   14.4300 O.2   197  PRO197     -0.2731
    101  CB        25.2780    2.4080   15.1850 C.3   197  PRO197      0.0310
    102  CG        25.4800    0.9780   15.3820 C.3   197  PRO197      0.0237
    103  CD        24.1160    0.3410   15.3430 C.3   197  PRO197      0.0939
    104  N         23.0910    4.9930   16.1180 N.am  198  PRO198     -0.2727
    105  CA        24.0520    5.4130   17.1650 C.3   198  PRO198      0.1402
    106  C         23.7180    4.9900   18.6220 C.2   198  PRO198      0.2269
    107  O         24.3910    5.3760   19.5460 O.2   198  PRO198     -0.2865
    108  CB        24.0430    6.9550   17.0590 C.3   198  PRO198      0.0296
    109  CG        22.5480    7.2500   16.5640 C.3   198  PRO198      0.0237
    110  CD        22.2620    6.1170   15.6170 C.3   198  PRO198      0.0939
    111  N         10.5120    2.3890   25.6100 N.3   205  TRP205     -0.1241
    112  CA        10.0420    1.1630   24.9070 C.3   205  TRP205      0.1605
    113  C          8.6880    0.7250   25.4170 C.2   205  TRP205      0.2264
    114  O          8.4660    0.6970   26.6320 O.2   205  TRP205     -0.2867
    115  CB        11.0820    0.0270   25.1570 C.3   205  TRP205      0.0550
    116  CG        12.2000    0.1390   24.1550 C.ar  205  TRP205      0.0003
    117  CD1       13.4290    0.7560   24.3470 C.ar  205  TRP205      0.0946
    118  CD2       12.1650   -0.2930   22.7860 C.ar  205  TRP205      0.0152
    119  NE1       14.1520    0.7420   23.1240 N.ar  205  TRP205     -0.2442
    120  CE2       13.3930    0.0980   22.1720 C.ar  205  TRP205      0.0810
    121  CE3       11.1810   -0.9180   21.9760 C.ar  205  TRP205      0.0012
    122  CZ2       13.6610   -0.1250   20.8120 C.ar  205  TRP205      0.0191
    123  CZ3       11.4690   -1.1960   20.6360 C.ar  205  TRP205      0.0001
    124  CH2       12.6940   -0.8080   20.0970 C.ar  205  TRP205      0.0015
@<TRIPOS>BOND
     1     1     2    1
     2     2     3    1
     3     2     5    1
     4     3     4    2
     5     8    10   ar
     6     8     6   ar
     7     5     6    1
     8    10     9   ar
     9     6     7   ar
    10     9     7   ar
    11    15    12    1
    12    15    16    1
    13    24    21    1
    14    24    25    1
    15    21    20    1
    16    21    22    1
    17    12    13    1
    18    12    11    1
    19    16    17    1
    20    22    23    2
    21    13    14    2
    22    18    17    2
    23    17    19   am
    24    25    26   ar
    25    25    27   ar
    26    26    28   ar
    27    30    31    1
    28    32    31    1
    29    32    33    2
    30    27    29   ar
    31    31    34    1
    32    28    29   ar
    33    43    42    2
    34    61    62    1
    35    61    58    1
    36    34    35    1
    37    64    62   ar
    38    64    66   ar
    39    36    35   ar
    40    36    38   ar
    41    35    37   ar
    42    62    63   ar
    43    95    94    1
    44    96    94    1
    45    66    67   ar
    46   100    99    2
    47    38    39   ar
    48    94    91    1
    49    57    58    1
    50    37    39   ar
    51    53    52    2
    52    56    54    1
    53    40    41    1
    54    42    41    1
    55    63    65   ar
    56    54    55    1
    57    54    51    1
    58    67    65   ar
    59    58    59    1
    60    50    51    1
    61   101   102    1
    62   101    98    1
    63   103   102    1
    64   103    97    1
    65    99    98    1
    66    99   104   am
    67    59    60    2
    68    41    44    1
    69   110   104    1
    70   110   109    1
    71    44    45    1
    72    51    52    1
    73    97    98    1
    74    97    92   am
    75    91    92    1
    76    91    90    1
    77   104   105    1
    78    92    93    2
    79    46    45   ar
    80    46    48   ar
    81   109   108    1
    82    45    47   ar
    83    90    85   am
    84   108   105    1
    85   105   106    1
    86    48    49   ar
    87    47    49   ar
    88    88    87    1
    89    86    85    2
    90    81    80    1
    91    85    84    1
    92    82    80    1
    93    73    72    1
    94   106   107    2
    95    80    79    1
    96    79    76    1
    97    87    84    1
    98    87    89    1
    99    84    83    1
   100    83    77   am
   101    74    72    1
   102    72    69    1
   103    76    77    1
   104    76    75    1
   105    77    78    2
   106    69    70    1
   107    69    68    1
   108   124   123   ar
   109   124   122   ar
   110    70    71    2
   111   123   121   ar
   112   122   120   ar
   113   121   118   ar
   114   120   118   ar
   115   120   119   ar
   116   118   116   ar
   117   119   117   ar
   118   116   117   ar
   119   116   115    1
   120   112   115    1
   121   112   113    1
   122   112   111    1
   123   113   114    2
