@<TRIPOS>MOLECULE
tmp/3s75A00.pdb
 129 126 0 0 0
SMALL
GASTEIGER

@<TRIPOS>ATOM
      1  N          8.5600    6.2170   11.1750 N.3    90  GLN90      -0.1245
      2  CA         8.8330    5.0160   10.2570 C.3    90  GLN90       0.1566
      3  C          8.5800    3.7870   11.0610 C.2    90  GLN90       0.2260
      4  O          8.5660    3.8460   12.2810 O.2    90  GLN90      -0.2867
      5  CB        10.3150    4.9680    9.6840 C.3    90  GLN90       0.0367
      6  CG        11.3670    5.1550   10.8280 C.3    90  GLN90       0.0905
      7  CD        12.0590    3.9090   11.2300 C.2    90  GLN90       0.2608
      8  OE1       11.5820    2.7970   11.0140 O.2    90  GLN90      -0.2717
      9  NE2       13.2670    4.1010   11.7420 N.am   90  GLN90      -0.0878
     10  N          9.9540   -0.4680   10.9420 N.3    92  HIS92      -0.1241
     11  CA        10.8310   -1.4810   10.3240 C.3    92  HIS92       0.1621
     12  C         10.7700   -2.7540   11.1630 C.2    92  HIS92       0.2264
     13  O         10.1350   -2.7730   12.2090 O.2    92  HIS92      -0.2867
     14  CB        12.2770   -0.9670   10.2100 C.3    92  HIS92       0.0745
     15  CG        12.8550   -0.6610   11.5780 C.ar   92  HIS92       0.0817
     16  ND1       12.6450    0.5490   12.2300 N.ar   92  HIS92      -0.2268
     17  CD2       13.4600   -1.4860   12.4880 C.ar   92  HIS92       0.1154
     18  CE1       13.1560    0.4690   13.4650 C.ar   92  HIS92       0.1986
     19  NE2       13.6680   -0.7590   13.6370 N.ar   92  HIS92      -0.2212
     20  N         13.0660   -6.4260   12.5510 N.3    94  HIS94      -0.1241
     21  CA        14.2770   -7.2260   12.6870 C.3    94  HIS94       0.1621
     22  C         13.8640   -8.6610   12.6290 C.2    94  HIS94       0.2264
     23  O         12.7810   -9.0340   13.1280 O.2    94  HIS94      -0.2867
     24  CB        14.9150   -6.9630   14.0490 C.3    94  HIS94       0.0745
     25  CG        15.1710   -5.4940   14.3130 C.ar   94  HIS94       0.0817
     26  ND1       16.4190   -4.9440   14.0400 N.ar   94  HIS94      -0.2268
     27  CD2       14.3870   -4.4970   14.7720 C.ar   94  HIS94       0.1154
     28  CE1       16.3840   -3.6290   14.3850 C.ar   94  HIS94       0.1986
     29  NE2       15.1390   -3.3190   14.7510 N.ar   94  HIS94      -0.2212
     30  N          9.0760   -2.6020   14.8710 N.3   117  HIS117     -0.1241
     31  CA         9.2920   -1.3660   15.6280 C.3   117  HIS117      0.1621
     32  C          8.6640   -0.2410   14.8820 C.2   117  HIS117      0.2264
     33  O          9.0650    0.1660   13.7680 O.2   117  HIS117     -0.2867
     34  CB        10.8000   -1.0590   15.7000 C.3   117  HIS117      0.0745
     35  CG        11.4940   -2.0340   16.5950 C.ar  117  HIS117      0.0817
     36  ND1       12.8750   -2.2480   16.6000 N.ar  117  HIS117     -0.2268
     37  CD2       10.9660   -2.8560   17.5540 C.ar  117  HIS117      0.1154
     38  CE1       13.1570   -3.1740   17.4940 C.ar  117  HIS117      0.1986
     39  NE2       12.0390   -3.5420   18.1190 N.ar  117  HIS117     -0.2212
     40  N          8.3510    3.5680   15.1340 N.3   119  VAL119     -0.1245
     41  CA         9.2410    4.5760   15.7550 C.3   119  VAL119      0.1561
     42  C          8.5320    5.9420   15.7620 C.2   119  VAL119      0.2260
     43  O          8.0790    6.4070   14.6790 O.2   119  VAL119     -0.2867
     44  CB        10.5550    4.6500   14.9390 C.3   119  VAL119      0.0252
     45  CG1       11.5070    5.7510   15.6000 C.3   119  VAL119      0.0019
     46  CG2       11.2740    3.2790   14.8470 C.3   119  VAL119      0.0019
     47  N         13.1370   15.0160   14.5930 N.3   128  PHE128     -0.1241
     48  CA        13.7420   13.7380   15.0110 C.3   128  PHE128      0.1605
     49  C         15.1700   13.8240   15.4640 C.2   128  PHE128      0.2264
     50  O         15.5470   13.2140   16.4890 O.2   128  PHE128     -0.2867
     51  CB        13.5540   12.7140   13.8810 C.3   128  PHE128      0.0534
     52  CG        14.0860   11.3490   14.1970 C.ar  128  PHE128     -0.0203
     53  CD1       13.2630   10.3640   14.8100 C.ar  128  PHE128     -0.0042
     54  CD2       15.4310   10.9650   13.8860 C.ar  128  PHE128     -0.0042
     55  CE1       13.7560    9.1050   15.1290 C.ar  128  PHE128     -0.0003
     56  CE2       15.8830    9.7080   14.2020 C.ar  128  PHE128     -0.0003
     57  CZ        15.0590    8.7780   14.8650 C.ar  128  PHE128     -0.0000
     58  N         12.0820    9.6200   22.1010 N.3   138  LEU138     -0.1197
     59  CA        11.4270    8.6650   21.2010 C.3   138  LEU138      0.1775
     60  C         10.5380    7.7350   21.9880 C.2   138  LEU138      0.2305
     61  O         10.7990    7.4600   23.1910 O.2   138  LEU138     -0.2863
     62  CB        12.4410    7.7920   20.4940 C.2   138  LEU138     -0.0081
     63  CG        13.3160    8.3960   19.4280 C.2   138  LEU138     -0.0460
     64  CD1       13.9210    7.3660   18.5200 C.3   138  LEU138      0.0261
     65  CD2       13.1790    9.7060   18.7570 C.3   138  LEU138      0.0261
     66  N          9.1660    3.8440   21.0140 N.3   140  VAL140     -0.1245
     67  CA         9.1120    2.8040   20.0010 C.3   140  VAL140      0.1561
     68  C          8.1520    1.7420   20.5110 C.2   140  VAL140      0.2260
     69  O          8.2680    1.2840   21.6220 O.2   140  VAL140     -0.2867
     70  CB        10.5330    2.1700   19.7040 C.3   140  VAL140      0.0252
     71  CG1       10.3830    1.1350   18.5310 C.3   140  VAL140      0.0019
     72  CG2       11.4770    3.2960   19.2240 C.3   140  VAL140      0.0019
     73  N         18.1170    3.2700   21.2100 N.3   195  LEU195     -0.1231
     74  CA        18.0310    2.7280   19.8720 C.3   195  LEU195      0.1693
     75  C         18.7570    1.4090   19.9070 C.2   195  LEU195      0.2593
     76  O         19.8290    1.2510   20.5660 O.2   195  LEU195     -0.2718
     77  CB        18.8030    3.6690   18.9240 C.3   195  LEU195      0.0284
     78  CG        18.3960    5.1460   18.9690 C.3   195  LEU195      0.0019
     79  CD1       19.2080    5.9060   17.8610 C.3   195  LEU195      0.0001
     80  CD2       16.8580    5.2960   18.6030 C.3   195  LEU195      0.0001
     81  N         18.3710    0.4660   19.0520 N.am  196  THR196     -0.1939
     82  CA        19.0770   -0.8320   19.0110 C.3   196  THR196      0.2028
     83  C         20.0570   -0.9400   17.9020 C.2   196  THR196      0.2643
     84  O         20.6990   -1.9950   17.7460 O.2   196  THR196     -0.2714
     85  CB        18.0610   -2.0220   18.8720 C.3   196  THR196      0.1808
     86  OG1       17.4100   -1.9600   17.6160 O.3   196  THR196     -0.2208
     87  CG2       17.0020   -1.9300   20.0550 C.3   196  THR196      0.0379
     88  N         20.1600    0.1470   17.0950 N.am  197  THR197     -0.1937
     89  CA        21.2390    0.2320   16.0950 C.3   197  THR197      0.2013
     90  C         22.0620    1.4600   16.4190 C.2   197  THR197      0.2484
     91  O         21.5500    2.4610   16.9960 O.2   197  THR197     -0.2729
     92  CB        20.6680    0.3470   14.6300 C.3   197  THR197      0.1807
     93  OG1       19.6190    1.3450   14.6000 O.3   197  THR197     -0.2208
     94  CG2       20.0540   -0.9680   14.2140 C.3   197  THR197      0.0379
     95  N         23.3520    1.3940   16.0130 N.am  198  PRO198     -0.2715
     96  CA        24.1490    2.6590   16.1340 C.3   198  PRO198      0.1521
     97  C         23.3930    3.8460   15.5440 C.2   198  PRO198      0.2440
     98  O         22.8310    3.7810   14.4090 O.2   198  PRO198     -0.2731
     99  CB        25.4150    2.3250   15.3050 C.3   198  PRO198      0.0310
    100  CG        25.5690    0.8010   15.5510 C.3   198  PRO198      0.0237
    101  CD        24.0960    0.2630   15.4600 C.3   198  PRO198      0.0939
    102  N         23.4230    4.9830   16.2720 N.am  199  PRO199     -0.2727
    103  CA        24.3710    5.3140   17.3420 C.3   199  PRO199      0.1402
    104  C         23.9560    4.8940   18.7570 C.2   199  PRO199      0.2269
    105  O         24.5470    5.3650   19.7570 O.2   199  PRO199     -0.2865
    106  CB        24.4220    6.8710   17.2400 C.3   199  PRO199      0.0296
    107  CG        23.0550    7.2560   16.7050 C.3   199  PRO199      0.0237
    108  CD        22.6830    6.1420   15.7110 C.3   199  PRO199      0.0939
    109  N         14.9890    6.3720   24.2630 N.3   204  VAL204     -0.1245
    110  CA        13.7450    5.6440   23.9240 C.3   204  VAL204      0.1561
    111  C         12.9550    5.1970   25.1210 C.2   204  VAL204      0.2260
    112  O         13.4880    4.6070   26.0870 O.2   204  VAL204     -0.2867
    113  CB        14.0540    4.3690   23.0690 C.3   204  VAL204      0.0252
    114  CG1       12.7110    3.6830   22.6710 C.3   204  VAL204      0.0019
    115  CG2       14.7990    4.7460   21.8030 C.3   204  VAL204      0.0019
    116  N         10.5430    2.4640   25.6530 N.3   206  TRP206     -0.1241
    117  CA        10.1260    1.2480   24.9280 C.3   206  TRP206      0.1605
    118  C          8.7340    0.8250   25.4300 C.2   206  TRP206      0.2264
    119  O          8.4890    0.8140   26.6430 O.2   206  TRP206     -0.2867
    120  CB        11.1290    0.0700   25.2100 C.3   206  TRP206      0.0550
    121  CG        12.2140    0.1830   24.2100 C.ar  206  TRP206      0.0003
    122  CD1       13.4960    0.7610   24.3780 C.ar  206  TRP206      0.0946
    123  CD2       12.1790   -0.2250   22.8220 C.ar  206  TRP206      0.0152
    124  NE1       14.1900    0.7430   23.1840 N.ar  206  TRP206     -0.2442
    125  CE2       13.4090    0.1130   22.2210 C.ar  206  TRP206      0.0810
    126  CE3       11.1950   -0.8990   22.0380 C.ar  206  TRP206      0.0012
    127  CZ2       13.7000   -0.1640   20.8670 C.ar  206  TRP206      0.0191
    128  CZ3       11.4950   -1.2050   20.6960 C.ar  206  TRP206      0.0001
    129  CH2       12.7250   -0.8340   20.0980 C.ar  206  TRP206      0.0015
@<TRIPOS>BOND
     1     5     2    1
     2     5     6    1
     3    14    11    1
     4    14    15    1
     5     2     3    1
     6     2     1    1
     7    11    10    1
     8    11    12    1
     9     6     7    1
    10     8     7    2
    11     3     4    2
    12    12    13    2
    13     7     9   am
    14    15    16   ar
    15    15    17   ar
    16    16    18   ar
    17    17    19   ar
    18    20    21    1
    19    22    21    1
    20    22    23    2
    21    21    24    1
    22    18    19   ar
    23    33    32    2
    24    51    52    1
    25    51    48    1
    26    54    52   ar
    27    54    56   ar
    28    26    25   ar
    29    26    28   ar
    30    24    25    1
    31    52    53   ar
    32    56    57   ar
    33    94    92    1
    34    25    27   ar
    35    28    29   ar
    36    98    97    2
    37    47    48    1
    38    93    92    1
    39    92    89    1
    40    43    42    2
    41    29    27   ar
    42    53    55   ar
    43    46    44    1
    44    57    55   ar
    45    30    31    1
    46    32    31    1
    47    44    45    1
    48    44    41    1
    49    48    49    1
    50    40    41    1
    51    99   100    1
    52    99    96    1
    53   101   100    1
    54   101    95    1
    55    49    50    2
    56    97    96    1
    57    97   102   am
    58    31    34    1
    59    34    35    1
    60   108   102    1
    61   108   107    1
    62    41    42    1
    63    95    96    1
    64    95    90   am
    65    89    90    1
    66    89    88    1
    67   102   103    1
    68    90    91    2
    69    35    36   ar
    70    35    37   ar
    71    36    38   ar
    72   107   106    1
    73    88    83   am
    74   106   103    1
    75   103   104    1
    76    38    39   ar
    77    37    39   ar
    78    86    85    1
    79    84    83    2
    80    79    78    1
    81    83    82    1
    82    64    63    1
    83    71    70    1
    84    80    78    1
    85   104   105    2
    86    65    63    1
    87    85    82    1
    88    85    87    1
    89    77    78    1
    90    77    74    1
    91    82    81    1
    92    81    75   am
    93    72    70    1
    94    63    62    2
    95    70    67    1
    96    74    75    1
    97    74    73    1
    98    75    76    2
    99    67    68    1
   100    67    66    1
   101   129   128   ar
   102   129   127   ar
   103    62    59    1
   104    68    69    2
   105   128   126   ar
   106   127   125   ar
   107    59    60    1
   108    59    58    1
   109   115   113    1
   110    60    61    2
   111   126   123   ar
   112   125   123   ar
   113   125   124   ar
   114   114   113    1
   115   123   121   ar
   116   113   110    1
   117   124   122   ar
   118   110   109    1
   119   110   111    1
   120   121   122   ar
   121   121   120    1
   122   117   120    1
   123   117   118    1
   124   117   116    1
   125   111   112    2
   126   118   119    2
