@<TRIPOS>MOLECULE
tmp/3s75A01.pdb
 104 109 0 0 0
SMALL
GASTEIGER

@<TRIPOS>ATOM
      1  N         32.6320    4.5330    7.5910 N.3     1  HIS1       -0.1226
      2  CA        32.6520    3.5500    8.6620 C.3     1  HIS1        0.1752
      3  C         31.4740    2.6350    8.5920 C.2     1  HIS1        0.2596
      4  O         30.3900    3.1640    8.2480 O.2     1  HIS1       -0.2718
      5  CB        32.6730    4.3640    9.9870 C.3     1  HIS1        0.0759
      6  CG        31.4280    5.1480   10.2420 C.ar    1  HIS1        0.0818
      7  ND1       30.1930    4.5420   10.4110 N.ar    1  HIS1       -0.2268
      8  CD2       31.2410    6.4690   10.3640 C.ar    1  HIS1        0.1154
      9  CE1       29.2860    5.4720   10.6590 C.ar    1  HIS1        0.1986
     10  NE2       29.8800    6.6500   10.6340 N.ar    1  HIS1       -0.2212
     11  N         31.6460    1.3270    8.8950 N.am    2  HIS2       -0.1961
     12  CA        30.7640    0.2530    8.5130 C.3     2  HIS2        0.1787
     13  C         30.2850   -0.7410    9.5790 C.2     2  HIS2        0.2620
     14  O         30.7100   -1.8710    9.5300 O.2     2  HIS2       -0.2715
     15  CB        31.2040   -0.5340    7.2690 C.3     2  HIS2        0.0785
     16  CG        30.1810   -1.5360    6.7670 C.ar    2  HIS2        0.0821
     17  ND1       29.3490   -1.3770    5.7460 N.ar    2  HIS2       -0.2267
     18  CD2       30.0400   -2.8230    7.2140 C.ar    2  HIS2        0.1154
     19  CE1       28.7220   -2.5080    5.5330 C.ar    2  HIS2        0.1986
     20  NE2       29.1490   -3.3610    6.4190 N.ar    2  HIS2       -0.2212
     21  N         29.3680   -0.3990   10.4550 N.am    3  TRP3       -0.1974
     22  CA        28.8030   -1.4460   11.3840 C.3     3  TRP3        0.1640
     23  C         27.7520   -2.2410   10.6160 C.2     3  TRP3        0.2290
     24  O         27.1450   -1.7300    9.6170 O.2     3  TRP3       -0.2864
     25  CB        28.1420   -0.7800   12.5930 C.3     3  TRP3        0.0576
     26  CG        26.9750    0.1240   12.2530 C.ar    3  TRP3        0.0006
     27  CD1       27.0020    1.5060   11.9870 C.ar    3  TRP3        0.0946
     28  CD2       25.6110   -0.2760   12.1490 C.ar    3  TRP3        0.0152
     29  NE1       25.7100    1.9690   11.6920 N.ar    3  TRP3       -0.2442
     30  CE2       24.8430    0.9080   11.8340 C.ar    3  TRP3        0.0810
     31  CE3       24.9400   -1.4950   12.3690 C.ar    3  TRP3        0.0012
     32  CZ2       23.4350    0.8680   11.6350 C.ar    3  TRP3        0.0191
     33  CZ3       23.5070   -1.5010   12.1610 C.ar    3  TRP3        0.0001
     34  CH2       22.8000   -0.3290   11.8100 C.ar    3  TRP3        0.0015
     35  N         32.3200   -9.6970   11.3960 N.3     8  HIS8       -0.1226
     36  CA        33.3780   -8.8080   11.5990 C.3     8  HIS8        0.1752
     37  C         32.9350   -7.4230   12.0040 C.2     8  HIS8        0.2596
     38  O         33.7280   -6.6000   12.3450 O.2     8  HIS8       -0.2718
     39  CB        34.2770   -8.8550   10.3480 C.3     8  HIS8        0.0759
     40  CG        34.8350  -10.2350   10.1080 C.ar    8  HIS8        0.0818
     41  ND1       35.8130  -10.7930   10.9110 N.ar    8  HIS8       -0.2268
     42  CD2       34.4780  -11.2080    9.2230 C.ar    8  HIS8        0.1154
     43  CE1       36.0780  -12.0230   10.5030 C.ar    8  HIS8        0.1986
     44  NE2       35.2800  -12.3030    9.4750 N.ar    8  HIS8       -0.2212
     45  N         31.6210   -7.1370   11.9510 N.am    9  ASN9       -0.1974
     46  CA        31.2130   -5.7450   12.2130 C.3     9  ASN9        0.1688
     47  C         29.8510   -5.7570   12.9600 C.2     9  ASN9        0.2292
     48  O         29.1670   -4.6870   13.0110 O.2     9  ASN9       -0.2864
     49  CB        31.0110   -4.9310   10.8950 C.3     9  ASN9        0.1181
     50  CG        29.9580   -5.4960    9.9950 C.2     9  ASN9        0.2629
     51  OD1       29.4500   -6.5400   10.2360 O.2     9  ASN9       -0.2716
     52  ND2       29.6300   -4.8000    8.8840 N.am    9  ASN9       -0.0877
     53  N         31.0020   -5.7570   18.0710 N.3    13  HIS13      -0.1226
     54  CA        32.0130   -4.7940   17.6560 C.3    13  HIS13       0.1752
     55  C         31.6370   -3.3320   17.7980 C.2    13  HIS13       0.2596
     56  O         32.4740   -2.3820   17.6730 O.2    13  HIS13      -0.2718
     57  CB        32.3940   -4.9630   16.2020 C.3    13  HIS13       0.0759
     58  CG        33.1100   -6.2750   15.9340 C.ar   13  HIS13       0.0818
     59  ND1       34.4990   -6.3670   15.9760 N.ar   13  HIS13      -0.2268
     60  CD2       32.6390   -7.5050   15.5750 C.ar   13  HIS13       0.1154
     61  CE1       34.8370   -7.5990   15.6180 C.ar   13  HIS13       0.1986
     62  NE2       33.7480   -8.3160   15.4370 N.ar   13  HIS13      -0.2212
     63  N         30.3000   -3.0980   17.8950 N.am   14  TRP14      -0.1976
     64  CA        29.8080   -1.7250   17.8340 C.3    14  TRP14       0.1640
     65  C         30.3820   -0.7790   18.8840 C.2    14  TRP14       0.2290
     66  O         30.5530    0.4080   18.6010 O.2    14  TRP14      -0.2864
     67  CB        28.2500   -1.6840   18.0190 C.3    14  TRP14       0.0576
     68  CG        27.5300   -2.4160   16.8640 C.ar   14  TRP14       0.0006
     69  CD1       28.0750   -2.8920   15.6610 C.ar   14  TRP14       0.0946
     70  CD2       26.1450   -2.7240   16.8150 C.ar   14  TRP14       0.0152
     71  NE1       27.0850   -3.4830   14.8820 N.ar   14  TRP14      -0.2442
     72  CE2       25.8930   -3.3740   15.5880 C.ar   14  TRP14       0.0810
     73  CE3       25.0830   -2.5150   17.6970 C.ar   14  TRP14       0.0012
     74  CZ2       24.5940   -3.8350   15.2110 C.ar   14  TRP14       0.0191
     75  CZ3       23.8330   -2.9730   17.3590 C.ar   14  TRP14       0.0001
     76  CH2       23.5720   -3.5850   16.1250 C.ar   14  TRP14       0.0015
     77  N         33.2140   -0.2080   19.7640 N.3    16  LYS16      -0.1231
     78  CA        34.4700    0.4440   19.3730 C.3    16  LYS16       0.1696
     79  C         34.2460    1.7750   18.6870 C.2    16  LYS16       0.2592
     80  O         35.0110    2.7440   18.9090 O.2    16  LYS16      -0.2718
     81  CB        35.3600   -0.4500   18.5410 C.3    16  LYS16       0.0331
     82  CG        35.8820   -1.6140   19.3240 C.3    16  LYS16       0.0295
     83  CD        36.6290   -2.5400   18.4280 C.2    16  LYS16      -0.0067
     84  CE        35.7750   -3.4540   17.5760 C.2    16  LYS16       0.1012
     85  NZ        36.4720   -4.3470   16.5720 N.pl3  16  LYS16      -0.1270
     86  N         33.1540    1.9050   17.9210 N.am   17  ASP17      -0.1960
     87  CA        32.7650    3.1950   17.3670 C.3    17  ASP17       0.1840
     88  C         31.6850    3.9530   18.1070 C.2    17  ASP17       0.2622
     89  O         31.5320    5.1390   17.8460 O.2    17  ASP17      -0.2715
     90  CB        32.4870    3.0900   15.8640 C.3    17  ASP17       0.1450
     91  CG        33.8120    2.8010   15.0850 C.2    17  ASP17       0.3671
     92  OD1       34.4910    3.7950   14.7950 O.co2  17  ASP17      -0.2456
     93  OD2       34.1840    1.5840   14.9690 O.co2  17  ASP17      -0.2456
     94  N         30.9740    3.2340   19.0000 N.am   18  PHE18      -0.1974
     95  CA        29.7750    3.7700   19.6550 C.3    18  PHE18       0.1639
     96  C         29.8740    3.3310   21.0780 C.2    18  PHE18       0.2290
     97  O         29.2430    2.3370   21.4760 O.2    18  PHE18      -0.2864
     98  CB        28.4580    3.2790   18.9810 C.3    18  PHE18       0.0560
     99  CG        28.4070    3.6170   17.5610 C.ar   18  PHE18      -0.0200
    100  CD1       27.9930    4.8830   17.1440 C.ar   18  PHE18      -0.0042
    101  CD2       28.8270    2.6730   16.5750 C.ar   18  PHE18      -0.0042
    102  CE1       28.0540    5.1780   15.6920 C.ar   18  PHE18      -0.0003
    103  CE2       28.8620    2.9740   15.2060 C.ar   18  PHE18      -0.0003
    104  CZ        28.4860    4.2310   14.8040 C.ar   18  PHE18      -0.0000
@<TRIPOS>BOND
     1    19    17   ar
     2    19    20   ar
     3    17    16   ar
     4    20    18   ar
     5    16    18   ar
     6    16    15    1
     7    15    12    1
     8     1     2    1
     9     4     3    2
    10    12    11    1
    11    12    13    1
    12     3     2    1
    13     3    11   am
    14     2     5    1
    15    52    50   am
    16    42    44   ar
    17    42    40   ar
    18    44    43   ar
    19    14    13    2
    20    13    21   am
    21    24    23    2
    22     5     6    1
    23    50    51    2
    24    50    49    1
    25    40    39    1
    26    40    41   ar
    27     6     8   ar
    28     6     7   ar
    29    39    36    1
    30     8    10   ar
    31     7     9   ar
    32    21    22    1
    33    43    41   ar
    34    23    22    1
    35    10     9   ar
    36    49    46    1
    37    22    25    1
    38    35    36    1
    39    36    37    1
    40    32    34   ar
    41    32    30   ar
    42    29    30   ar
    43    29    27   ar
    44    34    33   ar
    45    30    28   ar
    46    45    37   am
    47    45    46    1
    48    27    26   ar
    49    37    38    2
    50    28    26   ar
    51    28    31   ar
    52    33    31   ar
    53    46    47    1
    54    26    25    1
    55    47    48    2
    56    92    91   ar
    57   104   103   ar
    58   104   102   ar
    59    71    72   ar
    60    71    69   ar
    61    93    91   ar
    62    91    90    1
    63   103   101   ar
    64    74    72   ar
    65    74    76   ar
    66    62    60   ar
    67    62    61   ar
    68    60    58   ar
    69    72    70   ar
    70    61    59   ar
    71    69    68   ar
    72   102   100   ar
    73    90    87    1
    74    58    59   ar
    75    58    57    1
    76    76    75   ar
    77    57    54    1
    78    85    84    1
    79   101    99   ar
    80    70    68   ar
    81    70    73   ar
    82    68    67    1
    83   100    99   ar
    84    75    73   ar
    85    87    86    1
    86    87    88    1
    87    99    98    1
    88    84    83    2
    89    54    55    1
    90    54    53    1
    91    56    55    2
    92    55    63   am
    93    64    63    1
    94    64    67    1
    95    64    65    1
    96    89    88    2
    97    86    79   am
    98    88    94   am
    99    83    82    1
   100    81    82    1
   101    81    78    1
   102    66    65    2
   103    79    80    2
   104    79    78    1
   105    98    95    1
   106    94    95    1
   107    78    77    1
   108    95    96    1
   109    96    97    2
