@<TRIPOS>MOLECULE
tmp/3s76A00.pdb
 100 97 0 0 0
SMALL
GASTEIGER

@<TRIPOS>ATOM
      1  N          8.5410    6.2460   11.2100 N.3    89  GLN89      -0.1245
      2  CA         8.8330    5.0690   10.3250 C.3    89  GLN89       0.1566
      3  C          8.5740    3.8310   11.1230 C.2    89  GLN89       0.2260
      4  O          8.5100    3.9060   12.3440 O.2    89  GLN89      -0.2867
      5  CB        10.2770    5.0180    9.7140 C.3    89  GLN89       0.0367
      6  CG        11.3590    5.1970   10.7920 C.3    89  GLN89       0.0905
      7  CD        12.0480    3.9130   11.2220 C.2    89  GLN89       0.2608
      8  OE1       11.4550    2.8480   11.1760 O.2    89  GLN89      -0.2717
      9  NE2       13.2970    4.0620   11.6650 N.am   89  GLN89      -0.0878
     10  N          9.8750   -0.4390   10.9530 N.3    91  HIS91      -0.1241
     11  CA        10.7890   -1.4260   10.3540 C.3    91  HIS91       0.1621
     12  C         10.6980   -2.6890   11.2160 C.2    91  HIS91       0.2264
     13  O         10.0500   -2.7130   12.2660 O.2    91  HIS91      -0.2867
     14  CB        12.2390   -0.9350   10.3080 C.3    91  HIS91       0.0745
     15  CG        12.7310   -0.6520   11.6950 C.ar   91  HIS91       0.0817
     16  ND1       12.5390    0.5640   12.3080 N.ar   91  HIS91      -0.2268
     17  CD2       13.3700   -1.4580   12.6070 C.ar   91  HIS91       0.1154
     18  CE1       13.0240    0.5190   13.5450 C.ar   91  HIS91       0.1986
     19  NE2       13.5360   -0.6990   13.7480 N.ar   91  HIS91      -0.2212
     20  N         13.0010   -6.4310   12.5780 N.3    93  HIS93      -0.1241
     21  CA        14.2100   -7.1950   12.7620 C.3    93  HIS93       0.1621
     22  C         13.8170   -8.6610   12.6600 C.2    93  HIS93       0.2264
     23  O         12.7470   -8.9990   13.1660 O.2    93  HIS93      -0.2867
     24  CB        14.8250   -6.9540   14.1310 C.3    93  HIS93       0.0745
     25  CG        15.0990   -5.5000   14.4230 C.ar   93  HIS93       0.0817
     26  ND1       16.3550   -4.9490   14.1860 N.ar   93  HIS93      -0.2268
     27  CD2       14.2940   -4.4780   14.7800 C.ar   93  HIS93       0.1154
     28  CE1       16.3320   -3.6430   14.5220 C.ar   93  HIS93       0.1986
     29  NE2       15.0850   -3.3280   14.8040 N.ar   93  HIS93      -0.2212
     30  N          9.0180   -2.5470   14.9220 N.3   116  HIS116     -0.1241
     31  CA         9.2460   -1.3180   15.6910 C.3   116  HIS116      0.1621
     32  C          8.6330   -0.1750   14.9370 C.2   116  HIS116      0.2264
     33  O          9.0090    0.1640   13.8050 O.2   116  HIS116     -0.2867
     34  CB        10.7570   -1.0340   15.7650 C.3   116  HIS116      0.0745
     35  CG        11.4750   -2.0170   16.6540 C.ar  116  HIS116      0.0817
     36  ND1       12.8520   -2.2570   16.6480 N.ar  116  HIS116     -0.2268
     37  CD2       10.9350   -2.8350   17.5910 C.ar  116  HIS116      0.1154
     38  CE1       13.1120   -3.1820   17.5720 C.ar  116  HIS116      0.1986
     39  NE2       11.9800   -3.5210   18.1840 N.ar  116  HIS116     -0.2212
     40  N          8.3640    3.6410   15.2200 N.3   118  VAL118     -0.1245
     41  CA         9.2410    4.6400   15.8870 C.3   118  VAL118      0.1561
     42  C          8.5560    5.9990   15.8910 C.2   118  VAL118      0.2260
     43  O          8.1080    6.4830   14.7990 O.2   118  VAL118     -0.2867
     44  CB        10.5740    4.7500   15.1280 C.3   118  VAL118      0.0252
     45  CG1       11.5330    5.8130   15.8070 C.3   118  VAL118      0.0019
     46  CG2       11.2870    3.3410   15.0240 C.3   118  VAL118      0.0019
     47  N         13.0820   15.1080   14.7650 N.3   127  PHE127     -0.1241
     48  CA        13.6590   13.8200   15.2010 C.3   127  PHE127      0.1605
     49  C         15.0850   13.9280   15.6490 C.2   127  PHE127      0.2264
     50  O         15.4820   13.3310   16.6580 O.2   127  PHE127     -0.2867
     51  CB        13.4560   12.8110   14.0440 C.3   127  PHE127      0.0534
     52  CG        14.0540   11.4670   14.2860 C.ar  127  PHE127     -0.0203
     53  CD1       13.2760   10.4870   14.9220 C.ar  127  PHE127     -0.0042
     54  CD2       15.3980   11.1760   13.9430 C.ar  127  PHE127     -0.0042
     55  CE1       13.8170    9.2250   15.1900 C.ar  127  PHE127     -0.0003
     56  CE2       15.8760    9.9400   14.2380 C.ar  127  PHE127     -0.0003
     57  CZ        15.1140    8.9670   14.8530 C.ar  127  PHE127     -0.0000
     58  N          9.1220    3.9070   21.1290 N.3   139  VAL139     -0.1245
     59  CA         9.1100    2.8210   20.1430 C.3   139  VAL139      0.1561
     60  C          8.1220    1.7430   20.5990 C.2   139  VAL139      0.2260
     61  O          8.2200    1.2740   21.7190 O.2   139  VAL139     -0.2867
     62  CB        10.5120    2.2190   19.8230 C.3   139  VAL139      0.0252
     63  CG1       10.3530    1.2110   18.6100 C.3   139  VAL139      0.0019
     64  CG2       11.4790    3.3290   19.3100 C.3   139  VAL139      0.0019
     65  N         18.0110    3.2780   21.3060 N.3   194  LEU194     -0.1231
     66  CA        17.9290    2.7400   19.9400 C.3   194  LEU194      0.1693
     67  C         18.7290    1.4280   19.9730 C.2   194  LEU194      0.2593
     68  O         19.7840    1.2930   20.6790 O.2   194  LEU194     -0.2718
     69  CB        18.6630    3.6920   18.9910 C.3   194  LEU194      0.0284
     70  CG        17.9280    5.0290   18.8790 C.3   194  LEU194      0.0019
     71  CD1       18.7910    5.9890   18.0030 C.3   194  LEU194      0.0001
     72  CD2       16.5500    4.8170   18.1400 C.3   194  LEU194      0.0001
     73  N         18.2750    0.4610   19.1870 N.am  195  THR195     -0.1939
     74  CA        18.9940   -0.8560   19.1610 C.3   195  THR195      0.2028
     75  C         19.9820   -0.9540   18.0350 C.2   195  THR195      0.2642
     76  O         20.6280   -1.9950   17.8830 O.2   195  THR195     -0.2714
     77  CB        18.0320   -2.0470   19.0090 C.3   195  THR195      0.1808
     78  OG1       17.4080   -2.0030   17.7290 O.3   195  THR195     -0.2208
     79  CG2       16.9380   -2.0330   20.1690 C.3   195  THR195      0.0379
     80  N         20.1040    0.1330   17.2640 N.am  196  THR196     -0.1950
     81  CA        21.1090    0.2470   16.1920 C.3   196  THR196      0.1897
     82  C         21.9980    1.4550   16.4770 C.2   196  THR196      0.2313
     83  O         21.5340    2.4420   17.0600 O.2   196  THR196     -0.2863
     84  CB        20.4130    0.4800   14.8410 C.3   196  THR196      0.1794
     85  OG1       19.4430    1.5600   14.9530 O.3   196  THR196     -0.2208
     86  CG2       19.6680   -0.7980   14.4610 C.3   196  THR196      0.0378
     87  N         10.5260    2.4830   25.7220 N.3   205  TRP205     -0.1241
     88  CA        10.0710    1.2520   25.0170 C.3   205  TRP205      0.1605
     89  C          8.6930    0.8490   25.5140 C.2   205  TRP205      0.2264
     90  O          8.4490    0.7880   26.7020 O.2   205  TRP205     -0.2867
     91  CB        11.0960    0.0750   25.2630 C.3   205  TRP205      0.0550
     92  CG        12.1900    0.2250   24.2400 C.ar  205  TRP205      0.0003
     93  CD1       13.4600    0.7850   24.4110 C.ar  205  TRP205      0.0946
     94  CD2       12.1420   -0.2320   22.8670 C.ar  205  TRP205      0.0152
     95  NE1       14.1520    0.7530   23.2180 N.ar  205  TRP205     -0.2442
     96  CE2       13.3840    0.1290   22.2640 C.ar  205  TRP205      0.0810
     97  CE3       11.1500   -0.8910   22.0840 C.ar  205  TRP205      0.0012
     98  CZ2       13.6990   -0.1320   20.9110 C.ar  205  TRP205      0.0191
     99  CZ3       11.4550   -1.1900   20.7700 C.ar  205  TRP205      0.0001
    100  CH2       12.7030   -0.8070   20.1640 C.ar  205  TRP205      0.0015
@<TRIPOS>BOND
     1     5     2    1
     2     5     6    1
     3    14    11    1
     4    14    15    1
     5     2     3    1
     6     2     1    1
     7    11    10    1
     8    11    12    1
     9     6     7    1
    10     3     4    2
    11     8     7    2
    12    12    13    2
    13     7     9   am
    14    15    16   ar
    15    15    17   ar
    16    16    18   ar
    17    20    21    1
    18    17    19   ar
    19    22    21    1
    20    22    23    2
    21    21    24    1
    22    18    19   ar
    23    33    32    2
    24    54    56   ar
    25    54    52   ar
    26    51    52    1
    27    51    48    1
    28    24    25    1
    29    26    25   ar
    30    26    28   ar
    31    56    57   ar
    32    52    53   ar
    33    25    27   ar
    34    86    84    1
    35    28    29   ar
    36    47    48    1
    37    27    29   ar
    38    43    42    2
    39    84    85    1
    40    84    81    1
    41    57    55   ar
    42    30    31    1
    43    53    55   ar
    44    32    31    1
    45    46    44    1
    46    44    45    1
    47    44    41    1
    48    48    49    1
    49    40    41    1
    50    49    50    2
    51    31    34    1
    52    34    35    1
    53    41    42    1
    54    81    82    1
    55    81    80    1
    56    82    83    2
    57    36    35   ar
    58    36    38   ar
    59    35    37   ar
    60    80    75   am
    61    38    39   ar
    62    37    39   ar
    63    78    77    1
    64    76    75    2
    65    71    70    1
    66    75    74    1
    67    72    70    1
    68    63    62    1
    69    70    69    1
    70    69    66    1
    71    77    74    1
    72    77    79    1
    73    74    73    1
    74    73    67   am
    75    64    62    1
    76    62    59    1
    77    66    67    1
    78    66    65    1
    79    67    68    2
    80    59    60    1
    81    59    58    1
    82   100    99   ar
    83   100    98   ar
    84    60    61    2
    85    99    97   ar
    86    98    96   ar
    87    97    94   ar
    88    96    94   ar
    89    96    95   ar
    90    94    92   ar
    91    95    93   ar
    92    92    93   ar
    93    92    91    1
    94    88    91    1
    95    88    89    1
    96    88    87    1
    97    89    90    2
