@<TRIPOS>MOLECULE
tmp/3s77A00.pdb
 132 130 0 0 0
SMALL
GASTEIGER

@<TRIPOS>ATOM
      1  N         20.3800   -2.0210    6.3330 N.3    62  HIS62      -0.1241
      2  CA        20.3090   -2.7750    7.6320 C.3    62  HIS62       0.1621
      3  C         18.9330   -3.3480    7.8610 C.2    62  HIS62       0.2264
      4  O         18.8090   -4.3800    8.5070 O.2    62  HIS62      -0.2867
      5  CB        20.8220   -2.0830    8.9310 C.3    62  HIS62       0.0745
      6  CG        20.5170   -0.6240    9.0700 C.ar   62  HIS62       0.0817
      7  ND1       19.4500   -0.1400    9.7960 N.ar   62  HIS62      -0.2268
      8  CD2       21.2130    0.4670    8.6640 C.ar   62  HIS62       0.1154
      9  CE1       19.4820    1.1820    9.8080 C.ar   62  HIS62       0.1986
     10  NE2       20.5320    1.5740    9.1090 N.ar   62  HIS62      -0.2212
     11  N          8.6250    6.3080   11.1310 N.3    90  GLN90      -0.1245
     12  CA         8.9600    5.1000   10.3170 C.3    90  GLN90       0.1566
     13  C          8.6750    3.8710   11.0740 C.2    90  GLN90       0.2260
     14  O          8.6340    3.9030   12.3020 O.2    90  GLN90      -0.2867
     15  CB        10.4400    5.0740    9.8270 C.3    90  GLN90       0.0367
     16  CG        11.5660    5.2180   10.9200 C.3    90  GLN90       0.0905
     17  CD        12.2190    3.8950   11.2930 C.2    90  GLN90       0.2608
     18  OE1       11.6250    2.8030   11.0930 O.2    90  GLN90      -0.2717
     19  NE2       13.4430    3.9700   11.8430 N.am   90  GLN90      -0.0878
     20  N         10.1010   -0.4040   10.8920 N.3    92  HIS92      -0.1241
     21  CA        10.9110   -1.4080   10.2450 C.3    92  HIS92       0.1621
     22  C         10.8230   -2.7140   11.0510 C.2    92  HIS92       0.2264
     23  O         10.1490   -2.7550   12.0840 O.2    92  HIS92      -0.2867
     24  CB        12.3580   -0.9100   10.1960 C.3    92  HIS92       0.0745
     25  CG        12.9270   -0.6730   11.5710 C.ar   92  HIS92       0.0817
     26  ND1       12.7100    0.4910   12.2740 N.ar   92  HIS92      -0.2268
     27  CD2       13.5480   -1.5140   12.4180 C.ar   92  HIS92       0.1154
     28  CE1       13.2870    0.3990   13.4580 C.ar   92  HIS92       0.1986
     29  NE2       13.7610   -0.8360   13.5910 N.ar   92  HIS92      -0.2212
     30  N         13.1580   -6.4450   12.4490 N.3    94  HIS94      -0.1241
     31  CA        14.3880   -7.1940   12.6610 C.3    94  HIS94       0.1621
     32  C         13.9590   -8.6650   12.5150 C.2    94  HIS94       0.2264
     33  O         12.8990   -9.0220   13.0560 O.2    94  HIS94      -0.2867
     34  CB        15.0170   -6.9220   14.0370 C.3    94  HIS94       0.0745
     35  CG        15.2660   -5.4600   14.3070 C.ar   94  HIS94       0.0817
     36  ND1       16.4610   -4.8360   13.9580 N.ar   94  HIS94      -0.2268
     37  CD2       14.4420   -4.4800   14.7580 C.ar   94  HIS94       0.1154
     38  CE1       16.3920   -3.5580   14.3360 C.ar   94  HIS94       0.1986
     39  NE2       15.1720   -3.3090   14.7760 N.ar   94  HIS94      -0.2212
     40  N          9.1190   -2.5710   14.8040 N.3   117  HIS117     -0.1241
     41  CA         9.3670   -1.3500   15.5620 C.3   117  HIS117      0.1621
     42  C          8.6830   -0.1910   14.8780 C.2   117  HIS117      0.2264
     43  O          9.0420    0.1650   13.7440 O.2   117  HIS117     -0.2867
     44  CB        10.9140   -1.1110   15.6420 C.3   117  HIS117      0.0745
     45  CG        11.5710   -2.0370   16.5920 C.ar  117  HIS117      0.0817
     46  ND1       12.9100   -2.3740   16.5470 N.ar  117  HIS117     -0.2268
     47  CD2       11.0210   -2.7850   17.5960 C.ar  117  HIS117      0.1154
     48  CE1       13.1840   -3.2120   17.5350 C.ar  117  HIS117      0.1986
     49  NE2       12.0520   -3.5110   18.1670 N.ar  117  HIS117     -0.2212
     50  N          8.3830    3.6700   15.1470 N.3   119  VAL119     -0.1245
     51  CA         9.2870    4.5900   15.8280 C.3   119  VAL119      0.1561
     52  C          8.5970    5.9550   15.8260 C.2   119  VAL119      0.2260
     53  O          8.1960    6.4410   14.7270 O.2   119  VAL119     -0.2867
     54  CB        10.5760    4.7370   15.0250 C.3   119  VAL119      0.0252
     55  CG1       11.5360    5.7900   15.6880 C.3   119  VAL119      0.0019
     56  CG2       11.2650    3.3880   14.7300 C.3   119  VAL119      0.0019
     57  N         13.0250   14.8020   14.5990 N.3   128  PHE128     -0.1241
     58  CA        13.5470   13.5010   15.0140 C.3   128  PHE128      0.1605
     59  C         15.0140   13.6410   15.4410 C.2   128  PHE128      0.2264
     60  O         15.4450   13.0840   16.4780 O.2   128  PHE128     -0.2867
     61  CB        13.3850   12.4710   13.8790 C.3   128  PHE128      0.0534
     62  CG        14.0520   11.1760   14.1570 C.ar  128  PHE128     -0.0203
     63  CD1       13.3800   10.1540   14.8150 C.ar  128  PHE128     -0.0042
     64  CD2       15.3650   10.9580   13.7400 C.ar  128  PHE128     -0.0042
     65  CE1       14.0180    8.9290   15.0710 C.ar  128  PHE128     -0.0003
     66  CE2       16.0160    9.7430   13.9770 C.ar  128  PHE128     -0.0003
     67  CZ        15.3510    8.7340   14.6520 C.ar  128  PHE128     -0.0000
     68  N         12.2190    9.5110   22.1860 N.3   138  LEU138     -0.1245
     69  CA        11.5760    8.6190   21.2550 C.3   138  LEU138      0.1561
     70  C         10.6490    7.6940   22.0500 C.2   138  LEU138      0.2260
     71  O         10.8640    7.4130   23.2170 O.2   138  LEU138     -0.2867
     72  CB        12.5620    7.6940   20.5370 C.3   138  LEU138      0.0270
     73  CG        13.4670    8.3690   19.4630 C.3   138  LEU138      0.0019
     74  CD1       14.0940    7.2220   18.5880 C.3   138  LEU138      0.0001
     75  CD2       12.8340    9.4540   18.5750 C.3   138  LEU138      0.0001
     76  N          9.2600    3.8730   21.0360 N.3   140  VAL140     -0.1245
     77  CA         9.2330    2.8340   20.0390 C.3   140  VAL140      0.1561
     78  C          8.2260    1.7800   20.4780 C.2   140  VAL140      0.2260
     79  O          8.3720    1.2640   21.6050 O.2   140  VAL140     -0.2867
     80  CB        10.5930    2.1530   19.7240 C.3   140  VAL140      0.0252
     81  CG1       10.4220    1.1830   18.5140 C.3   140  VAL140      0.0019
     82  CG2       11.6130    3.2690   19.3210 C.3   140  VAL140      0.0019
     83  N         18.1140    3.2550   21.1120 N.3   195  LEU195     -0.1231
     84  CA        18.1150    2.7680   19.7320 C.3   195  LEU195      0.1693
     85  C         18.8400    1.4610   19.7660 C.2   195  LEU195      0.2593
     86  O         19.8360    1.3230   20.5440 O.2   195  LEU195     -0.2718
     87  CB        18.9190    3.7770   18.8630 C.3   195  LEU195      0.0284
     88  CG        18.4610    5.2150   18.8690 C.3   195  LEU195      0.0019
     89  CD1       19.3090    6.0900   17.9720 C.3   195  LEU195      0.0001
     90  CD2       16.9260    5.3470   18.5230 C.3   195  LEU195      0.0001
     91  N         18.4000    0.4930   18.9610 N.am  196  THR196     -0.1939
     92  CA        19.0770   -0.7880   18.9750 C.3   196  THR196      0.2028
     93  C         20.0320   -0.9030   17.7830 C.2   196  THR196      0.2643
     94  O         20.6260   -1.9560   17.6540 O.2   196  THR196     -0.2714
     95  CB        18.1250   -2.0070   18.9210 C.3   196  THR196      0.1808
     96  OG1       17.4770   -2.0180   17.6240 O.3   196  THR196     -0.2208
     97  CG2       17.1070   -1.9390   20.1700 C.3   196  THR196      0.0379
     98  N         20.1370    0.1240   16.9500 N.am  197  THR197     -0.1937
     99  CA        21.2520    0.2260   15.9540 C.3   197  THR197      0.2013
    100  C         22.0840    1.4570   16.3060 C.2   197  THR197      0.2484
    101  O         21.5810    2.4220   16.9390 O.2   197  THR197     -0.2729
    102  CB        20.7120    0.3020   14.4980 C.3   197  THR197      0.1807
    103  OG1       19.7190    1.3680   14.3950 O.3   197  THR197     -0.2208
    104  CG2       20.0230   -1.0250   14.1480 C.3   197  THR197      0.0379
    105  N         23.3560    1.4620   15.8620 N.am  198  PRO198     -0.2715
    106  CA        24.1170    2.6840   16.0840 C.3   198  PRO198      0.1521
    107  C         23.3440    3.8820   15.5340 C.2   198  PRO198      0.2440
    108  O         22.7710    3.8180   14.3860 O.2   198  PRO198     -0.2731
    109  CB        25.4150    2.4280   15.2570 C.3   198  PRO198      0.0310
    110  CG        25.5960    0.9390   15.3630 C.3   198  PRO198      0.0237
    111  CD        24.1570    0.3890   15.2630 C.3   198  PRO198      0.0939
    112  N         23.3940    5.0290   16.2170 N.am  199  PRO199     -0.2727
    113  CA        24.3150    5.3820   17.2590 C.3   199  PRO199      0.1402
    114  C         23.8790    4.9410   18.6540 C.2   199  PRO199      0.2269
    115  O         24.5280    5.3300   19.6180 O.2   199  PRO199     -0.2865
    116  CB        24.3660    6.9340   17.1740 C.3   199  PRO199      0.0296
    117  CG        23.0520    7.3220   16.5880 C.3   199  PRO199      0.0237
    118  CD        22.6560    6.1910   15.6800 C.3   199  PRO199      0.0939
    119  N         10.6820    2.3680   25.6220 N.3   206  TRP206     -0.1241
    120  CA        10.2240    1.1710   24.8980 C.3   206  TRP206      0.1605
    121  C          8.8580    0.7300   25.4060 C.2   206  TRP206      0.2264
    122  O          8.6050    0.7010   26.6140 O.2   206  TRP206     -0.2867
    123  CB        11.2110    0.0010   25.1560 C.3   206  TRP206      0.0550
    124  CG        12.3120    0.1290   24.1440 C.ar  206  TRP206      0.0003
    125  CD1       13.5760    0.6840   24.3440 C.ar  206  TRP206      0.0946
    126  CD2       12.2260   -0.2590   22.7840 C.ar  206  TRP206      0.0152
    127  NE1       14.2740    0.6510   23.1330 N.ar  206  TRP206     -0.2442
    128  CE2       13.4750    0.0240   22.1800 C.ar  206  TRP206      0.0810
    129  CE3       11.2110   -0.8460   22.0010 C.ar  206  TRP206      0.0012
    130  CZ2       13.7230   -0.2370   20.8550 C.ar  206  TRP206      0.0191
    131  CZ3       11.4890   -1.1660   20.6950 C.ar  206  TRP206      0.0001
    132  CH2       12.7430   -0.8040   20.1110 C.ar  206  TRP206      0.0015
@<TRIPOS>BOND
     1     1     2    1
     2     2     3    1
     3     2     5    1
     4     3     4    2
     5     8     6   ar
     6     8    10   ar
     7     5     6    1
     8     6     7   ar
     9    10     9   ar
    10     7     9   ar
    11    15    12    1
    12    15    16    1
    13    24    21    1
    14    24    25    1
    15    21    20    1
    16    21    22    1
    17    12    13    1
    18    12    11    1
    19    16    17    1
    20    22    23    2
    21    13    14    2
    22    18    17    2
    23    17    19   am
    24    25    26   ar
    25    25    27   ar
    26    26    28   ar
    27    27    29   ar
    28    30    31    1
    29    32    31    1
    30    32    33    2
    31    31    34    1
    32    28    29   ar
    33    64    66   ar
    34    64    62   ar
    35    43    42    2
    36    61    62    1
    37    61    58    1
    38    36    35   ar
    39    36    38   ar
    40    66    67   ar
    41    34    35    1
    42   104   102    1
    43    62    63   ar
    44    35    37   ar
    45    38    39   ar
    46   108   107    2
    47   103   102    1
    48   102    99    1
    49    57    58    1
    50    67    65   ar
    51    53    52    2
    52    56    54    1
    53    37    39   ar
    54    40    41    1
    55    63    65   ar
    56    42    41    1
    57    58    59    1
    58    54    55    1
    59    54    51    1
    60    50    51    1
    61   109   110    1
    62   109   106    1
    63   111   110    1
    64   111   105    1
    65    59    60    2
    66   107   106    1
    67   107   112   am
    68    41    44    1
    69    44    45    1
    70   118   112    1
    71   118   117    1
    72    52    51    1
    73   105   106    1
    74   105   100   am
    75    99   100    1
    76    99    98    1
    77   112   113    1
    78   100   101    2
    79    46    45   ar
    80    46    48   ar
    81   117   116    1
    82    45    47   ar
    83    98    93   am
    84   116   113    1
    85   113   114    1
    86    48    49   ar
    87    47    49   ar
    88    96    95    1
    89    94    93    2
    90    93    92    1
    91    89    88    1
    92    81    80    1
    93    90    88    1
    94    75    73    1
    95    74    73    1
    96   114   115    2
    97    87    88    1
    98    87    84    1
    99    95    92    1
   100    95    97    1
   101    91    92    1
   102    91    85   am
   103    82    80    1
   104    73    72    1
   105    80    77    1
   106    84    85    1
   107    84    83    1
   108    85    86    2
   109    77    78    1
   110    77    76    1
   111   132   131   ar
   112   132   130   ar
   113    78    79    2
   114    72    69    1
   115   131   129   ar
   116   130   128   ar
   117    69    70    1
   118    69    68    1
   119   129   126   ar
   120    70    71    2
   121   128   126   ar
   122   128   127   ar
   123   126   124   ar
   124   127   125   ar
   125   124   125   ar
   126   124   123    1
   127   120   123    1
   128   120   121    1
   129   120   119    1
   130   121   122    2
