@<TRIPOS>MOLECULE
tmp/3s77A01.pdb
 104 109 0 0 0
SMALL
GASTEIGER

@<TRIPOS>ATOM
      1  N         33.0010    0.8450    4.5400 N.3     1  HIS1       -0.1226
      2  CA        32.6420   -0.2050    5.5460 C.3     1  HIS1        0.1752
      3  C         32.2160    0.5650    6.7940 C.2     1  HIS1        0.2596
      4  O         32.5820    1.7280    6.9920 O.2     1  HIS1       -0.2718
      5  CB        33.8090   -1.2180    5.8030 C.3     1  HIS1        0.0759
      6  CG        33.4300   -2.4040    6.6710 C.ar    1  HIS1        0.0818
      7  ND1       33.1380   -3.6300    6.2560 N.ar    1  HIS1       -0.2268
      8  CD2       33.4510   -2.4290    8.0400 C.ar    1  HIS1        0.1154
      9  CE1       33.0000   -4.4070    7.3020 C.ar    1  HIS1        0.1986
     10  NE2       33.1920   -3.6730    8.3590 N.ar    1  HIS1       -0.2212
     11  N         31.3950   -0.0620    7.6140 N.am    2  HIS2       -0.1961
     12  CA        30.7500    0.6520    8.6820 C.3     2  HIS2        0.1787
     13  C         30.2240   -0.5270    9.5370 C.2     2  HIS2        0.2620
     14  O         30.7480   -1.6700    9.4550 O.2     2  HIS2       -0.2715
     15  CB        29.6850    1.6410    8.0980 C.3     2  HIS2        0.0785
     16  CG        28.4890    0.9850    7.4790 C.ar    2  HIS2        0.0821
     17  ND1       28.5910    0.2350    6.3210 N.ar    2  HIS2       -0.2267
     18  CD2       27.1760    1.0670    7.8530 C.ar    2  HIS2        0.1154
     19  CE1       27.3510   -0.1130    6.0000 C.ar    2  HIS2        0.1986
     20  NE2       26.4900    0.3710    6.9010 N.ar    2  HIS2       -0.2212
     21  N         29.2630   -0.2720   10.4060 N.am    3  TRP3       -0.1974
     22  CA        28.7730   -1.3120   11.2930 C.3     3  TRP3        0.1640
     23  C         27.7820   -2.1470   10.5160 C.2     3  TRP3        0.2290
     24  O         27.2140   -1.6950    9.4750 O.2     3  TRP3       -0.2864
     25  CB        28.1240   -0.6730   12.5360 C.3     3  TRP3        0.0576
     26  CG        26.9900    0.2370   12.1710 C.ar    3  TRP3        0.0006
     27  CD1       27.0260    1.6040   11.9070 C.ar    3  TRP3        0.0946
     28  CD2       25.6140   -0.1680   12.0450 C.ar    3  TRP3        0.0152
     29  NE1       25.7180    2.0450   11.5870 N.ar    3  TRP3       -0.2442
     30  CE2       24.8550    0.9810   11.7030 C.ar    3  TRP3        0.0810
     31  CE3       24.9700   -1.3950   12.1850 C.ar    3  TRP3        0.0012
     32  CZ2       23.4690    0.9430   11.5460 C.ar    3  TRP3        0.0191
     33  CZ3       23.5660   -1.4300   12.0140 C.ar    3  TRP3        0.0001
     34  CH2       22.8470   -0.2810   11.6820 C.ar    3  TRP3        0.0015
     35  N         32.5320   -9.6170   11.4630 N.3     8  HIS8       -0.1226
     36  CA        33.5740   -8.5910   11.6000 C.3     8  HIS8        0.1752
     37  C         33.0740   -7.1720   11.9040 C.2     8  HIS8        0.2596
     38  O         33.8620   -6.2670   12.2180 O.2     8  HIS8       -0.2718
     39  CB        34.5320   -8.6810   10.4020 C.3     8  HIS8        0.0759
     40  CG        35.1620  -10.0480   10.3050 C.ar    8  HIS8        0.0818
     41  ND1       36.2420  -10.4350   11.0780 N.ar    8  HIS8       -0.2268
     42  CD2       34.7750  -11.1560    9.6220 C.ar    8  HIS8        0.1154
     43  CE1       36.5140  -11.7070   10.8430 C.ar    8  HIS8        0.1986
     44  NE2       35.6330  -12.1720    9.9730 N.ar    8  HIS8       -0.2212
     45  N         31.7560   -6.9820   11.9120 N.am    9  ASN9       -0.1974
     46  CA        31.2710   -5.6440   12.1730 C.3     9  ASN9        0.1688
     47  C         29.9340   -5.6560   12.9420 C.2     9  ASN9        0.2292
     48  O         29.2260   -4.6360   12.9600 O.2     9  ASN9       -0.2864
     49  CB        31.1570   -4.8620   10.8490 C.3     9  ASN9        0.1181
     50  CG        30.0710   -5.4180    9.9120 C.2     9  ASN9        0.2629
     51  OD1       29.4540   -6.4730   10.1710 O.2     9  ASN9       -0.2716
     52  ND2       29.8540   -4.7280    8.7900 N.am    9  ASN9       -0.0877
     53  N         31.0990   -5.6750   17.9600 N.3    13  HIS13      -0.1226
     54  CA        32.1260   -4.7070   17.5640 C.3    13  HIS13       0.1752
     55  C         31.6700   -3.2630   17.7670 C.2    13  HIS13       0.2596
     56  O         32.4710   -2.3350   17.7600 O.2    13  HIS13      -0.2718
     57  CB        32.4530   -4.9090   16.0710 C.3    13  HIS13       0.0759
     58  CG        33.2270   -6.1730   15.7850 C.ar   13  HIS13       0.0818
     59  ND1       34.6100   -6.1880   15.6540 N.ar   13  HIS13      -0.2268
     60  CD2       32.8090   -7.4430   15.5280 C.ar   13  HIS13       0.1154
     61  CE1       35.0070   -7.4200   15.3600 C.ar   13  HIS13       0.1986
     62  NE2       33.9420   -8.2010   15.2850 N.ar   13  HIS13      -0.2212
     63  N         30.3710   -3.0500   17.9110 N.am   14  TRP14      -0.1976
     64  CA        29.8170   -1.7090   17.8030 C.3    14  TRP14       0.1640
     65  C         30.3880   -0.6980   18.7720 C.2    14  TRP14       0.2290
     66  O         30.5070    0.5220   18.4300 O.2    14  TRP14      -0.2864
     67  CB        28.2800   -1.7400   18.0000 C.3    14  TRP14       0.0576
     68  CG        27.5770   -2.4200   16.8660 C.ar   14  TRP14       0.0006
     69  CD1       28.0980   -2.7880   15.6490 C.ar   14  TRP14       0.0946
     70  CD2       26.1640   -2.6690   16.7730 C.ar   14  TRP14       0.0152
     71  NE1       27.1290   -3.3440   14.8480 N.ar   14  TRP14      -0.2442
     72  CE2       25.9160   -3.2370   15.4930 C.ar   14  TRP14       0.0810
     73  CE3       25.0910   -2.4850   17.6510 C.ar   14  TRP14       0.0012
     74  CZ2       24.6590   -3.6640   15.0790 C.ar   14  TRP14       0.0191
     75  CZ3       23.8030   -2.8990   17.2270 C.ar   14  TRP14       0.0001
     76  CH2       23.5890   -3.4730   15.9810 C.ar   14  TRP14       0.0015
     77  N         33.1980   -0.1060   19.5930 N.3    16  LYS16      -0.1231
     78  CA        34.4710    0.5270   19.2430 C.3    16  LYS16       0.1693
     79  C         34.2070    1.8790   18.5990 C.2    16  LYS16       0.2592
     80  O         34.9780    2.8610   18.8410 O.2    16  LYS16      -0.2718
     81  CB        35.3900   -0.3980   18.4230 C.3    16  LYS16       0.0285
     82  CG        35.9620   -1.5730   19.2900 C.3    16  LYS16       0.0035
     83  CD        36.6840   -2.5440   18.3630 C.3    16  LYS16       0.0206
     84  CE        35.7310   -3.3380   17.4610 C.3    16  LYS16       0.1093
     85  NZ        36.4170   -4.1850   16.3960 N.3    16  LYS16      -0.1314
     86  N         33.0970    1.9910   17.8470 N.am   17  ASP17      -0.1960
     87  CA        32.7100    3.3010   17.3240 C.3    17  ASP17       0.1840
     88  C         31.5840    4.0250   18.0160 C.2    17  ASP17       0.2622
     89  O         31.4090    5.2200   17.7790 O.2    17  ASP17      -0.2715
     90  CB        32.4630    3.2680   15.8020 C.3    17  ASP17       0.1450
     91  CG        33.7390    2.9720   15.0590 C.2    17  ASP17       0.3671
     92  OD1       34.3260    3.9080   14.4880 O.co2  17  ASP17      -0.2456
     93  OD2       34.1550    1.7900   15.0930 O.co2  17  ASP17      -0.2456
     94  N         30.8560    3.3070   18.8880 N.am   18  PHE18      -0.1974
     95  CA        29.7020    3.8640   19.5970 C.3    18  PHE18       0.1639
     96  C         29.8370    3.3560   21.0150 C.2    18  PHE18       0.2290
     97  O         29.1940    2.3810   21.3890 O.2    18  PHE18      -0.2864
     98  CB        28.3880    3.4150   18.9210 C.3    18  PHE18       0.0560
     99  CG        28.3530    3.7160   17.4540 C.ar   18  PHE18      -0.0200
    100  CD1       27.9250    4.9770   17.0040 C.ar   18  PHE18      -0.0042
    101  CD2       28.8260    2.7750   16.5220 C.ar   18  PHE18      -0.0042
    102  CE1       27.8790    5.2640   15.6160 C.ar   18  PHE18      -0.0003
    103  CE2       28.8730    3.0370   15.1430 C.ar   18  PHE18      -0.0003
    104  CZ        28.4040    4.2810   14.6690 C.ar   18  PHE18      -0.0000
@<TRIPOS>BOND
     1     1     2    1
     2     2     5    1
     3     2     3    1
     4     5     6    1
     5    19    17   ar
     6    19    20   ar
     7     7     6   ar
     8     7     9   ar
     9    17    16   ar
    10     6     8   ar
    11     3     4    2
    12     3    11   am
    13    20    18   ar
    14     9    10   ar
    15    16    18   ar
    16    16    15    1
    17    11    12    1
    18     8    10   ar
    19    15    12    1
    20    12    13    1
    21    52    50   am
    22    14    13    2
    23    24    23    2
    24    13    21   am
    25    42    44   ar
    26    42    40   ar
    27    50    51    2
    28    50    49    1
    29    44    43   ar
    30    40    39    1
    31    40    41   ar
    32    39    36    1
    33    21    22    1
    34    23    22    1
    35    43    41   ar
    36    49    46    1
    37    22    25    1
    38    35    36    1
    39    32    34   ar
    40    32    30   ar
    41    29    30   ar
    42    29    27   ar
    43    36    37    1
    44    34    33   ar
    45    30    28   ar
    46    37    45   am
    47    37    38    2
    48    27    26   ar
    49    45    46    1
    50    33    31   ar
    51    28    26   ar
    52    28    31   ar
    53    26    25    1
    54    46    47    1
    55    47    48    2
    56    92    91   ar
    57   104   103   ar
    58   104   102   ar
    59    71    72   ar
    60    71    69   ar
    61    91    93   ar
    62    91    90    1
    63    74    72   ar
    64    74    76   ar
    65   103   101   ar
    66    62    61   ar
    67    62    60   ar
    68    61    59   ar
    69    72    70   ar
    70    60    58   ar
    71   102   100   ar
    72    69    68   ar
    73    59    58   ar
    74    58    57    1
    75    90    87    1
    76    76    75   ar
    77    57    54    1
    78    85    84    1
    79   101    99   ar
    80    70    68   ar
    81    70    73   ar
    82    68    67    1
    83   100    99   ar
    84    75    73   ar
    85    87    86    1
    86    87    88    1
    87    99    98    1
    88    84    83    1
    89    54    55    1
    90    54    53    1
    91    56    55    2
    92    55    63   am
    93    89    88    2
    94    64    63    1
    95    64    67    1
    96    64    65    1
    97    86    79   am
    98    88    94   am
    99    83    82    1
   100    81    78    1
   101    81    82    1
   102    66    65    2
   103    79    80    2
   104    79    78    1
   105    94    95    1
   106    98    95    1
   107    78    77    1
   108    95    96    1
   109    96    97    2
