@<TRIPOS>MOLECULE
tmp/3s78A00.pdb
 104 109 0 0 0
SMALL
GASTEIGER

@<TRIPOS>ATOM
      1  N         31.4380   -0.8080    3.9340 N.3     1  HIS1       -0.1226
      2  CA        31.9050   -1.1110    5.3460 C.3     1  HIS1        0.1752
      3  C         31.7740    0.1390    6.2800 C.2     1  HIS1        0.2596
      4  O         31.9560    1.3070    5.8370 O.2     1  HIS1       -0.2718
      5  CB        33.3450   -1.7340    5.3810 C.3     1  HIS1        0.0759
      6  CG        33.6820   -2.3930    6.6760 C.ar    1  HIS1        0.0818
      7  ND1       33.4130   -3.7170    6.9320 N.ar    1  HIS1       -0.2268
      8  CD2       34.3060   -1.9180    7.7760 C.ar    1  HIS1        0.1154
      9  CE1       33.8890   -4.0470    8.1180 C.ar    1  HIS1        0.1986
     10  NE2       34.4400   -2.9730    8.6510 N.ar    1  HIS1       -0.2212
     11  N         31.5190   -0.1520    7.5670 N.am    2  HIS2       -0.1961
     12  CA        30.8160    0.6870    8.5350 C.3     2  HIS2        0.1787
     13  C         30.2710   -0.4400    9.4650 C.2     2  HIS2        0.2620
     14  O         30.7440   -1.5840    9.3930 O.2     2  HIS2       -0.2715
     15  CB        29.6930    1.5250    7.8660 C.3     2  HIS2        0.0785
     16  CG        28.6000    0.8600    7.1370 C.ar    2  HIS2        0.0821
     17  ND1       27.5520    0.1550    7.7650 N.ar    2  HIS2       -0.2267
     18  CD2       28.3760    0.7190    5.8000 C.ar    2  HIS2        0.1154
     19  CE1       26.7710   -0.3240    6.8140 C.ar    2  HIS2        0.1986
     20  NE2       27.2310    0.0490    5.6170 N.ar    2  HIS2       -0.2212
     21  N         29.3060   -0.1610   10.3390 N.am    3  TRP3       -0.1974
     22  CA        28.7700   -1.2090   11.2190 C.3     3  TRP3        0.1640
     23  C         27.8100   -2.0830   10.4280 C.2     3  TRP3        0.2290
     24  O         27.2570   -1.6370    9.4170 O.2     3  TRP3       -0.2864
     25  CB        28.0780   -0.6000   12.4470 C.3     3  TRP3        0.0576
     26  CG        26.8920    0.2670   12.0880 C.ar    3  TRP3        0.0006
     27  CD1       26.8960    1.6260   11.7910 C.ar    3  TRP3        0.0946
     28  CD2       25.5180   -0.1660   11.9870 C.ar    3  TRP3        0.0152
     29  NE1       25.6030    2.0430   11.5210 N.ar    3  TRP3       -0.2442
     30  CE2       24.7450    0.9690   11.6090 C.ar    3  TRP3        0.0810
     31  CE3       24.8780   -1.4070   12.1500 C.ar    3  TRP3        0.0012
     32  CZ2       23.3460    0.9160   11.4430 C.ar    3  TRP3        0.0191
     33  CZ3       23.4470   -1.4750   11.9550 C.ar    3  TRP3        0.0001
     34  CH2       22.7150   -0.3160   11.5940 C.ar    3  TRP3        0.0015
     35  N         32.4500   -9.5340   11.3690 N.3     8  HIS8       -0.1226
     36  CA        33.4840   -8.4770   11.5230 C.3     8  HIS8        0.1752
     37  C         33.0390   -7.0540   11.9240 C.2     8  HIS8        0.2596
     38  O         33.8540   -6.2500   12.4130 O.2     8  HIS8       -0.2718
     39  CB        34.4500   -8.5510   10.3280 C.3     8  HIS8        0.0759
     40  CG        35.1980   -9.8500   10.3220 C.ar    8  HIS8        0.0818
     41  ND1       36.1920  -10.1310   11.2420 N.ar    8  HIS8       -0.2268
     42  CD2       35.0040  -10.9910    9.6200 C.ar    8  HIS8        0.1154
     43  CE1       36.6150  -11.3660   11.0710 C.ar    8  HIS8        0.1986
     44  NE2       35.9070  -11.9120   10.0950 N.ar    8  HIS8       -0.2212
     45  N         31.7490   -6.7740   11.7510 N.am    9  ASN9       -0.1974
     46  CA        31.1790   -5.4620   12.0480 C.3     9  ASN9        0.1688
     47  C         29.8090   -5.5300   12.8000 C.2     9  ASN9        0.2292
     48  O         29.0920   -4.5180   12.8530 O.2     9  ASN9       -0.2864
     49  CB        30.9680   -4.7110   10.7340 C.3     9  ASN9        0.1181
     50  CG        29.9400   -5.3890    9.8280 C.2     9  ASN9        0.2629
     51  OD1       29.4030   -6.4600   10.1360 O.2     9  ASN9       -0.2716
     52  ND2       29.6530   -4.7490    8.7030 N.am    9  ASN9       -0.0877
     53  N         31.1230   -5.6810   17.9480 N.3    13  HIS13      -0.1226
     54  CA        32.0520   -4.6820   17.4820 C.3    13  HIS13       0.1752
     55  C         31.5480   -3.2320   17.6620 C.2    13  HIS13       0.2596
     56  O         32.3690   -2.2800   17.6070 O.2    13  HIS13      -0.2718
     57  CB        32.2830   -4.9180   15.9660 C.3    13  HIS13       0.0759
     58  CG        33.0730   -6.1630   15.6660 C.ar   13  HIS13       0.0818
     59  ND1       34.4580   -6.1830   15.6250 N.ar   13  HIS13      -0.2268
     60  CD2       32.6750   -7.4360   15.4010 C.ar   13  HIS13       0.1154
     61  CE1       34.8720   -7.4130   15.3460 C.ar   13  HIS13       0.1986
     62  NE2       33.8130   -8.1910   15.2060 N.ar   13  HIS13      -0.2212
     63  N         30.2150   -3.0380   17.8380 N.am   14  TRP14      -0.1976
     64  CA        29.6430   -1.6870   17.7590 C.3    14  TRP14       0.1640
     65  C         30.2680   -0.7370   18.7590 C.2    14  TRP14       0.2290
     66  O         30.3790    0.4510   18.4710 O.2    14  TRP14      -0.2864
     67  CB        28.1000   -1.6560   17.9220 C.3    14  TRP14       0.0576
     68  CG        27.4230   -2.3160   16.8220 C.ar   14  TRP14       0.0006
     69  CD1       27.9790   -2.6860   15.6300 C.ar   14  TRP14       0.0946
     70  CD2       26.0190   -2.6310   16.7250 C.ar   14  TRP14       0.0152
     71  NE1       27.0550   -3.2780   14.8360 N.ar   14  TRP14      -0.2442
     72  CE2       25.8250   -3.2170   15.4500 C.ar   14  TRP14       0.0810
     73  CE3       24.9300   -2.4840   17.5950 C.ar   14  TRP14       0.0012
     74  CZ2       24.5730   -3.6930   15.0180 C.ar   14  TRP14       0.0191
     75  CZ3       23.7090   -2.9200   17.1990 C.ar   14  TRP14       0.0001
     76  CH2       23.5180   -3.5410   15.9140 C.ar   14  TRP14       0.0015
     77  N         33.2060    0.0910   19.6110 N.3    16  LYS16      -0.1231
     78  CA        34.4970    0.7300   19.3050 C.3    16  LYS16       0.1693
     79  C         34.2040    2.0760   18.6180 C.2    16  LYS16       0.2592
     80  O         34.7880    3.0890   18.9730 O.2    16  LYS16      -0.2718
     81  CB        35.3250   -0.1960   18.3940 C.3    16  LYS16       0.0285
     82  CG        35.8380   -1.5340   19.0850 C.3    16  LYS16       0.0035
     83  CD        36.5650   -2.4000   18.0760 C.3    16  LYS16       0.0206
     84  CE        35.6760   -3.4490   17.4470 C.3    16  LYS16       0.1093
     85  NZ        36.3010   -4.1950   16.2390 N.3    16  LYS16      -0.1314
     86  N         33.2250    2.1080   17.7280 N.am   17  ASP17      -0.1960
     87  CA        32.6990    3.4100   17.2640 C.3    17  ASP17       0.1840
     88  C         31.6120    4.0920   18.0670 C.2    17  ASP17       0.2622
     89  O         31.4200    5.2860   17.8940 O.2    17  ASP17      -0.2715
     90  CB        32.2930    3.3520   15.8020 C.3    17  ASP17       0.1450
     91  CG        33.4720    3.0780   14.9330 C.2    17  ASP17       0.3671
     92  OD1       33.9380    3.9940   14.2890 O.co2  17  ASP17      -0.2456
     93  OD2       33.9910    1.9320   14.9710 O.co2  17  ASP17      -0.2456
     94  N         30.9020    3.3630   18.9370 N.am   18  PHE18      -0.1974
     95  CA        29.7530    3.9580   19.6380 C.3    18  PHE18       0.1639
     96  C         29.8560    3.4090   21.0290 C.2    18  PHE18       0.2290
     97  O         29.1920    2.4210   21.3350 O.2    18  PHE18      -0.2864
     98  CB        28.4040    3.5900   18.9620 C.3    18  PHE18       0.0560
     99  CG        28.3490    3.9300   17.4920 C.ar   18  PHE18      -0.0200
    100  CD1       27.9650    5.2170   17.0770 C.ar   18  PHE18      -0.0042
    101  CD2       28.7220    2.9820   16.5360 C.ar   18  PHE18      -0.0042
    102  CE1       27.9440    5.5450   15.6920 C.ar   18  PHE18      -0.0003
    103  CE2       28.7500    3.2750   15.1470 C.ar   18  PHE18      -0.0003
    104  CZ        28.3320    4.5740   14.7320 C.ar   18  PHE18      -0.0000
@<TRIPOS>BOND
     1     1     2    1
     2     2     5    1
     3     2     3    1
     4     5     6    1
     5    20    18   ar
     6    20    19   ar
     7    18    16   ar
     8     4     3    2
     9     3    11   am
    10     6     7   ar
    11     6     8   ar
    12    19    17   ar
    13     7     9   ar
    14    16    17   ar
    15    16    15    1
    16    11    12    1
    17     8    10   ar
    18    15    12    1
    19     9    10   ar
    20    12    13    1
    21    52    50   am
    22    14    13    2
    23    24    23    2
    24    13    21   am
    25    42    44   ar
    26    42    40   ar
    27    50    51    2
    28    50    49    1
    29    44    43   ar
    30    40    39    1
    31    40    41   ar
    32    39    36    1
    33    21    22    1
    34    23    22    1
    35    49    46    1
    36    43    41   ar
    37    22    25    1
    38    35    36    1
    39    32    34   ar
    40    32    30   ar
    41    29    30   ar
    42    29    27   ar
    43    36    37    1
    44    34    33   ar
    45    30    28   ar
    46    45    37   am
    47    45    46    1
    48    27    26   ar
    49    37    38    2
    50    33    31   ar
    51    28    26   ar
    52    28    31   ar
    53    46    47    1
    54    26    25    1
    55    47    48    2
    56    92    91   ar
    57   104   103   ar
    58   104   102   ar
    59    71    72   ar
    60    71    69   ar
    61    91    93   ar
    62    91    90    1
    63    74    72   ar
    64    74    76   ar
    65   103   101   ar
    66    62    61   ar
    67    62    60   ar
    68    61    59   ar
    69    60    58   ar
    70    72    70   ar
    71    59    58   ar
    72    69    68   ar
    73    58    57    1
    74   102   100   ar
    75    90    87    1
    76    76    75   ar
    77    57    54    1
    78    85    84    1
    79   101    99   ar
    80    70    68   ar
    81    70    73   ar
    82    68    67    1
    83   100    99   ar
    84    75    73   ar
    85    87    86    1
    86    87    88    1
    87    84    83    1
    88    54    55    1
    89    54    53    1
    90    99    98    1
    91    56    55    2
    92    55    63   am
    93    86    79   am
    94    64    63    1
    95    64    67    1
    96    64    65    1
    97    89    88    2
    98    88    94   am
    99    83    82    1
   100    81    82    1
   101    81    78    1
   102    66    65    2
   103    79    80    2
   104    79    78    1
   105    94    95    1
   106    98    95    1
   107    78    77    1
   108    95    96    1
   109    96    97    2
