@<TRIPOS>MOLECULE
tmp/3s7aA00.pdb
 218 212 0 0 0
SMALL
GASTEIGER

@<TRIPOS>ATOM
      1  N         17.2000    8.4640    3.1490 N.3     7  ILE7       -0.1231
      2  CA        17.3130    9.4770    4.1250 C.3     7  ILE7        0.1692
      3  C         18.7040    9.3180    4.7660 C.2     7  ILE7        0.2592
      4  O         19.0930    8.1900    5.1220 O.2     7  ILE7       -0.2718
      5  CB        16.1340    9.4450    5.1610 C.3     7  ILE7        0.0266
      6  CG1       16.2540   10.6260    6.1360 C.3     7  ILE7        0.0019
      7  CG2       16.0360    8.0360    5.8500 C.3     7  ILE7        0.0020
      8  CD1       14.9730   10.8050    6.9040 C.3     7  ILE7        0.0001
      9  N         19.4100   10.4440    4.9290 N.am    8  VAL8       -0.1966
     10  CA        20.7490   10.4360    5.4850 C.3     8  VAL8        0.1727
     11  C         21.0310   11.7640    6.2190 C.2     8  VAL8        0.2616
     12  O         20.4570   12.8230    5.9040 O.2     8  VAL8       -0.2715
     13  CB        21.7900   10.2230    4.3480 C.3     8  VAL8        0.0290
     14  CG1       21.8250   11.5100    3.4420 C.3     8  VAL8        0.0023
     15  CG2       23.1660    9.8200    4.9320 C.3     8  VAL8        0.0023
     16  N         21.8590   11.6860    7.2400 N.am    9  ALA9       -0.1977
     17  CA        22.4470   12.8720    7.8120 C.3     9  ALA9        0.1597
     18  C         23.9490   12.7400    7.5030 C.2     9  ALA9        0.2287
     19  O         24.5290   11.6860    7.6520 O.2     9  ALA9       -0.2864
     20  CB        22.1870   13.0550    9.3430 C.3     9  ALA9        0.0319
     21  N         31.0840    2.3100   13.7840 N.3    20  GLY20      -0.1210
     22  CA        29.7940    1.8510   14.2050 C.3    20  GLY20       0.1956
     23  C         28.9560    2.8480   15.0040 C.2    20  GLY20       0.2612
     24  O         27.9070    2.4930   15.6380 O.2    20  GLY20      -0.2717
     25  N         29.4070    4.0890   14.9620 N.am   21  ASP21      -0.1959
     26  CA        28.6850    5.1660   15.5800 C.3    21  ASP21       0.1840
     27  C         28.4550    6.3490   14.6570 C.2    21  ASP21       0.2621
     28  O         29.0280    6.4210   13.5840 O.2    21  ASP21      -0.2715
     29  CB        29.4020    5.6270   16.8540 C.3    21  ASP21       0.1450
     30  CG        28.6370    5.2010   18.0390 C.2    21  ASP21       0.3671
     31  OD1       27.4730    5.6960   18.1820 O.co2  21  ASP21      -0.2456
     32  OD2       29.1150    4.3170   18.7480 O.co2  21  ASP21      -0.2456
     33  N         27.6040    7.2700   15.0610 N.am   22  LEU22      -0.1977
     34  CA        27.5670    8.5420   14.3290 C.3    22  LEU22       0.1596
     35  C         28.8380    9.3740   14.5410 C.2    22  LEU22       0.2287
     36  O         29.4520    9.3080   15.6530 O.2    22  LEU22      -0.2864
     37  CB        26.3310    9.3680   14.6780 C.3    22  LEU22       0.0297
     38  CG        24.9450    8.8660   14.3750 C.3    22  LEU22       0.0022
     39  CD1       24.0070    9.7680   15.2060 C.3    22  LEU22       0.0001
     40  CD2       24.6810    8.9450   12.8980 C.3    22  LEU22       0.0001
     41  N         29.0060   12.6120   14.9190 N.3    24  TRP24      -0.1241
     42  CA        28.7170   13.8010   15.6760 C.3    24  TRP24       0.1605
     43  C         27.9750   13.3480   16.9170 C.2    24  TRP24       0.2264
     44  O         27.4370   12.2190   16.9550 O.2    24  TRP24      -0.2867
     45  CB        27.8420   14.8230   14.8680 C.3    24  TRP24       0.0550
     46  CG        26.7410   14.0940   14.0070 C.ar   24  TRP24       0.0003
     47  CD1       25.4920   13.7100   14.4060 C.ar   24  TRP24       0.0946
     48  CD2       26.9200   13.6160   12.6640 C.ar   24  TRP24       0.0152
     49  NE1       24.8280   13.0550   13.3360 N.ar   24  TRP24      -0.2442
     50  CE2       25.7050   12.9870   12.2710 C.ar   24  TRP24       0.0810
     51  CE3       27.9530   13.7720   11.7150 C.ar   24  TRP24       0.0012
     52  CZ2       25.5360   12.4170   11.0060 C.ar   24  TRP24       0.0191
     53  CZ3       27.7900   13.1830   10.4410 C.ar   24  TRP24       0.0001
     54  CH2       26.5810   12.5140   10.1000 C.ar   24  TRP24       0.0015
     55  N         19.1080   15.5340   18.8920 N.3    28  ARG28      -0.1245
     56  CA        17.7960   14.9490   19.1890 C.3    28  ARG28       0.1563
     57  C         16.6930   15.3620   18.2290 C.2    28  ARG28       0.2260
     58  O         15.8900   14.4970   17.7970 O.2    28  ARG28      -0.2867
     59  CB        17.4060   15.2620   20.6450 C.3    28  ARG28       0.0307
     60  CG        18.3840   14.5940   21.6240 C.3    28  ARG28       0.0489
     61  CD        17.9380   13.1470   21.9430 C.3    28  ARG28       0.2205
     62  NE        18.9830   12.2720   22.5020 N.pl3  28  ARG28      -0.0865
     63  CZ        20.0770   12.6630   23.1560 C.cat  28  ARG28       0.5346
     64  NH1       20.9130   11.7220   23.5960 N.pl3  28  ARG28       0.1354
     65  NH2       20.3350   13.9590   23.4100 N.pl3  28  ARG28       0.1354
     66  N         17.0900   16.2450   15.2140 N.3    30  GLU30      -0.1231
     67  CA        17.4220   15.6490   13.8810 C.3    30  GLU30       0.1699
     68  C         16.9480   14.2020   13.9220 C.2    30  GLU30       0.2592
     69  O         16.3110   13.7150   12.9360 O.2    30  GLU30      -0.2718
     70  CB        18.9440   15.7660   13.6380 C.3    30  GLU30       0.0402
     71  CG        19.3650   15.8450   12.1130 C.3    30  GLU30       0.1161
     72  CD        19.1020   14.5010   11.3450 C.2    30  GLU30       0.3649
     73  OE1       18.4610   14.5380   10.2720 O.co2  30  GLU30      -0.2457
     74  OE2       19.3910   13.3980   11.8990 O.co2  30  GLU30      -0.2457
     75  N         17.2360   13.4830   15.0250 N.am   31  PHE31      -0.1962
     76  CA        16.6750   12.1310   15.1830 C.3    31  PHE31       0.1771
     77  C         15.1350   12.0950   15.1370 C.2    31  PHE31       0.2619
     78  O         14.5190   11.1680   14.5310 O.2    31  PHE31      -0.2715
     79  CB        17.0250   11.5000   16.5430 C.3    31  PHE31       0.0574
     80  CG        18.4640   11.2800   16.7770 C.ar   31  PHE31      -0.0200
     81  CD1       19.4370   11.3650   15.7420 C.ar   31  PHE31      -0.0042
     82  CD2       18.8890   10.9850   18.0940 C.ar   31  PHE31      -0.0042
     83  CE1       20.7650   11.1510   16.0170 C.ar   31  PHE31      -0.0003
     84  CE2       20.2140   10.7330   18.3400 C.ar   31  PHE31      -0.0003
     85  CZ        21.1480   10.8430   17.3250 C.ar   31  PHE31      -0.0000
     86  N         14.4920   13.1060   15.7110 N.am   32  ARG32      -0.1963
     87  CA        13.0010   13.1830   15.6510 C.3    32  ARG32       0.1729
     88  C         12.4890   13.3290   14.2230 C.2    32  ARG32       0.2616
     89  O         11.4400   12.7420   13.8750 O.2    32  ARG32      -0.2715
     90  CB        12.4830   14.2920   16.5580 C.3    32  ARG32       0.0348
     91  CG        12.6240   13.8690   18.0330 C.3    32  ARG32       0.0492
     92  CD        11.7390   14.6610   19.0340 C.3    32  ARG32       0.2205
     93  NE        12.4790   15.8070   19.5540 N.pl3  32  ARG32      -0.0865
     94  CZ        13.4660   15.7440   20.4530 C.cat  32  ARG32       0.5346
     95  NH1       14.0780   16.8710   20.8260 N.pl3  32  ARG32       0.1354
     96  NH2       13.8580   14.5790   20.9740 N.pl3  32  ARG32       0.1354
     97  N         13.2570   14.0650   13.4010 N.am   33  TYR33      -0.1960
     98  CA        12.9550   14.3040   12.0070 C.3    33  TYR33       0.1771
     99  C         13.0610   12.9840   11.2570 C.2    33  TYR33       0.2620
    100  O         12.1220   12.6060   10.5380 O.2    33  TYR33      -0.2715
    101  CB        13.8880   15.3600   11.4170 C.3    33  TYR33       0.0574
    102  CG        13.8150   15.5560    9.9040 C.ar   33  TYR33      -0.0198
    103  CD1       14.7830   14.9620    9.0640 C.ar   33  TYR33      -0.0009
    104  CD2       12.8070   16.3280    9.3340 C.ar   33  TYR33      -0.0009
    105  CE1       14.7530   15.1750    7.6390 C.ar   33  TYR33       0.0417
    106  CE2       12.7340   16.5460    7.9540 C.ar   33  TYR33       0.0417
    107  CZ        13.7090   15.9740    7.1190 C.ar   33  TYR33       0.1957
    108  OH        13.6350   16.1710    5.7640 O.3    33  TYR33      -0.2866
    109  N         14.1490   12.2490   11.4810 N.am   34  PHE34      -0.1960
    110  CA        14.2890   10.8920   10.8600 C.3    34  PHE34       0.1771
    111  C         13.0920   10.0080   11.2160 C.2    34  PHE34       0.2619
    112  O         12.4930    9.3560   10.3610 O.2    34  PHE34      -0.2715
    113  CB        15.5760   10.2210   11.3760 C.3    34  PHE34       0.0574
    114  CG        15.7070    8.7550   11.0350 C.ar   34  PHE34      -0.0200
    115  CD1       16.2540    8.3620    9.8440 C.ar   34  PHE34      -0.0042
    116  CD2       15.2740    7.7830   11.9100 C.ar   34  PHE34      -0.0042
    117  CE1       16.3890    6.9710    9.5420 C.ar   34  PHE34      -0.0003
    118  CE2       15.3770    6.4390   11.5970 C.ar   34  PHE34      -0.0003
    119  CZ        15.9550    6.0450   10.4060 C.ar   34  PHE34      -0.0000
    120  N         12.7760    9.9410   12.5050 N.am   35  GLN35      -0.1977
    121  CA        11.6800    9.1330   12.9610 C.3    35  GLN35       0.1601
    122  C         10.3580    9.5180   12.2950 C.2    35  GLN35       0.2287
    123  O          9.6170    8.6280   11.8150 O.2    35  GLN35      -0.2864
    124  CB        11.5520    9.2570   14.4930 C.3    35  GLN35       0.0394
    125  CG        10.3670    8.4350   15.0590 C.3    35  GLN35       0.0908
    126  CD        10.0310    8.8670   16.4500 C.2    35  GLN35       0.2608
    127  OE1        8.8810    9.2380   16.7400 O.2    35  GLN35      -0.2717
    128  NE2       11.0360    8.8940   17.3290 N.am   35  GLN35      -0.0878
    129  N         24.5670   -1.2840    9.6820 N.3    56  THR56      -0.1218
    130  CA        23.6810   -0.2560   10.1880 C.3    56  THR56       0.1862
    131  C         22.6690   -0.8450   11.1770 C.2    56  THR56       0.2287
    132  O         22.4250   -0.2390   12.2540 O.2    56  THR56      -0.2866
    133  CB        22.9600    0.4700    9.0120 C.3    56  THR56       0.1770
    134  OG1       23.9420    1.1250    8.2590 O.3    56  THR56      -0.2211
    135  CG2       21.9220    1.4490    9.5170 C.3    56  THR56       0.0375
    136  N         24.3730   -1.4510   14.4670 N.3    59  SER59      -0.1202
    137  CA        24.8810   -0.1470   15.0170 C.3    59  SER59       0.2020
    138  C         23.7980    0.7170   15.6520 C.2    59  SER59       0.2619
    139  O         24.0500    1.4260   16.6410 O.2    59  SER59      -0.2717
    140  CB        25.5670    0.7050   13.9180 C.3    59  SER59       0.2103
    141  OG        26.6800    0.0530   13.3770 O.3    59  SER59      -0.2182
    142  N         22.6180    0.7110   15.0500 N.am   60  ILE60      -0.1966
    143  CA        21.5000    1.4860   15.6170 C.3    60  ILE60       0.1712
    144  C         21.2510    1.0700   17.0990 C.2    60  ILE60       0.2458
    145  O         21.2700   -0.1420   17.4430 O.2    60  ILE60      -0.2730
    146  CB        20.2310    1.4020   14.7080 C.3    60  ILE60       0.0289
    147  CG1       20.5450    2.1740   13.3800 C.3    60  ILE60       0.0022
    148  CG2       18.9640    1.8910   15.4930 C.3    60  ILE60       0.0023
    149  CD1       19.4740    2.0530   12.2650 C.3    60  ILE60       0.0001
    150  N         21.0120    2.0700   17.9830 N.am   61  PRO61      -0.2727
    151  CA        20.8700    1.7640   19.4050 C.3    61  PRO61       0.1402
    152  C         19.8340    0.6780   19.6270 C.2    61  PRO61       0.2269
    153  O         18.7230    0.7680   19.0830 O.2    61  PRO61      -0.2865
    154  CB        20.2980    3.0870   19.9710 C.3    61  PRO61       0.0296
    155  CG        20.9350    4.0940   19.1170 C.3    61  PRO61       0.0237
    156  CD        20.8710    3.5110   17.7420 C.3    61  PRO61       0.0939
    157  N         17.8990   -0.4370   21.8890 N.3    63  LYS63      -0.1231
    158  CA        16.6020   -0.1920   22.5360 C.3    63  LYS63       0.1693
    159  C         15.6750    0.5930   21.5980 C.2    63  LYS63       0.2592
    160  O         14.5580    0.8680   21.9760 O.2    63  LYS63      -0.2718
    161  CB        16.7380    0.5880   23.8360 C.3    63  LYS63       0.0285
    162  CG        16.8980    2.0740   23.5470 C.3    63  LYS63       0.0035
    163  CD        16.7990    2.9330   24.7590 C.3    63  LYS63       0.0206
    164  CE        17.5440    4.2320   24.5060 C.3    63  LYS63       0.1093
    165  NZ        17.5080    4.5970   23.0830 N.3    63  LYS63      -0.1314
    166  N         16.1360    0.9700   20.3900 N.am   64  ASN64      -0.1974
    167  CA        15.2050    1.4650   19.3600 C.3    64  ASN64       0.1688
    168  C         14.8300    0.4570   18.2310 C.2    64  ASN64       0.2292
    169  O         14.0390    0.8080   17.3690 O.2    64  ASN64      -0.2864
    170  CB        15.7130    2.7750   18.7670 C.3    64  ASN64       0.1181
    171  CG        15.9480    3.8490   19.8260 C.2    64  ASN64       0.2629
    172  OD1       15.0250    4.2740   20.5350 O.2    64  ASN64      -0.2716
    173  ND2       17.1600    4.2930   19.9190 N.am   64  ASN64      -0.0877
    174  N         12.8180   -0.6230   14.4340 N.3    67  LEU67      -0.1245
    175  CA        12.2570    0.7310   14.3680 C.3    67  LEU67       0.1561
    176  C         10.7100    0.6350   14.4150 C.2    67  LEU67       0.2260
    177  O         10.0400   -0.0140   13.5510 O.2    67  LEU67      -0.2867
    178  CB        12.7790    1.4200   13.0590 C.3    67  LEU67       0.0270
    179  CG        14.3040    1.6510   13.0480 C.3    67  LEU67       0.0019
    180  CD1       14.6970    2.3840   11.7610 C.3    67  LEU67       0.0001
    181  CD2       14.7900    2.4990   14.2690 C.3    67  LEU67       0.0001
    182  N          7.2510    0.7250   11.6430 N.3    70  ARG70      -0.1245
    183  CA         7.8370    0.4920   10.3320 C.3    70  ARG70       0.1563
    184  C          8.1650   -0.9990   10.1670 C.2    70  ARG70       0.2260
    185  O          8.4900   -1.7120   11.1330 O.2    70  ARG70      -0.2867
    186  CB         9.1070    1.3260   10.1510 C.3    70  ARG70       0.0307
    187  CG         8.8070    2.7940   10.0370 C.3    70  ARG70       0.0489
    188  CD         9.9320    3.6610   10.6300 C.3    70  ARG70       0.2205
    189  NE         9.8890    3.5750   12.1030 N.pl3  70  ARG70      -0.0865
    190  CZ        10.6530    4.3140   12.9280 C.cat  70  ARG70       0.5346
    191  NH1       11.5740    5.1130   12.4500 N.pl3  70  ARG70       0.1354
    192  NH2       10.4740    4.2550   14.2520 N.pl3  70  ARG70       0.1354
    193  N         17.8800    3.5010    4.7120 N.3   115  VAL115     -0.1245
    194  CA        18.4060    4.2630    5.8730 C.3   115  VAL115      0.1561
    195  C         19.9140    4.0780    6.1330 C.2   115  VAL115      0.2260
    196  O         20.4460    4.6510    7.0990 O.2   115  VAL115     -0.2867
    197  CB        17.6210    3.9870    7.1500 C.3   115  VAL115      0.0252
    198  CG1       16.1080    4.2700    6.9830 C.3   115  VAL115      0.0019
    199  CG2       17.7770    2.5830    7.5370 C.3   115  VAL115      0.0019
    200  N         23.2280    2.8260    0.1870 N.3   121  TYR121     -0.1241
    201  CA        22.9870    4.0850   -0.4880 C.3   121  TYR121      0.1605
    202  C         23.5380    4.0640   -1.9410 C.2   121  TYR121      0.2264
    203  O         22.8850    4.5510   -2.8660 O.2   121  TYR121     -0.2867
    204  CB        23.7050    5.1980    0.2660 C.3   121  TYR121      0.0534
    205  CG        23.0860    5.6270    1.6140 C.ar  121  TYR121     -0.0201
    206  CD1       23.9280    5.9140    2.7210 C.ar  121  TYR121     -0.0009
    207  CD2       21.7170    5.7770    1.7720 C.ar  121  TYR121     -0.0009
    208  CE1       23.4160    6.3400    3.9400 C.ar  121  TYR121      0.0417
    209  CE2       21.1680    6.1470    3.0200 C.ar  121  TYR121      0.0417
    210  CZ        22.0420    6.4670    4.0860 C.ar  121  TYR121      0.1957
    211  OH        21.5290    6.8930    5.3130 O.3   121  TYR121     -0.2866
    212  N         20.1990   15.6470    5.4440 N.3   136  THR136     -0.1218
    213  CA        20.4560   16.6710    6.4710 C.3   136  THR136      0.1862
    214  C         21.9150   17.0150    6.3430 C.2   136  THR136      0.2287
    215  O         22.7890   16.1750    6.6020 O.2   136  THR136     -0.2866
    216  CB        20.1530   16.1010    7.8750 C.3   136  THR136      0.1770
    217  OG1       18.7740   15.7800    7.9210 O.3   136  THR136     -0.2211
    218  CG2       20.4600   17.1850    9.0030 C.3   136  THR136      0.0375
@<TRIPOS>BOND
     1   203   202    2
     2   202   201    1
     3   201   200    1
     4   201   204    1
     5   204   205    1
     6   205   207   ar
     7   205   206   ar
     8   207   209   ar
     9   206   208   ar
    10   209   210   ar
    11     1     2    1
    12    14    13    1
    13   208   210   ar
    14   210   211    1
    15     2     3    1
    16     2     5    1
    17    13    15    1
    18    13    10    1
    19   193   194    1
    20     3     9   am
    21     3     4    2
    22     9    10    1
    23     5     7    1
    24     5     6    1
    25   212   213    1
    26    10    11    1
    27   108   107    1
    28   194   195    1
    29   194   197    1
    30    12    11    2
    31   195   196    2
    32     6     8    1
    33    11    16   am
    34   214   213    1
    35   214   215    2
    36   213   216    1
    37   198   197    1
    38   107   105   ar
    39   107   106   ar
    40   197   199    1
    41    16    17    1
    42    18    19    2
    43    18    17    1
    44   105   103   ar
    45    17    20    1
    46   216   217    1
    47   216   218    1
    48   106   104   ar
    49   134   133    1
    50   133   135    1
    51   133   130    1
    52   103   102   ar
    53   104   102   ar
    54   117   115   ar
    55   117   119   ar
    56   129   130    1
    57   115   114   ar
    58   102   101    1
    59   187   186    1
    60   187   188    1
    61    54    53   ar
    62    54    52   ar
    63   186   183    1
    64   184   183    1
    65   184   185    2
    66   130   131    1
    67    73    72   ar
    68   183   182    1
    69   112   111    2
    70   119   118   ar
    71    53    51   ar
    72   100    99    2
    73   188   189    1
    74   110   111    1
    75   110   113    1
    76   110   109    1
    77    52    50   ar
    78   114   113    1
    79   114   116   ar
    80   131   132    2
    81   111   120   am
    82    99   109   am
    83    99    98    1
    84    72    74   ar
    85    72    71    1
    86   101    98    1
    87   118   116   ar
    88    51    48   ar
    89   180   179    1
    90   123   122    2
    91    98    97    1
    92   189   190    2
    93    71    70    1
    94   149   147    1
    95    50    48   ar
    96    50    49   ar
    97   122   121    1
    98   191   190    1
    99   120   121    1
   100    48    46   ar
   101    40    38    1
   102   190   192    1
   103    69    68    2
   104   121   124    1
   105   179   178    1
   106   179   181    1
   107   178   175    1
   108    49    47   ar
   109   141   140    1
   110   147   146    1
   111    97    88   am
   112   177   176    2
   113    28    27    2
   114    70    67    1
   115    21    22    1
   116    89    88    2
   117    67    68    1
   118    67    66    1
   119   140   137    1
   120    68    75   am
   121    46    47   ar
   122    46    45    1
   123    22    23    1
   124    88    87    1
   125    34    35    1
   126    34    37    1
   127    34    33    1
   128   175   176    1
   129   175   174    1
   130    38    37    1
   131    38    39    1
   132   136   137    1
   133   124   125    1
   134    78    77    2
   135    35    36    2
   136    27    33   am
   137    27    26    1
   138   146   148    1
   139   146   143    1
   140    45    42    1
   141    41    42    1
   142    25    23   am
   143    25    26    1
   144    23    24    2
   145   137   138    1
   146    75    76    1
   147   142   143    1
   148   142   138   am
   149   125   126    1
   150    77    76    1
   151    77    86   am
   152    76    79    1
   153    26    29    1
   154   143   144    1
   155    87    86    1
   156    87    90    1
   157   138   139    2
   158    42    43    1
   159    81    83   ar
   160    81    80   ar
   161    83    85   ar
   162   126   127    2
   163   126   128   am
   164    79    80    1
   165    90    91    1
   166    80    82   ar
   167    29    30    1
   168    43    44    2
   169   144   145    2
   170   144   150   am
   171    85    84   ar
   172   169   168    2
   173   156   150    1
   174   156   155    1
   175    58    57    2
   176   150   151    1
   177    91    92    1
   178    30    31   ar
   179    30    32   ar
   180    82    84   ar
   181    57    56    1
   182   168   167    1
   183   170   167    1
   184   170   171    1
   185    55    56    1
   186    92    93    1
   187   153   152    2
   188   155   154    1
   189    56    59    1
   190   167   166    1
   191   151   152    1
   192   151   154    1
   193    93    94    2
   194   171   173   am
   195   171   172    2
   196   166   159   am
   197    94    95    1
   198    94    96    1
   199    59    60    1
   200   159   160    2
   201   159   158    1
   202    60    61    1
   203   157   158    1
   204    61    62    1
   205    62    63    2
   206   158   161    1
   207   165   164    1
   208    63    65    1
   209    63    64    1
   210   162   161    1
   211   162   163    1
   212   164   163    1
