@<TRIPOS>MOLECULE
tmp/3s7lA00.pdb
 180 171 0 0 0
SMALL
GASTEIGER

@<TRIPOS>ATOM
      1  N          5.0970    2.0730   12.7780 N.3    14  GLY14      -0.1210
      2  CA         5.6570    1.7160   14.0590 C.3    14  GLY14       0.1956
      3  C          5.7150    0.2180   14.2410 C.2    14  GLY14       0.2612
      4  O          6.1310   -0.2510   15.2810 O.2    14  GLY14      -0.2717
      5  N          5.2990   -0.5480   13.2380 N.am   15  GLN15      -0.1965
      6  CA         5.2390   -1.9920   13.4140 C.3    15  GLN15       0.1733
      7  C          6.1630   -2.7230   12.4260 C.2    15  GLN15       0.2616
      8  O          6.1040   -3.9250   12.2990 O.2    15  GLN15      -0.2715
      9  CB         3.7820   -2.4810   13.3280 C.3    15  GLN15       0.0408
     10  CG         2.9000   -2.0360   14.5280 C.3    15  GLN15       0.0908
     11  CD         1.4790   -2.6080   14.4930 C.2    15  GLN15       0.2608
     12  OE1        0.9090   -2.8560   13.4240 O.2    15  GLN15      -0.2717
     13  NE2        0.9040   -2.8140   15.6690 N.am   15  GLN15      -0.0878
     14  N          7.0220   -1.9760   11.7400 N.am   16  GLY16      -0.1955
     15  CA         8.0330   -2.5510   10.8700 C.3    16  GLY16       0.1869
     16  C          7.5340   -2.6500    9.4380 C.2    16  GLY16       0.2309
     17  O          6.3380   -2.5500    9.1860 O.2    16  GLY16      -0.2863
     18  N          9.1700   -9.4770    8.1480 N.3    33  LEU33      -0.1245
     19  CA         9.8180   -8.2270    8.5280 C.3    33  LEU33       0.1561
     20  C         11.2450   -8.1300    7.9770 C.2    33  LEU33       0.2260
     21  O         12.0540   -9.0370    8.1380 O.2    33  LEU33      -0.2867
     22  CB         9.8580   -8.1110   10.0510 C.3    33  LEU33       0.0270
     23  CG        10.5440   -6.8400   10.5630 C.3    33  LEU33       0.0019
     24  CD1        9.6850   -5.5720   10.3010 C.3    33  LEU33       0.0001
     25  CD2       10.8590   -6.9810   12.0480 C.3    33  LEU33       0.0001
     26  N         14.6260   -6.8440    8.4670 N.3    35  ASP35      -0.1239
     27  CA        15.2600   -6.4330    9.7050 C.3    35  ASP35       0.1674
     28  C         16.7550   -6.4210    9.5400 C.2    35  ASP35       0.2266
     29  O         17.3750   -7.4720    9.5810 O.2    35  ASP35      -0.2867
     30  CB        14.8650   -7.3730   10.8380 C.3    35  ASP35       0.1410
     31  CG        15.4070   -6.9240   12.1800 C.2    35  ASP35       0.3668
     32  OD1       15.8620   -5.7640   12.2710 O.co2  35  ASP35      -0.2456
     33  OD2       15.3840   -7.7280   13.1320 O.co2  35  ASP35      -0.2456
     34  N         18.6780   -5.3700   11.6480 N.3    37  GLY37      -0.1210
     35  CA        19.1860   -5.3750   13.0190 C.3    37  GLY37       0.1956
     36  C         19.2850   -6.7580   13.6510 C.2    37  GLY37       0.2612
     37  O         19.5110   -6.8750   14.8550 O.2    37  GLY37      -0.2717
     38  N         19.0870   -7.8060   12.8480 N.am   38  SER38      -0.1952
     39  CA        19.1870   -9.1910   13.3250 C.3    38  SER38       0.1924
     40  C         19.5560  -10.0810   12.1350 C.2    38  SER38       0.2314
     41  O         19.5380   -9.6410   10.9730 O.2    38  SER38      -0.2863
     42  CB        17.8890   -9.6640   14.0020 C.3    38  SER38       0.2116
     43  OG        16.8010   -9.8290   13.0760 O.3    38  SER38      -0.2180
     44  N         16.1630  -17.9210   21.6720 N.3    72  VAL72      -0.1245
     45  CA        16.5560  -16.5310   21.5170 C.3    72  VAL72       0.1561
     46  C         15.8550  -15.6010   22.4950 C.2    72  VAL72       0.2260
     47  O         14.9240  -14.8920   22.1130 O.2    72  VAL72      -0.2867
     48  CB        16.2900  -16.0190   20.0970 C.3    72  VAL72       0.0252
     49  CG1       16.9230  -14.6440   19.9330 C.3    72  VAL72       0.0019
     50  CG2       16.8620  -16.9950   19.0720 C.3    72  VAL72       0.0019
     51  N         15.8530  -12.1650   24.5890 N.3    74  TYR74      -0.1241
     52  CA        16.4270  -10.8480   24.4220 C.3    74  TYR74       0.1605
     53  C         15.7660   -9.8790   25.3950 C.2    74  TYR74       0.2264
     54  O         14.8230  -10.2380   26.1050 O.2    74  TYR74      -0.2867
     55  CB        16.3250  -10.3860   22.9600 C.3    74  TYR74       0.0534
     56  CG        14.9200  -10.2230   22.4050 C.ar   74  TYR74      -0.0201
     57  CD1       14.3610   -8.9590   22.2650 C.ar   74  TYR74      -0.0009
     58  CD2       14.1680  -11.3230   21.9840 C.ar   74  TYR74      -0.0009
     59  CE1       13.0940   -8.7850   21.7450 C.ar   74  TYR74       0.0417
     60  CE2       12.8790  -11.1580   21.4620 C.ar   74  TYR74       0.0417
     61  CZ        12.3550   -9.8760   21.3480 C.ar   74  TYR74       0.1957
     62  OH        11.1000   -9.6460   20.8360 O.3    74  TYR74      -0.2866
     63  N         13.7260   -7.3300   25.4820 N.3    76  GLN76      -0.1245
     64  CA        12.3070   -7.0190   25.4680 C.3    76  GLN76       0.1566
     65  C         11.4480   -8.2830   25.5330 C.2    76  GLN76       0.2260
     66  O         10.4950   -8.3470   26.3090 O.2    76  GLN76      -0.2867
     67  CB        11.9900   -6.2170   24.2080 C.3    76  GLN76       0.0367
     68  CG        13.0590   -5.1710   23.8660 C.3    76  GLN76       0.0905
     69  CD        13.3410   -5.0780   22.3660 C.2    76  GLN76       0.2608
     70  OE1       12.4240   -4.8960   21.5530 O.2    76  GLN76      -0.2717
     71  NE2       14.6150   -5.2000   21.9960 N.am   76  GLN76      -0.0878
     72  N         12.0230  -15.5360   21.5790 N.3    79  TRP79      -0.1241
     73  CA        11.4610  -16.6030   20.7580 C.3    79  TRP79       0.1605
     74  C         12.3350  -17.8390   20.8390 C.2    79  TRP79       0.2264
     75  O         13.4800  -17.7770   21.2380 O.2    79  TRP79      -0.2867
     76  CB        11.2260  -16.1900   19.2870 C.3    79  TRP79       0.0550
     77  CG        12.4610  -15.8750   18.4390 C.ar   79  TRP79       0.0003
     78  CD1       12.9600  -14.6300   18.1610 C.ar   79  TRP79       0.0946
     79  CD2       13.3050  -16.8040   17.7290 C.ar   79  TRP79       0.0152
     80  NE1       14.0640  -14.7250   17.3510 N.ar   79  TRP79      -0.2442
     81  CE2       14.2950  -16.0420   17.0610 C.ar   79  TRP79       0.0810
     82  CE3       13.3300  -18.1990   17.6060 C.ar   79  TRP79       0.0012
     83  CZ2       15.2990  -16.6250   16.2930 C.ar   79  TRP79       0.0191
     84  CZ3       14.3300  -18.7810   16.8390 C.ar   79  TRP79       0.0001
     85  CH2       15.2990  -17.9960   16.1900 C.ar   79  TRP79       0.0015
     86  N          7.0510  -11.2270   21.0720 N.3   111  PHE111     -0.1241
     87  CA         7.8240  -11.1460   19.8310 C.3   111  PHE111      0.1605
     88  C          6.9440  -10.7100   18.6550 C.2   111  PHE111      0.2264
     89  O          7.2530   -9.7530   17.9560 O.2   111  PHE111     -0.2867
     90  CB         8.5130  -12.4920   19.5530 C.3   111  PHE111      0.0534
     91  CG         9.2830  -12.5390   18.2540 C.ar  111  PHE111     -0.0203
     92  CD1       10.5300  -11.9340   18.1410 C.ar  111  PHE111     -0.0042
     93  CD2        8.7630  -13.2090   17.1490 C.ar  111  PHE111     -0.0042
     94  CE1       11.2330  -11.9830   16.9530 C.ar  111  PHE111     -0.0003
     95  CE2        9.4580  -13.2580   15.9480 C.ar  111  PHE111     -0.0003
     96  CZ        10.7010  -12.6490   15.8520 C.ar  111  PHE111     -0.0000
     97  N          3.5980   -9.0080   16.9400 N.3   113  ILE113     -0.1245
     98  CA         2.8190   -7.8250   17.2700 C.3   113  ILE113      0.1561
     99  C          1.4000   -7.9740   16.7610 C.2   113  ILE113      0.2260
    100  O          1.1710   -8.4210   15.6330 O.2   113  ILE113     -0.2867
    101  CB         3.4330   -6.5670   16.6550 C.3   113  ILE113      0.0252
    102  CG1        4.8520   -6.3790   17.1860 C.3   113  ILE113      0.0019
    103  CG2        2.5540   -5.3470   16.9440 C.3   113  ILE113      0.0019
    104  CD1        5.5640   -5.1830   16.6090 C.3   113  ILE113      0.0001
    105  N          2.7470   -9.3070    9.7180 N.3   118  TRP118     -0.1241
    106  CA         3.8810  -10.1710    9.3520 C.3   118  TRP118      0.1605
    107  C          3.9950  -11.3790   10.2880 C.2   118  TRP118      0.2264
    108  O          3.5830  -11.3350   11.4630 O.2   118  TRP118     -0.2867
    109  CB         5.2350   -9.4200    9.2690 C.3   118  TRP118      0.0550
    110  CG         5.6060   -8.5380   10.4500 C.ar  118  TRP118      0.0003
    111  CD1        5.4100   -7.1870   10.5480 C.ar  118  TRP118      0.0946
    112  CD2        6.2720   -8.9300   11.6610 C.ar  118  TRP118      0.0152
    113  NE1        5.8920   -6.7230   11.7420 N.ar  118  TRP118     -0.2442
    114  CE2        6.4170   -7.7710   12.4490 C.ar  118  TRP118      0.0810
    115  CE3        6.7530  -10.1480   12.1560 C.ar  118  TRP118      0.0012
    116  CZ2        7.0170   -7.7940   13.7040 C.ar  118  TRP118      0.0191
    117  CZ3        7.3480  -10.1700   13.4040 C.ar  118  TRP118      0.0001
    118  CH2        7.4740   -9.0030   14.1650 C.ar  118  TRP118      0.0015
    119  N         10.6340  -13.0080   10.4520 N.3   121  ILE121     -0.1245
    120  CA        11.6510  -11.9810   10.3520 C.3   121  ILE121      0.1561
    121  C         12.7750  -12.4420    9.4570 C.2   121  ILE121      0.2260
    122  O         13.1920  -13.6130    9.4870 O.2   121  ILE121     -0.2867
    123  CB        12.2320  -11.6640   11.7450 C.3   121  ILE121      0.0252
    124  CG1       11.1820  -10.9640   12.5950 C.3   121  ILE121      0.0019
    125  CG2       13.4750  -10.7570   11.6450 C.3   121  ILE121      0.0019
    126  CD1       11.7660  -10.2670   13.8150 C.3   121  ILE121      0.0001
    127  N         21.8150  -16.5890   15.8580 N.3   131  ARG131     -0.1245
    128  CA        21.5980  -17.5910   16.8980 C.3   131  ARG131      0.1563
    129  C         21.4410  -18.9460   16.2200 C.2   131  ARG131      0.2260
    130  O         20.8180  -19.0180   15.1680 O.2   131  ARG131     -0.2867
    131  CB        20.3180  -17.2900   17.6820 C.3   131  ARG131      0.0307
    132  CG        20.2630  -15.9060   18.2580 C.3   131  ARG131      0.0489
    133  CD        21.4880  -15.5850   19.0680 C.3   131  ARG131      0.2205
    134  NE        21.1460  -14.6460   20.1300 N.pl3 131  ARG131     -0.0865
    135  CZ        20.7880  -15.0140   21.3590 C.cat 131  ARG131      0.5346
    136  NH1       20.7530  -16.3020   21.6890 N.pl3 131  ARG131      0.1354
    137  NH2       20.4730  -14.0970   22.2650 N.pl3 131  ARG131      0.1354
    138  N         19.2930    0.2320   11.6060 N.3   224  ASP224     -0.1225
    139  CA        18.3830   -0.8640   11.9510 C.3   224  ASP224      0.1805
    140  C         16.9440   -0.6370   11.4920 C.2   224  ASP224      0.2598
    141  O         16.2000    0.1090   12.1110 O.2   224  ASP224     -0.2718
    142  CB        18.4120   -1.1050   13.4510 C.3   224  ASP224      0.1424
    143  CG        17.6030   -2.3020   13.8560 C.2   224  ASP224      0.3668
    144  OD1       17.2180   -3.0820   12.9650 O.co2 224  ASP224     -0.2456
    145  OD2       17.3520   -2.4510   15.0640 O.co2 224  ASP224     -0.2456
    146  N         16.5670   -1.2950   10.4010 N.am  225  SER225     -0.1938
    147  CA        15.2340   -1.1730    9.8420 C.3   225  SER225      0.2055
    148  C         14.2430   -1.8180   10.7850 C.2   225  SER225      0.2644
    149  O         13.0620   -1.5160   10.7510 O.2   225  SER225     -0.2714
    150  CB        15.1690   -1.8220    8.4510 C.3   225  SER225      0.2130
    151  OG        15.4430   -3.2150    8.4960 O.3   225  SER225     -0.2179
    152  N         14.7310   -2.6850   11.6640 N.am  226  GLY226     -0.1939
    153  CA        13.8720   -3.3190   12.6520 C.3   226  GLY226      0.2014
    154  C         13.6510   -2.5360   13.9470 C.2   226  GLY226      0.2640
    155  O         13.1550   -3.0930   14.9310 O.2   226  GLY226     -0.2714
    156  N         14.0120   -1.2530   13.9540 N.am  227  THR227     -0.1936
    157  CA        13.7440   -0.3570   15.0860 C.3   227  THR227      0.2028
    158  C         13.0440    0.8360   14.5040 C.2   227  THR227      0.2642
    159  O         13.5090    1.3970   13.5420 O.2   227  THR227     -0.2714
    160  CB        15.0450    0.1580   15.7630 C.3   227  THR227      0.1808
    161  OG1       15.7130   -0.9230   16.4160 O.3   227  THR227     -0.2208
    162  CG2       14.7540    1.2910   16.7770 C.3   227  THR227      0.0379
    163  N         11.9350    1.2430   15.0900 N.am  228  THR228     -0.1950
    164  CA        11.2070    2.3930   14.5880 C.3   228  THR228      0.1897
    165  C         11.9470    3.6910   14.7980 C.2   228  THR228      0.2313
    166  O         12.1070    4.5050   13.8790 O.2   228  THR228     -0.2863
    167  CB         9.8730    2.5560   15.3360 C.3   228  THR228      0.1794
    168  OG1        9.0800    1.3920   15.1410 O.3   228  THR228     -0.2208
    169  CG2        9.1170    3.7970   14.8500 C.3   228  THR228      0.0378
    170  N         17.1930    6.0180   18.2000 N.3   231  ARG231     -0.1245
    171  CA        17.5470    5.7850   19.5990 C.3   231  ARG231      0.1563
    172  C         18.9740    6.2790   19.8700 C.2   231  ARG231      0.2260
    173  O         19.8920    6.0160   19.0870 O.2   231  ARG231     -0.2867
    174  CB        17.3920    4.3030   19.9290 C.3   231  ARG231      0.0307
    175  CG        15.9890    3.7630   19.5590 C.3   231  ARG231      0.0489
    176  CD        15.7090    2.3740   20.1620 C.3   231  ARG231      0.2205
    177  NE        15.8950    2.3890   21.6100 N.pl3 231  ARG231     -0.0865
    178  CZ        16.5880    1.4850   22.3010 C.cat 231  ARG231      0.5346
    179  NH1       17.1480    0.4400   21.6950 N.pl3 231  ARG231      0.1354
    180  NH2       16.7050    1.6160   23.6170 N.pl3 231  ARG231      0.1354
@<TRIPOS>BOND
     1    20    21    2
     2    20    19    1
     3    18    19    1
     4   150   151    1
     5   150   147    1
     6    26    27    1
     7    19    22    1
     8    17    16    2
     9   109   106    1
    10   109   110    1
    11   106   105    1
    12   106   107    1
    13    16    15    1
    14   121   122    2
    15   121   120    1
    16    28    29    2
    17    28    27    1
    18    27    30    1
    19   147   146    1
    20   147   148    1
    21    22    23    1
    22   107   108    2
    23    24    23    1
    24   120   119    1
    25   120   123    1
    26   146   140   am
    27   110   111   ar
    28   110   112   ar
    29   111   113   ar
    30    23    25    1
    31   149   148    2
    32   148   152   am
    33    30    31    1
    34    15    14    1
    35    41    40    2
    36   140   139    1
    37   140   141    2
    38   138   139    1
    39   125   123    1
    40    34    35    1
    41   112   115   ar
    42   112   114   ar
    43   152   153    1
    44    14     7   am
    45   113   114   ar
    46   123   124    1
    47   139   142    1
    48    40    39    1
    49   115   117   ar
    50    31    32   ar
    51    31    33   ar
    52     8     7    2
    53     7     6    1
    54   114   116   ar
    55   124   126    1
    56   153   154    1
    57     1     2    1
    58    38    39    1
    59    38    36   am
    60   144   143   ar
    61    35    36    1
    62    43    42    1
    63     5     6    1
    64     5     3   am
    65    39    42    1
    66     9     6    1
    67     9    10    1
    68   117   118   ar
    69    12    11    2
    70   142   143    1
    71   159   158    2
    72    36    37    2
    73   116   118   ar
    74   143   145   ar
    75   166   165    2
    76   154   156   am
    77   154   155    2
    78   156   157    1
    79     2     3    1
    80     3     4    2
    81    11    10    1
    82    11    13   am
    83   158   157    1
    84   158   163   am
    85   164   165    1
    86   164   163    1
    87   164   167    1
    88   169   167    1
    89   157   160    1
    90   168   167    1
    91   130   129    2
    92   100    99    2
    93   160   161    1
    94   160   162    1
    95    96    95   ar
    96    96    94   ar
    97   127   128    1
    98    95    93   ar
    99    85    83   ar
   100    85    84   ar
   101   129   128    1
   102    83    81   ar
   103   104   102    1
   104   101   103    1
   105   101   102    1
   106   101    98    1
   107    99    98    1
   108    84    82   ar
   109   128   131    1
   110    97    98    1
   111    94    92   ar
   112    81    80   ar
   113    81    79   ar
   114    93    91   ar
   115    80    78   ar
   116    82    79   ar
   117   131   132    1
   118    79    77   ar
   119    89    88    2
   120    92    91   ar
   121    78    77   ar
   122   170   171    1
   123    91    90    1
   124   132   133    1
   125    77    76    1
   126    88    87    1
   127   133   134    1
   128    50    48    1
   129   173   172    2
   130    76    73    1
   131    90    87    1
   132   175   174    1
   133   175   176    1
   134   171   172    1
   135   171   174    1
   136    87    86    1
   137    49    48    1
   138    48    45    1
   139   134   135    2
   140   176   177    1
   141    73    74    1
   142    73    72    1
   143    62    61    1
   144    74    75    2
   145    61    60   ar
   146    61    59   ar
   147   135   136    1
   148   135   137    1
   149    60    58   ar
   150    45    44    1
   151    45    46    1
   152    70    69    2
   153   177   178    2
   154   179   178    1
   155    59    57   ar
   156    58    56   ar
   157    71    69   am
   158    47    46    2
   159    57    56   ar
   160   178   180    1
   161    69    68    1
   162    56    55    1
   163    55    52    1
   164    68    67    1
   165    67    64    1
   166    52    51    1
   167    52    53    1
   168    53    54    2
   169    64    63    1
   170    64    65    1
   171    65    66    2
