@<TRIPOS>MOLECULE
tmp/3s7mA00.pdb
 186 177 0 0 0
SMALL
GASTEIGER

@<TRIPOS>ATOM
      1  N          5.0180    1.9890   12.9880 N.3    14  GLY14      -0.1210
      2  CA         5.5190    1.5670   14.2750 C.3    14  GLY14       0.1956
      3  C          5.6280    0.0630   14.3980 C.2    14  GLY14       0.2612
      4  O          6.0620   -0.4630   15.4130 O.2    14  GLY14      -0.2717
      5  N          5.2300   -0.6530   13.3660 N.am   15  GLN15      -0.1965
      6  CA         5.1650   -2.1160   13.4730 C.3    15  GLN15       0.1733
      7  C          6.0060   -2.8180   12.4030 C.2    15  GLN15       0.2616
      8  O          5.8220   -4.0060   12.1340 O.2    15  GLN15      -0.2715
      9  CB         3.7100   -2.5830   13.4250 C.3    15  GLN15       0.0408
     10  CG         2.8780   -2.1790   14.6590 C.3    15  GLN15       0.0908
     11  CD         1.4600   -2.6760   14.5960 C.2    15  GLN15       0.2608
     12  OE1        0.9620   -3.0120   13.5260 O.2    15  GLN15      -0.2717
     13  NE2        0.8010   -2.7390   15.7450 N.am   15  GLN15      -0.0878
     14  N          6.9200   -2.0610   11.7970 N.am   16  GLY16      -0.1955
     15  CA         7.9320   -2.6100   10.9190 C.3    16  GLY16       0.1869
     16  C          7.4310   -2.7090    9.4940 C.2    16  GLY16       0.2309
     17  O          6.2250   -2.7390    9.2770 O.2    16  GLY16      -0.2863
     18  N          9.0970   -9.5300    8.1640 N.3    33  LEU33      -0.1245
     19  CA         9.7590   -8.2760    8.5230 C.3    33  LEU33       0.1561
     20  C         11.2090   -8.2040    7.9710 C.2    33  LEU33       0.2260
     21  O         12.0270   -9.0950    8.1690 O.2    33  LEU33      -0.2867
     22  CB         9.7820   -8.1090   10.0460 C.3    33  LEU33       0.0270
     23  CG        10.4270   -6.8460   10.5850 C.3    33  LEU33       0.0019
     24  CD1        9.5130   -5.7110   10.4450 C.3    33  LEU33       0.0001
     25  CD2       10.8250   -7.0360   12.0460 C.3    33  LEU33       0.0001
     26  N         14.5320   -6.8360    8.4330 N.3    35  ASP35      -0.1239
     27  CA        15.2480   -6.3980    9.6200 C.3    35  ASP35       0.1674
     28  C         16.7510   -6.4040    9.4650 C.2    35  ASP35       0.2266
     29  O         17.3460   -7.4630    9.4450 O.2    35  ASP35      -0.2867
     30  CB        14.9330   -7.3590   10.7400 C.3    35  ASP35       0.1410
     31  CG        15.4810   -6.9100   12.0550 C.2    35  ASP35       0.3668
     32  OD1       15.9690   -5.7730   12.1420 O.co2  35  ASP35      -0.2456
     33  OD2       15.4010   -7.6820   12.9990 O.co2  35  ASP35      -0.2456
     34  N         18.7700   -5.3910   11.6080 N.3    37  GLY37      -0.1210
     35  CA        19.2920   -5.4090   12.9620 C.3    37  GLY37       0.1956
     36  C         19.4070   -6.7820   13.6100 C.2    37  GLY37       0.2612
     37  O         19.6070   -6.9010   14.8390 O.2    37  GLY37      -0.2717
     38  N         19.2300   -7.8130   12.7870 N.am   38  SER38      -0.1952
     39  CA        19.3910   -9.2110   13.1910 C.3    38  SER38       0.1924
     40  C         19.7380  -10.0380   11.9660 C.2    38  SER38       0.2314
     41  O         19.6770   -9.5600   10.8380 O.2    38  SER38      -0.2863
     42  CB        18.1390   -9.7720   13.8130 C.3    38  SER38       0.2116
     43  OG        17.0900   -9.8660   12.8570 O.3    38  SER38      -0.2180
     44  N         18.8010  -13.7850   11.6630 N.3    40  ASN40      -0.1240
     45  CA        18.1180  -15.0490   11.5110 C.3    40  ASN40       0.1653
     46  C         16.8680  -14.9100   10.6690 C.2    40  ASN40       0.2266
     47  O         16.1270  -13.9530   10.8110 O.2    40  ASN40      -0.2867
     48  CB        17.7160  -15.5930   12.8590 C.3    40  ASN40       0.1155
     49  CG        18.8310  -16.3360   13.5370 C.2    40  ASN40       0.2627
     50  OD1       19.6650  -15.7440   14.2080 O.2    40  ASN40      -0.2716
     51  ND2       18.8270  -17.6380   13.3960 N.am   40  ASN40      -0.0877
     52  N         16.3280  -17.5390   21.5270 N.3    72  VAL72      -0.1245
     53  CA        16.7700  -16.1610   21.3140 C.3    72  VAL72       0.1561
     54  C         16.1180  -15.1800   22.2570 C.2    72  VAL72       0.2260
     55  O         15.1180  -14.5570   21.9080 O.2    72  VAL72      -0.2867
     56  CB        16.5400  -15.6880   19.8860 C.3    72  VAL72       0.0252
     57  CG1       17.3230  -14.4090   19.6370 C.3    72  VAL72       0.0019
     58  CG2       17.0110  -16.7540   18.9230 C.3    72  VAL72       0.0019
     59  N         16.0540  -11.6350   24.3000 N.3    74  TYR74      -0.1241
     60  CA        16.4460  -10.2870   24.0560 C.3    74  TYR74       0.1605
     61  C         15.7200   -9.4160   25.0460 C.2    74  TYR74       0.2264
     62  O         14.8890   -9.8870   25.8110 O.2    74  TYR74      -0.2867
     63  CB        16.1840   -9.9010   22.6030 C.3    74  TYR74       0.0534
     64  CG        14.7510  -10.0050   22.0880 C.ar   74  TYR74      -0.0201
     65  CD1       13.9530   -8.8930   22.0510 C.ar   74  TYR74      -0.0009
     66  CD2       14.2350  -11.1890   21.5600 C.ar   74  TYR74      -0.0009
     67  CE1       12.6590   -8.9440   21.5620 C.ar   74  TYR74       0.0417
     68  CE2       12.9370  -11.2450   21.0660 C.ar   74  TYR74       0.0417
     69  CZ        12.1650  -10.1090   21.0770 C.ar   74  TYR74       0.1957
     70  OH        10.8830  -10.0970   20.5980 O.3    74  TYR74      -0.2866
     71  N         13.3840   -6.8960   25.3520 N.3    76  GLN76      -0.1245
     72  CA        11.9300   -6.8140   25.3780 C.3    76  GLN76       0.1566
     73  C         11.2480   -8.1870   25.5110 C.2    76  GLN76       0.2260
     74  O         10.2350   -8.3170   26.1800 O.2    76  GLN76      -0.2867
     75  CB        11.4310   -6.1330   24.0890 C.3    76  GLN76       0.0367
     76  CG        12.1780   -4.8410   23.6560 C.3    76  GLN76       0.0905
     77  CD        13.3810   -5.1050   22.7480 C.2    76  GLN76       0.2608
     78  OE1       13.9260   -6.1940   22.7350 O.2    76  GLN76      -0.2717
     79  NE2       13.7970   -4.0950   21.9900 N.am   76  GLN76      -0.0878
     80  N         12.2240  -15.3920   21.5360 N.3    79  TRP79      -0.1241
     81  CA        11.6210  -16.4110   20.6930 C.3    79  TRP79       0.1605
     82  C         12.4870  -17.6350   20.7240 C.2    79  TRP79       0.2264
     83  O         13.6650  -17.5250   20.9610 O.2    79  TRP79      -0.2867
     84  CB        11.4500  -15.9240   19.2530 C.3    79  TRP79       0.0550
     85  CG        12.7110  -15.6930   18.4520 C.ar   79  TRP79       0.0003
     86  CD1       13.4310  -14.5160   18.3520 C.ar   79  TRP79       0.0946
     87  CD2       13.3610  -16.6240   17.5860 C.ar   79  TRP79       0.0152
     88  NE1       14.4990  -14.6840   17.5110 N.ar   79  TRP79      -0.2442
     89  CE2       14.4810  -15.9650   17.0270 C.ar   79  TRP79       0.0810
     90  CE3       13.1440  -17.9680   17.2750 C.ar   79  TRP79       0.0012
     91  CZ2       15.3530  -16.5950   16.1580 C.ar   79  TRP79       0.0191
     92  CZ3       13.9980  -18.5900   16.4270 C.ar   79  TRP79       0.0001
     93  CH2       15.0990  -17.9120   15.8630 C.ar   79  TRP79       0.0015
     94  N          6.2590  -11.6980   23.5400 N.3   110  LYS110     -0.1231
     95  CA         6.2720  -10.2970   23.1120 C.3   110  LYS110      0.1693
     96  C          7.0860  -10.0770   21.8450 C.2   110  LYS110      0.2592
     97  O          7.6810   -9.0220   21.6520 O.2   110  LYS110     -0.2718
     98  CB         6.7810   -9.3920   24.2470 C.3   110  LYS110      0.0285
     99  CG         5.7680   -9.2130   25.3770 C.3   110  LYS110      0.0035
    100  CD         6.3790   -8.5570   26.5660 C.3   110  LYS110      0.0206
    101  CE         6.9250   -7.1870   26.2060 C.3   110  LYS110      0.1093
    102  NZ         7.9200   -6.6630   27.2110 N.3   110  LYS110     -0.1314
    103  N          7.0820  -11.0790   20.9700 N.am  111  PHE111     -0.1976
    104  CA         7.8120  -11.0200   19.7140 C.3   111  PHE111      0.1639
    105  C          6.8880  -10.5620   18.5740 C.2   111  PHE111      0.2290
    106  O          7.1570   -9.5600   17.8920 O.2   111  PHE111     -0.2864
    107  CB         8.4420  -12.3950   19.4450 C.3   111  PHE111      0.0560
    108  CG         9.2190  -12.4790   18.1730 C.ar  111  PHE111     -0.0200
    109  CD1       10.4870  -11.9340   18.0780 C.ar  111  PHE111     -0.0042
    110  CD2        8.6860  -13.1270   17.0700 C.ar  111  PHE111     -0.0042
    111  CE1       11.1790  -12.0230   16.9210 C.ar  111  PHE111     -0.0003
    112  CE2        9.3880  -13.2130   15.9130 C.ar  111  PHE111     -0.0003
    113  CZ        10.6400  -12.6640   15.8450 C.ar  111  PHE111     -0.0000
    114  N          3.4440   -9.0250   16.8870 N.3   113  ILE113     -0.1245
    115  CA         2.6680   -7.8520   17.1690 C.3   113  ILE113      0.1561
    116  C          1.2730   -8.0490   16.6490 C.2   113  ILE113      0.2260
    117  O          1.0650   -8.5490   15.5350 O.2   113  ILE113     -0.2867
    118  CB         3.2690   -6.6190   16.4990 C.3   113  ILE113      0.0252
    119  CG1        4.6920   -6.4510   16.9680 C.3   113  ILE113      0.0019
    120  CG2        2.4560   -5.3530   16.7920 C.3   113  ILE113      0.0019
    121  CD1        5.3320   -5.2890   16.3060 C.3   113  ILE113      0.0001
    122  N          2.7210   -9.3720    9.6550 N.3   118  TRP118     -0.1241
    123  CA         3.8280  -10.2330    9.3020 C.3   118  TRP118      0.1605
    124  C          3.8670  -11.4450   10.2260 C.2   118  TRP118      0.2264
    125  O          3.4140  -11.4220   11.3880 O.2   118  TRP118     -0.2867
    126  CB         5.1870   -9.4940    9.2640 C.3   118  TRP118      0.0550
    127  CG         5.5420   -8.6260   10.4590 C.ar  118  TRP118      0.0003
    128  CD1        5.3540   -7.2890   10.5580 C.ar  118  TRP118      0.0946
    129  CD2        6.1640   -9.0310   11.6970 C.ar  118  TRP118      0.0152
    130  NE1        5.7940   -6.8340   11.7710 N.ar  118  TRP118     -0.2442
    131  CE2        6.3030   -7.8800   12.4850 C.ar  118  TRP118      0.0810
    132  CE3        6.6130  -10.2490   12.2110 C.ar  118  TRP118      0.0012
    133  CZ2        6.8690   -7.9070   13.7600 C.ar  118  TRP118      0.0191
    134  CZ3        7.1860  -10.2690   13.4750 C.ar  118  TRP118      0.0001
    135  CH2        7.3070   -9.1160   14.2310 C.ar  118  TRP118      0.0015
    136  N         10.5250  -13.0350   10.3670 N.3   121  ILE121     -0.1245
    137  CA        11.5770  -12.0190   10.4140 C.3   121  ILE121      0.1561
    138  C         12.7460  -12.4510    9.5500 C.2   121  ILE121      0.2260
    139  O         13.1710  -13.6090    9.6020 O.2   121  ILE121     -0.2867
    140  CB        11.9590  -11.8270   11.8630 C.3   121  ILE121      0.0252
    141  CG1       10.8960  -10.9200   12.4940 C.3   121  ILE121      0.0019
    142  CG2       13.3380  -11.2750   12.0620 C.3   121  ILE121      0.0019
    143  CD1       11.3210  -10.2420   13.7710 C.3   121  ILE121      0.0001
    144  N         19.1930    0.0960   11.4240 N.3   226  ASP226     -0.1225
    145  CA        18.3000   -1.0070   11.7890 C.3   226  ASP226      0.1805
    146  C         16.8770   -0.7720   11.3510 C.2   226  ASP226      0.2598
    147  O         16.1820   -0.0320   11.9660 O.2   226  ASP226     -0.2718
    148  CB        18.3030   -1.1880   13.3070 C.3   226  ASP226      0.1424
    149  CG        17.5010   -2.4060   13.7560 C.2   226  ASP226      0.3668
    150  OD1       17.1380   -3.2140   12.8950 O.co2 226  ASP226     -0.2456
    151  OD2       17.2560   -2.5490   14.9690 O.co2 226  ASP226     -0.2456
    152  N         16.4540   -1.4070   10.2780 N.am  227  SER227     -0.1938
    153  CA        15.1120   -1.2510    9.7890 C.3   227  SER227      0.2055
    154  C         14.0990   -1.8400   10.7690 C.2   227  SER227      0.2644
    155  O         12.9210   -1.5350   10.6870 O.2   227  SER227     -0.2714
    156  CB        14.9820   -1.9270    8.4330 C.3   227  SER227      0.2130
    157  OG        15.3990   -3.2670    8.4930 O.3   227  SER227     -0.2179
    158  N         14.5690   -2.6640   11.7020 N.am  228  GLY228     -0.1939
    159  CA        13.7070   -3.3380   12.6740 C.3   228  GLY228      0.2014
    160  C         13.6410   -2.6490   14.0230 C.2   228  GLY228      0.2640
    161  O         13.2980   -3.2520   15.0570 O.2   228  GLY228     -0.2714
    162  N         13.9600   -1.3650   13.9950 N.am  229  THR229     -0.1936
    163  CA        13.6750   -0.4360   15.0860 C.3   229  THR229      0.2028
    164  C         12.9390    0.7260   14.4610 C.2   229  THR229      0.2642
    165  O         13.3140    1.2100   13.4170 O.2   229  THR229     -0.2714
    166  CB        14.9660    0.0740   15.6920 C.3   229  THR229      0.1808
    167  OG1       15.6080   -0.9840   16.4160 O.3   229  THR229     -0.2208
    168  CG2       14.7300    1.2810   16.5960 C.3   229  THR229      0.0379
    169  N         11.9110    1.2230   15.0990 N.am  230  THR230     -0.1950
    170  CA        11.1170    2.2350   14.4450 C.3   230  THR230      0.1897
    171  C         11.7890    3.5610   14.6920 C.2   230  THR230      0.2313
    172  O         11.8680    4.3900   13.8020 O.2   230  THR230     -0.2863
    173  CB         9.6670    2.2960   14.9830 C.3   230  THR230      0.1794
    174  OG1        8.9650    1.1330   14.5610 O.3   230  THR230     -0.2208
    175  CG2        8.9750    3.5440   14.4710 C.3   230  THR230      0.0378
    176  N         17.0470    5.9740   18.0310 N.3   233  ARG233     -0.1245
    177  CA        17.4200    5.7630   19.4170 C.3   233  ARG233      0.1563
    178  C         18.8520    6.2500   19.6590 C.2   233  ARG233      0.2260
    179  O         19.7540    5.9700   18.8760 O.2   233  ARG233     -0.2867
    180  CB        17.2770    4.2790   19.7550 C.3   233  ARG233      0.0307
    181  CG        15.8880    3.7410   19.4370 C.3   233  ARG233      0.0489
    182  CD        15.6470    2.3340   20.0340 C.3   233  ARG233      0.2205
    183  NE        15.7140    2.3480   21.4930 N.pl3 233  ARG233     -0.0865
    184  CZ        16.4030    1.4870   22.2410 C.cat 233  ARG233      0.5346
    185  NH1       17.0990    0.4820   21.6950 N.pl3 233  ARG233      0.1354
    186  NH2       16.3780    1.6210   23.5600 N.pl3 233  ARG233      0.1354
@<TRIPOS>BOND
     1    20    21    2
     2    20    19    1
     3    18    19    1
     4   156   157    1
     5   156   153    1
     6    26    27    1
     7    19    22    1
     8   126   123    1
     9   126   127    1
    10    17    16    2
    11   123   122    1
    12   123   124    1
    13    29    28    2
    14    28    27    1
    15    16    15    1
    16   138   139    2
    17   138   137    1
    18    27    30    1
    19   153   152    1
    20   153   154    1
    21    22    23    1
    22   124   125    2
    23   152   146   am
    24   136   137    1
    25   137   140    1
    26    24    23    1
    27   127   128   ar
    28   127   129   ar
    29   128   130   ar
    30    23    25    1
    31    46    47    2
    32    46    45    1
    33   155   154    2
    34    30    31    1
    35   154   158   am
    36    41    40    2
    37    15    14    1
    38   146   145    1
    39   146   147    2
    40   144   145    1
    41    45    44    1
    42    45    48    1
    43    34    35    1
    44   129   132   ar
    45   129   131   ar
    46   158   159    1
    47   130   131   ar
    48   145   148    1
    49    14     7   am
    50   140   142    1
    51   140   141    1
    52    40    39    1
    53    31    32   ar
    54    31    33   ar
    55     8     7    2
    56   132   134   ar
    57     7     6    1
    58   131   133   ar
    59   141   143    1
    60   159   160    1
    61    38    39    1
    62    38    36   am
    63    43    42    1
    64    48    49    1
    65   150   149   ar
    66    35    36    1
    67     1     2    1
    68    39    42    1
    69   148   149    1
    70     5     6    1
    71     5     3   am
    72    51    49   am
    73   165   164    2
    74     9     6    1
    75     9    10    1
    76   134   135   ar
    77    12    11    2
    78    49    50    2
    79    36    37    2
    80   149   151   ar
    81   133   135   ar
    82   172   171    2
    83   162   160   am
    84   162   163    1
    85   160   161    2
    86     2     3    1
    87     3     4    2
    88   170   171    1
    89   170   173    1
    90   170   169    1
    91   164   163    1
    92   164   169   am
    93   175   173    1
    94   174   173    1
    95    11    10    1
    96    11    13   am
    97   163   166    1
    98   117   116    2
    99   166   167    1
   100   166   168    1
   101   113   112   ar
   102   113   111   ar
   103    93    91   ar
   104    93    92   ar
   105   112   110   ar
   106    91    89   ar
   107   121   119    1
   108    92    90   ar
   109   118   120    1
   110   118   119    1
   111   118   115    1
   112   116   115    1
   113   114   115    1
   114   111   109   ar
   115    89    88   ar
   116    89    87   ar
   117   110   108   ar
   118    90    87   ar
   119    88    86   ar
   120    87    85   ar
   121   106   105    2
   122   176   177    1
   123   109   108   ar
   124   108   107    1
   125    86    85   ar
   126    85    84    1
   127   105   104    1
   128   179   178    2
   129    58    56    1
   130    84    81    1
   131   177   178    1
   132   177   180    1
   133   181   180    1
   134   181   182    1
   135   107   104    1
   136    57    56    1
   137   104   103    1
   138    56    53    1
   139   182   183    1
   140    70    69    1
   141    81    82    1
   142    81    80    1
   143    82    83    2
   144   103    96   am
   145    68    69   ar
   146    68    66   ar
   147    69    67   ar
   148    53    52    1
   149    53    54    1
   150   183   184    2
   151    66    64   ar
   152    67    65   ar
   153    97    96    2
   154   185   184    1
   155    96    95    1
   156    55    54    2
   157    79    77   am
   158    65    64   ar
   159    64    63    1
   160   184   186    1
   161    63    60    1
   162    78    77    2
   163    77    76    1
   164    95    94    1
   165    95    98    1
   166    76    75    1
   167    60    59    1
   168    60    61    1
   169    75    72    1
   170    98    99    1
   171    61    62    2
   172    71    72    1
   173    99   100    1
   174    72    73    1
   175    73    74    2
   176   101   100    1
   177   101   102    1
