@<TRIPOS>MOLECULE
tmp/3s7wB04.pdb
 188 181 0 0 0
SMALL
GASTEIGER

@<TRIPOS>ATOM
      1  N         14.8340   -9.3830    2.1210 N.3   112  PRO112     -0.2116
      2  CA        15.2210  -10.5700    1.3220 C.3   112  PRO112      0.1372
      3  C         14.3000  -10.7790    0.1330 C.2   112  PRO112      0.2244
      4  O         13.1110  -10.3850    0.2040 O.2   112  PRO112     -0.2868
      5  CB        15.0650  -11.7430    2.3110 C.3   112  PRO112      0.0268
      6  CG        14.1200  -11.2550    3.3840 C.3   112  PRO112      0.0207
      7  CD        14.2670   -9.7340    3.4470 C.3   112  PRO112      0.0892
      8  N         13.5210  -27.6740   10.5090 N.3   289  ASN289     -0.1240
      9  CA        13.9540  -26.6280   11.4590 C.3   289  ASN289      0.1653
     10  C         15.4850  -26.5360   11.4530 C.2   289  ASN289      0.2266
     11  O         16.0720  -25.4360   11.4900 O.2   289  ASN289     -0.2867
     12  CB        13.4840  -26.9150   12.8920 C.3   289  ASN289      0.1155
     13  CG        11.9750  -26.7300   13.0630 C.2   289  ASN289      0.2627
     14  OD1       11.3410  -25.9500   12.3250 O.2   289  ASN289     -0.2716
     15  ND2       11.3900  -27.4600   14.0210 N.am  289  ASN289     -0.0877
     16  N         17.0410  -25.4540    7.7510 N.3   292  CYS292     -0.1221
     17  CA        16.9540  -23.9990    7.4940 C.3   292  CYS292      0.1808
     18  C         17.8670  -23.2020    8.4120 C.2   292  CYS292      0.2601
     19  O         18.2810  -22.0850    8.0720 O.2   292  CYS292     -0.2717
     20  CB        15.4860  -23.4770    7.6020 C.3   292  CYS292      0.0970
     21  SG        14.2620  -24.4350    6.6530 S.3   292  CYS292     -0.0800
     22  N         18.1390  -23.7510    9.5990 N.am  293  ALA293     -0.1979
     23  CA        19.0440  -23.1150   10.5810 C.3   293  ALA293      0.1597
     24  C         20.5110  -23.1530   10.1280 C.2   293  ALA293      0.2287
     25  O         21.3890  -22.5870   10.8020 O.2   293  ALA293     -0.2864
     26  CB        18.8860  -23.7840   11.9730 C.3   293  ALA293      0.0319
     27  N         19.4260  -19.3530    8.5430 N.3   296  HIS296     -0.1241
     28  CA        18.4600  -18.4020    9.1200 C.3   296  HIS296      0.1621
     29  C         18.6660  -18.3190   10.6500 C.2   296  HIS296      0.2264
     30  O         17.7740  -18.6640   11.4380 O.2   296  HIS296     -0.2867
     31  CB        17.0020  -18.7260    8.7200 C.3   296  HIS296      0.0745
     32  CG        16.6760  -18.4190    7.2670 C.ar  296  HIS296      0.0817
     33  ND1       16.0650  -17.2430    6.8700 N.ar  296  HIS296     -0.2268
     34  CD2       16.8680  -19.1430    6.1270 C.ar  296  HIS296      0.1154
     35  CE1       15.8980  -17.2590    5.5450 C.ar  296  HIS296      0.1986
     36  NE2       16.3620  -18.4100    5.0650 N.ar  296  HIS296     -0.2212
     37  N         15.7510  -16.4170   12.8040 N.3   359  GLU359     -0.1231
     38  CA        14.4570  -17.1000   12.7540 C.3   359  GLU359      0.1699
     39  C         14.4580  -18.4130   13.5590 C.2   359  GLU359      0.2592
     40  O         13.4920  -18.7120   14.2770 O.2   359  GLU359     -0.2718
     41  CB        14.0040  -17.3460   11.3030 C.3   359  GLU359      0.0402
     42  CG        13.4840  -16.0870   10.5770 C.3   359  GLU359      0.1161
     43  CD        14.5810  -15.2400    9.9500 C.2   359  GLU359      0.3649
     44  OE1       15.5290  -15.7940    9.3790 O.co2 359  GLU359     -0.2457
     45  OE2       14.4870  -14.0020   10.0010 O.co2 359  GLU359     -0.2457
     46  N         15.5280  -19.1970   13.4600 N.am  360  ALA360     -0.1980
     47  CA        15.5490  -20.4890   14.1340 C.3   360  ALA360      0.1597
     48  C         15.4640  -20.3010   15.6760 C.2   360  ALA360      0.2287
     49  O         14.6960  -20.9850   16.3410 O.2   360  ALA360     -0.2864
     50  CB        16.8380  -21.2620   13.7810 C.3   360  ALA360      0.0319
     51  N         12.0120  -19.0960   16.7680 N.3   363  PHE363     -0.1241
     52  CA        10.9560  -20.1150   16.6630 C.3   363  PHE363      0.1605
     53  C         10.9080  -21.0600   17.8870 C.2   363  PHE363      0.2264
     54  O          9.8280  -21.5200   18.2740 O.2   363  PHE363     -0.2867
     55  CB        11.1430  -20.8950   15.3260 C.3   363  PHE363      0.0534
     56  CG        10.0260  -21.8520   15.0040 C.ar  363  PHE363     -0.0203
     57  CD1        8.7160  -21.3960   14.8780 C.ar  363  PHE363     -0.0042
     58  CD2       10.2880  -23.1960   14.7720 C.ar  363  PHE363     -0.0042
     59  CE1        7.6660  -22.2740   14.5530 C.ar  363  PHE363     -0.0003
     60  CE2        9.2430  -24.0880   14.4370 C.ar  363  PHE363     -0.0003
     61  CZ         7.9370  -23.6340   14.3450 C.ar  363  PHE363     -0.0000
     62  N          3.7510  -23.0210   17.9190 N.3   368  HIS368     -0.1241
     63  CA         3.8720  -23.9590   16.7850 C.3   368  HIS368      0.1621
     64  C          5.0580  -24.9140   16.9790 C.2   368  HIS368      0.2264
     65  O          4.9110  -26.1140   16.7750 O.2   368  HIS368     -0.2867
     66  CB         3.9430  -23.2300   15.4300 C.3   368  HIS368      0.0745
     67  CG         2.6230  -22.6540   14.9770 C.ar  368  HIS368      0.0817
     68  ND1        2.3820  -21.2930   14.9570 N.ar  368  HIS368     -0.2268
     69  CD2        1.4770  -23.2480   14.5370 C.ar  368  HIS368      0.1154
     70  CE1        1.1420  -21.0820   14.5200 C.ar  368  HIS368      0.1986
     71  NE2        0.5760  -22.2500   14.2380 N.ar  368  HIS368     -0.2212
     72  N          5.4140  -28.4210   14.8100 N.3   373  VAL373     -0.1231
     73  CA         5.3940  -27.7880   13.4830 C.3   373  VAL373      0.1692
     74  C          6.8380  -27.3470   13.1400 C.2   373  VAL373      0.2592
     75  O          7.5860  -26.9970   14.0300 O.2   373  VAL373     -0.2718
     76  CB         4.4140  -26.5860   13.4740 C.3   373  VAL373      0.0266
     77  CG1        4.2460  -25.9840   12.0460 C.3   373  VAL373      0.0020
     78  CG2        3.0540  -27.0310   14.0310 C.3   373  VAL373      0.0020
     79  N          7.2090  -27.3690   11.8550 N.am  374  ALA374     -0.1966
     80  CA         8.5660  -27.0310   11.4080 C.3   374  ALA374      0.1728
     81  C          8.4840  -26.0290   10.2480 C.2   374  ALA374      0.2616
     82  O          7.4180  -25.8810    9.6700 O.2   374  ALA374     -0.2715
     83  CB         9.2830  -28.3190   10.9500 C.3   374  ALA374      0.0334
     84  N          9.5990  -25.3620    9.9220 N.am  375  CYS375     -0.1968
     85  CA         9.6270  -24.2880    8.8930 C.3   375  CYS375      0.1712
     86  C          8.9200  -24.7420    7.6080 C.2   375  CYS375      0.2296
     87  O          8.1430  -23.9630    7.0210 O.2   375  CYS375     -0.2864
     88  CB        11.0720  -23.8860    8.4970 C.3   375  CYS375      0.0983
     89  SG        12.2960  -23.6500    9.8010 S.3   375  CYS375     -0.0798
     90  N          4.9690  -24.4990    6.8960 N.3   378  CYS378     -0.1221
     91  CA         4.4040  -23.2310    6.4740 C.3   378  CYS378      0.1808
     92  C          5.0520  -22.6560    5.2060 C.2   378  CYS378      0.2601
     93  O          4.4200  -21.8470    4.5150 O.2   378  CYS378     -0.2717
     94  CB         4.5120  -22.1850    7.6070 C.3   378  CYS378      0.0970
     95  SG         3.6120  -22.6930    9.1010 S.3   378  CYS378     -0.0800
     96  N          6.3230  -23.0040    4.9350 N.am  379  HIS379     -0.1975
     97  CA         7.0830  -22.3290    3.8810 C.3   379  HIS379      0.1656
     98  C          7.4490  -23.1910    2.6500 C.2   379  HIS379      0.2291
     99  O          7.8390  -22.6470    1.6230 O.2   379  HIS379     -0.2864
    100  CB         8.3740  -21.6750    4.4770 C.3   379  HIS379      0.0771
    101  CG         8.1190  -20.5040    5.4090 C.ar  379  HIS379      0.0820
    102  ND1        7.6290  -19.2910    4.9640 N.ar  379  HIS379     -0.2267
    103  CD2        8.3290  -20.3510    6.7460 C.ar  379  HIS379      0.1154
    104  CE1        7.5470  -18.4470    5.9930 C.ar  379  HIS379      0.1986
    105  NE2        7.9750  -19.0540    7.0880 N.ar  379  HIS379     -0.2212
    106  N          6.5090  -16.9680    1.5710 N.3   398  THR398     -0.1204
    107  CA         5.4200  -16.7430    2.5220 C.3   398  THR398      0.1979
    108  C          4.2450  -17.7160    2.3510 C.2   398  THR398      0.2460
    109  O          3.8550  -18.0430    1.2110 O.2   398  THR398     -0.2732
    110  CB         4.8720  -15.2900    2.4370 C.3   398  THR398      0.1783
    111  OG1        3.6720  -15.2140    3.2160 O.3   398  THR398     -0.2211
    112  CG2        4.5380  -14.9060    0.9520 C.3   398  THR398      0.0376
    113  N          3.6640  -18.1690    3.4790 N.am  399  PRO399     -0.2717
    114  CA         2.4460  -18.9880    3.4250 C.3   399  PRO399      0.1535
    115  C          1.2570  -18.2940    2.7290 C.2   399  PRO399      0.2598
    116  O          0.3390  -18.9880    2.2850 O.2   399  PRO399     -0.2715
    117  CB         2.1370  -19.2820    4.9130 C.3   399  PRO399      0.0310
    118  CG         2.7790  -18.1620    5.6520 C.3   399  PRO399      0.0237
    119  CD         4.0970  -17.9380    4.8680 C.3   399  PRO399      0.0939
    120  N          1.2790  -16.9570    2.6060 N.am  400  ARG400     -0.1978
    121  CA         0.1440  -16.2380    1.9710 C.3   400  ARG400      0.1597
    122  C         -0.1200  -16.7240    0.5440 C.2   400  ARG400      0.2287
    123  O         -1.2480  -16.6370    0.0680 O.2   400  ARG400     -0.2864
    124  CB         0.3660  -14.6990    1.9330 C.3   400  ARG400      0.0334
    125  CG         0.3980  -14.0140    3.3040 C.3   400  ARG400      0.0492
    126  CD         0.2990  -12.4760    3.1840 C.3   400  ARG400      0.2205
    127  NE         0.7400  -11.8930    4.4510 N.pl3 400  ARG400     -0.0865
    128  CZ        -0.0250  -11.2310    5.3190 C.cat 400  ARG400      0.5346
    129  NH1       -1.3210  -10.9750    5.0620 N.pl3 400  ARG400      0.1354
    130  NH2        0.5170  -10.8010    6.4490 N.pl3 400  ARG400      0.1354
    131  N         -1.6060  -23.4340    6.1070 N.3   407  CYS407     -0.1235
    132  CA        -2.2820  -23.0500    7.3660 C.3   407  CYS407      0.1677
    133  C         -3.6060  -23.7420    7.5730 C.2   407  CYS407      0.2270
    134  O         -3.8770  -24.2440    8.6710 O.2   407  CYS407     -0.2867
    135  CB        -2.5890  -21.5390    7.4630 C.3   407  CYS407      0.0956
    136  SG        -1.2670  -20.4150    7.2230 S.3   407  CYS407     -0.0801
    137  N         -2.5950  -13.3460   11.2760 N.3   423  ILE423     -0.1245
    138  CA        -1.1650  -13.0240   11.0050 C.3   423  ILE423      0.1561
    139  C         -0.9740  -11.4920   11.1220 C.2   423  ILE423      0.2260
    140  O         -0.0510  -11.0200   11.8040 O.2   423  ILE423     -0.2867
    141  CB        -0.7260  -13.4230    9.5710 C.3   423  ILE423      0.0252
    142  CG1       -0.8130  -14.9510    9.3620 C.3   423  ILE423      0.0019
    143  CG2        0.7140  -12.8920    9.2480 C.3   423  ILE423      0.0019
    144  CD1       -0.6880  -15.3460    7.8170 C.3   423  ILE423      0.0001
    145  N          1.6100   -9.0480   13.3500 N.3   427  LYS427     -0.1245
    146  CA         2.6130   -8.2200   12.6850 C.3   427  LYS427      0.1561
    147  C          2.3650   -6.7290   12.9610 C.2   427  LYS427      0.2260
    148  O          3.3210   -5.9950   13.2050 O.2   427  LYS427     -0.2867
    149  CB         2.6370   -8.4770   11.1730 C.3   427  LYS427      0.0271
    150  CG         2.9330   -9.9360   10.8110 C.3   427  LYS427      0.0035
    151  CD         3.0960  -10.0920    9.2680 C.3   427  LYS427      0.0206
    152  CE         4.4520   -9.5900    8.7750 C.3   427  LYS427      0.1093
    153  NZ         4.4690   -9.4880    7.2730 N.3   427  LYS427     -0.1314
    154  N         12.5940  -11.9050   10.3910 N.3   482  ASN482     -0.1225
    155  CA        11.8020  -11.5810    9.2210 C.3   482  ASN482      0.1785
    156  C         10.2890  -11.7780    9.3580 C.2   482  ASN482      0.2597
    157  O          9.5540  -11.4020    8.4550 O.2   482  ASN482     -0.2718
    158  CB        12.3390  -12.3630    8.0040 C.3   482  ASN482      0.1169
    159  CG        13.6170  -11.7630    7.4770 C.2   482  ASN482      0.2627
    160  OD1       13.5780  -10.7480    6.7660 O.2   482  ASN482     -0.2716
    161  ND2       14.7790  -12.3600    7.8500 N.am  482  ASN482     -0.0877
    162  N          9.8310  -12.3560   10.4640 N.am  483  SER483     -0.1952
    163  CA         8.3900  -12.6230   10.6130 C.3   483  SER483      0.1924
    164  C          7.5830  -11.4780   11.2300 C.2   483  SER483      0.2314
    165  O          6.3500  -11.5710   11.3300 O.2   483  SER483     -0.2863
    166  CB         8.1400  -13.9060   11.4200 C.3   483  SER483      0.2116
    167  OG         8.4470  -13.6900   12.8000 O.3   483  SER483     -0.2180
    168  N          5.6160  -12.8460   14.0930 N.3   486  PHE486     -0.1227
    169  CA         4.7140  -14.0060   13.9410 C.3   486  PHE486      0.1736
    170  C          5.3110  -15.3070   14.5050 C.2   486  PHE486      0.2595
    171  O          4.5720  -16.1210   15.1080 O.2   486  PHE486     -0.2718
    172  CB         4.2280  -14.2420   12.4810 C.3   486  PHE486      0.0547
    173  CG         3.2400  -15.3640   12.3820 C.ar  486  PHE486     -0.0202
    174  CD1        1.8860  -15.1340   12.6180 C.ar  486  PHE486     -0.0042
    175  CD2        3.6710  -16.6900   12.1600 C.ar  486  PHE486     -0.0042
    176  CE1        0.9550  -16.1890   12.5820 C.ar  486  PHE486     -0.0003
    177  CE2        2.7450  -17.7580   12.1080 C.ar  486  PHE486     -0.0003
    178  CZ         1.3880  -17.5100   12.3340 C.ar  486  PHE486     -0.0000
    179  N          6.6270  -15.5050   14.3520 N.am  487  HIS487     -0.1975
    180  CA         7.2460  -16.7710   14.7770 C.3   487  HIS487      0.1656
    181  C          7.1990  -16.9330   16.3120 C.2   487  HIS487      0.2291
    182  O          7.2720  -18.0570   16.8010 O.2   487  HIS487     -0.2864
    183  CB         8.7000  -16.8950   14.2900 C.3   487  HIS487      0.0771
    184  CG         8.8490  -17.0740   12.7870 C.ar  487  HIS487      0.0820
    185  ND1        9.9540  -16.6180   12.1030 N.ar  487  HIS487     -0.2267
    186  CD2        8.0370  -17.6470   11.8540 C.ar  487  HIS487      0.1154
    187  CE1        9.8200  -16.9060   10.8060 C.ar  487  HIS487      0.1986
    188  NE2        8.6660  -17.5470   10.6290 N.ar  487  HIS487     -0.2212
@<TRIPOS>BOND
     1   123   122    2
     2     3     4    2
     3     3     2    1
     4   122   121    1
     5   112   110    1
     6   109   108    2
     7     2     1    1
     8     2     5    1
     9   106   107    1
    10    99    98    2
    11   124   121    1
    12   124   125    1
    13   121   120    1
    14     1     7    1
    15   116   115    2
    16     5     6    1
    17   108   107    1
    18   108   113   am
    19   110   107    1
    20   110   111    1
    21   120   115   am
    22    98    97    1
    23   115   114    1
    24   126   125    1
    25   126   127    1
    26     6     7    1
    27   114   113    1
    28   114   117    1
    29   113   119    1
    30    97   100    1
    31    97    96    1
    32   127   128    2
    33   100   101    1
    34    93    92    2
    35   119   118    1
    36   117   118    1
    37    96    92   am
    38   102   101   ar
    39   102   104   ar
    40   129   128    1
    41    36    35   ar
    42    36    34   ar
    43    92    91    1
    44   128   130    1
    45   101   103   ar
    46    35    33   ar
    47   104   105   ar
    48   131   132    1
    49    34    32   ar
    50    91    90    1
    51    91    94    1
    52    21    20    1
    53   103   105   ar
    54   160   159    2
    55    33    32   ar
    56    87    86    2
    57   136   135    1
    58    32    31    1
    59   153   152    1
    60   132   135    1
    61   132   133    1
    62   159   161   am
    63   159   158    1
    64    17    20    1
    65    17    16    1
    66    17    18    1
    67   133   134    2
    68    94    95    1
    69    86    85    1
    70   144   142    1
    71   158   155    1
    72    19    18    2
    73    18    22   am
    74   157   156    2
    75    88    85    1
    76    88    89    1
    77    27    28    1
    78    31    28    1
    79   152   151    1
    80    85    84    1
    81    28    29    1
    82   155   156    1
    83   155   154    1
    84   143   141    1
    85   151   150    1
    86   156   162   am
    87   142   141    1
    88    44    43   ar
    89   141   138    1
    90    22    23    1
    91    82    81    2
    92    84    81   am
    93    43    45   ar
    94    43    42    1
    95    24    23    1
    96    24    25    2
    97    81    80    1
    98   162   163    1
    99     8     9    1
   100    42    41    1
   101    23    26    1
   102   163   164    1
   103   163   166    1
   104   188   187   ar
   105   188   186   ar
   106    29    30    2
   107   187   185   ar
   108   150   149    1
   109    83    80    1
   110   138   139    1
   111   138   137    1
   112   139   140    2
   113   149   146    1
   114   164   165    2
   115    41    38    1
   116    80    79    1
   117   166   167    1
   118    10     9    1
   119    10    11    2
   120     9    12    1
   121   186   184   ar
   122    79    74   am
   123    77    76    1
   124   185   184   ar
   125   177   175   ar
   126   177   178   ar
   127   175   173   ar
   128    14    13    2
   129   178   176   ar
   130   173   172    1
   131   173   174   ar
   132   172   169    1
   133   176   174   ar
   134   146   147    1
   135   146   145    1
   136    38    37    1
   137    38    39    1
   138   184   183    1
   139    12    13    1
   140   147   148    2
   141    13    15   am
   142    74    73    1
   143    74    75    2
   144    46    39   am
   145    46    47    1
   146    76    73    1
   147    76    78    1
   148    73    72    1
   149    39    40    2
   150    50    47    1
   151   169   168    1
   152   169   170    1
   153    47    48    1
   154    71    70   ar
   155    71    69   ar
   156   183   180    1
   157    61    60   ar
   158    61    59   ar
   159   179   170   am
   160   179   180    1
   161    60    58   ar
   162   170   171    2
   163    70    68   ar
   164    69    67   ar
   165    59    57   ar
   166    58    56   ar
   167   180   181    1
   168    57    56   ar
   169    68    67   ar
   170    67    66    1
   171    56    55    1
   172    55    52    1
   173    66    63    1
   174    48    49    2
   175   181   182    2
   176    52    51    1
   177    52    53    1
   178    65    64    2
   179    63    64    1
   180    63    62    1
   181    53    54    2
