@<TRIPOS>MOLECULE
tmp/3s7zB00.pdb
 112 105 0 0 0
SMALL
GASTEIGER

@<TRIPOS>ATOM
      1  N         32.4690   -1.7170   -9.6460 N.3    13  GLY13      -0.1225
      2  CA        32.5320   -0.2770   -9.4780 C.3    13  GLY13       0.1811
      3  C         32.5140    0.1470   -8.0040 C.2    13  GLY13       0.2280
      4  O         32.4550   -0.6860   -7.1060 O.2    13  GLY13      -0.2866
      5  N         37.8110   -0.3950  -17.8150 N.3    48  ASP48      -0.1225
      6  CA        36.6410   -1.2650  -17.8740 C.3    48  ASP48       0.1805
      7  C         37.0510   -2.6890  -18.2530 C.2    48  ASP48       0.2598
      8  O         37.7210   -2.8950  -19.2550 O.2    48  ASP48      -0.2718
      9  CB        35.6530   -0.7170  -18.9050 C.3    48  ASP48       0.1424
     10  CG        34.3300   -1.4440  -18.8750 C.2    48  ASP48       0.3668
     11  OD1       33.4270   -1.0040  -18.1350 O.co2  48  ASP48      -0.2456
     12  OD2       34.2000   -2.4680  -19.5700 O.co2  48  ASP48      -0.2456
     13  N         36.6310   -3.6660  -17.4500 N.am   49  ARG49      -0.1966
     14  CA        37.0900   -5.0500  -17.5940 C.3    49  ARG49       0.1729
     15  C         36.5060   -5.7040  -18.8380 C.2    49  ARG49       0.2616
     16  O         37.1950   -6.4310  -19.5690 O.2    49  ARG49      -0.2715
     17  CB        36.7070   -5.8660  -16.3450 C.3    49  ARG49       0.0348
     18  CG        37.5910   -5.6200  -15.1110 C.3    49  ARG49       0.0492
     19  CD        37.6660   -4.1380  -14.7180 C.3    49  ARG49       0.2205
     20  NE        36.4120   -3.6260  -14.1680 N.pl3  49  ARG49      -0.0865
     21  CZ        36.2110   -2.3580  -13.8080 C.cat  49  ARG49       0.5346
     22  NH1       35.0470   -1.9920  -13.2850 N.pl3  49  ARG49       0.1354
     23  NH2       37.1800   -1.4550  -13.9570 N.pl3  49  ARG49       0.1354
     24  N         35.2230   -5.4530  -19.0710 N.am   50  THR50      -0.1951
     25  CA        34.5530   -6.0360  -20.2130 C.3    50  THR50       0.1897
     26  C         35.0950   -5.4670  -21.5130 C.2    50  THR50       0.2313
     27  O         35.3020   -6.2160  -22.4600 O.2    50  THR50      -0.2863
     28  CB        33.0260   -5.8790  -20.1520 C.3    50  THR50       0.1794
     29  OG1       32.5170   -6.7420  -19.1310 O.3    50  THR50      -0.2208
     30  CG2       32.3970   -6.2800  -21.4800 C.3    50  THR50       0.0378
     31  N         34.9140   -7.6530   -7.6400 N.3    82  CYS82      -0.1221
     32  CA        34.5210   -7.5850   -9.0390 C.3    82  CYS82       0.1808
     33  C         34.6580   -8.9770   -9.6320 C.2    82  CYS82       0.2601
     34  O         35.7680   -9.5100   -9.6610 O.2    82  CYS82      -0.2717
     35  CB        35.4230   -6.5810   -9.7520 C.3    82  CYS82       0.0970
     36  SG        35.1450   -6.4340  -11.5340 S.3    82  CYS82      -0.0800
     37  N         33.5840   -9.5540  -10.1580 N.am   83  ASN83      -0.1960
     38  CA        33.7020  -10.8880  -10.7360 C.3    83  ASN83       0.1819
     39  C         34.5720  -10.8980  -12.0000 C.2    83  ASN83       0.2621
     40  O         35.4570  -11.7410  -12.1510 O.2    83  ASN83      -0.2715
     41  CB        32.3290  -11.4890  -11.0150 C.3    83  ASN83       0.1195
     42  CG        31.5870  -11.8610   -9.7240 C.2    83  ASN83       0.2630
     43  OD1       31.0190  -11.0030   -9.0520 O.2    83  ASN83      -0.2716
     44  ND2       31.5990  -13.1260   -9.3840 N.am   83  ASN83      -0.0877
     45  N         34.3150   -9.9640  -12.9050 N.am   84  THR84      -0.1951
     46  CA        35.0290   -9.9520  -14.1990 C.3    84  THR84       0.1897
     47  C         36.5400   -9.8380  -13.9590 C.2    84  THR84       0.2313
     48  O         37.3360  -10.4310  -14.6780 O.2    84  THR84      -0.2863
     49  CB        34.5340   -8.8060  -15.1270 C.3    84  THR84       0.1794
     50  OG1       33.1020   -8.6850  -15.0440 O.3    84  THR84      -0.2208
     51  CG2       34.9260   -9.0780  -16.5810 C.3    84  THR84       0.0378
     52  N         28.4960  -10.0710  -16.2410 N.3   122  THR122     -0.1218
     53  CA        28.8440   -9.2570  -17.4070 C.3   122  THR122      0.1862
     54  C         29.0510  -10.1540  -18.6110 C.2   122  THR122      0.2287
     55  O         29.3230  -11.3470  -18.4690 O.2   122  THR122     -0.2866
     56  CB        30.1600   -8.4690  -17.2170 C.3   122  THR122      0.1770
     57  OG1       31.2500   -9.3930  -17.0790 O.3   122  THR122     -0.2211
     58  CG2       30.0800   -7.5460  -15.9810 C.3   122  THR122      0.0375
     59  N         32.4230  -11.9300  -18.2450 N.3   125  THR125     -0.1218
     60  CA        32.4830  -13.0330  -17.2900 C.3   125  THR125      0.1862
     61  C         31.9320  -14.2740  -17.9710 C.2   125  THR125      0.2287
     62  O         32.4810  -15.3650  -17.8240 O.2   125  THR125     -0.2866
     63  CB        31.7400  -12.7040  -15.9920 C.3   125  THR125      0.1770
     64  OG1       32.4780  -11.6970  -15.2790 O.3   125  THR125     -0.2211
     65  CG2       31.5740  -13.9730  -15.1020 C.3   125  THR125      0.0375
     66  N         25.2850   -1.7110  -16.2780 N.3   157  TYR157     -0.1241
     67  CA        25.8670   -0.4180  -16.5870 C.3   157  TYR157      0.1605
     68  C         24.9660    0.7430  -16.2230 C.2   157  TYR157      0.2264
     69  O         25.4420    1.8480  -15.9790 O.2   157  TYR157     -0.2867
     70  CB        26.3880   -0.3700  -18.0340 C.3   157  TYR157      0.0534
     71  CG        27.7400   -1.0210  -18.0440 C.ar  157  TYR157     -0.0201
     72  CD1       27.8640   -2.3960  -17.8730 C.ar  157  TYR157     -0.0009
     73  CD2       28.8980   -0.2620  -18.1230 C.ar  157  TYR157     -0.0009
     74  CE1       29.1130   -3.0050  -17.8370 C.ar  157  TYR157      0.0417
     75  CE2       30.1420   -0.8560  -18.0900 C.ar  157  TYR157      0.0417
     76  CZ        30.2460   -2.2280  -17.9430 C.ar  157  TYR157      0.1957
     77  OH        31.4890   -2.8200  -17.8820 O.3   157  TYR157     -0.2866
     78  N         25.7380    1.2180  -12.7310 N.3   160  LYS160     -0.1245
     79  CA        27.0410    1.8900  -12.6870 C.3   160  LYS160      0.1561
     80  C         26.9330    3.3870  -12.9720 C.2   160  LYS160      0.2260
     81  O         27.7260    4.1810  -12.4660 O.2   160  LYS160     -0.2867
     82  CB        28.0550    1.2310  -13.6370 C.3   160  LYS160      0.0271
     83  CG        28.5980   -0.1320  -13.1500 C.3   160  LYS160      0.0035
     84  CD        29.6270   -0.7020  -14.1450 C.3   160  LYS160      0.0206
     85  CE        30.1990   -2.0370  -13.6910 C.3   160  LYS160      0.1093
     86  NZ        31.1040   -1.9070  -12.5000 N.3   160  LYS160     -0.1314
     87  N         26.4170  -12.7430  -10.1300 N.3   188  GLY188     -0.1210
     88  CA        27.7840  -13.0130  -10.5320 C.3   188  GLY188      0.1956
     89  C         28.4440  -11.7600  -11.0440 C.2   188  GLY188      0.2612
     90  O         29.3880  -11.8090  -11.8280 O.2   188  GLY188     -0.2717
     91  N         27.8600  -10.6380  -10.6640 N.am  189  CYS189     -0.1956
     92  CA        28.3980   -9.3200  -10.9320 C.3   189  CYS189      0.1843
     93  C         28.0670   -8.5590   -9.6530 C.2   189  CYS189      0.2626
     94  O         26.9540   -8.6660   -9.1400 O.2   189  CYS189     -0.2714
     95  CB        27.6680   -8.7150  -12.1170 C.3   189  CYS189      0.0997
     96  SG        27.8190   -6.9440  -12.2240 S.3   189  CYS189     -0.0797
     97  N         29.0210   -7.8030   -9.1320 N.am  190  THR190     -0.1936
     98  CA        28.8470   -7.1920   -7.8200 C.3   190  THR190      0.2028
     99  C         27.8770   -6.0000   -7.7910 C.2   190  THR190      0.2642
    100  O         27.5380   -5.5150   -6.7230 O.2   190  THR190     -0.2714
    101  CB        30.2010   -6.8250   -7.1820 C.3   190  THR190      0.1808
    102  OG1       30.9130   -5.9160   -8.0380 O.3   190  THR190     -0.2208
    103  CG2       31.0400   -8.0980   -6.9700 C.3   190  THR190      0.0379
    104  N         27.4370   -5.5090   -8.9460 N.am  191  GLU191     -0.1976
    105  CA        26.3470   -4.5260   -8.9320 C.3   191  GLU191      0.1602
    106  C         24.9770   -5.1770   -8.8390 C.2   191  GLU191      0.2287
    107  O         24.0090   -4.5340   -8.4380 O.2   191  GLU191     -0.2864
    108  CB        26.3950   -3.5890  -10.1410 C.3   191  GLU191      0.0415
    109  CG        27.4320   -2.4780   -9.9980 C.3   191  GLU191      0.1163
    110  CD        28.7590   -2.8700  -10.5870 C.2   191  GLU191      0.3649
    111  OE1       28.7820   -3.8860  -11.3190 O.co2 191  GLU191     -0.2457
    112  OE2       29.7680   -2.1730  -10.3210 O.co2 191  GLU191     -0.2457
@<TRIPOS>BOND
     1    27    26    2
     2    26    25    1
     3    30    28    1
     4    25    28    1
     5    25    24    1
     6    28    29    1
     7    12    10   ar
     8    16    15    2
     9     8     7    2
    10    24    15   am
    11     9    10    1
    12     9     6    1
    13    10    11   ar
    14    15    14    1
    15    54    55    2
    16    54    53    1
    17     7     6    1
    18     7    13   am
    19    59    60    1
    20    73    75   ar
    21    73    71   ar
    22    75    76   ar
    23    71    70    1
    24    71    72   ar
    25    70    67    1
    26    61    62    2
    27    61    60    1
    28    76    77    1
    29    76    74   ar
    30     6     5    1
    31    72    74   ar
    32    14    13    1
    33    14    17    1
    34    53    56    1
    35    53    52    1
    36    60    63    1
    37    56    57    1
    38    56    58    1
    39    67    66    1
    40    67    68    1
    41    51    49    1
    42    17    18    1
    43    68    69    2
    44    63    64    1
    45    63    65    1
    46    49    50    1
    47    49    46    1
    48    18    19    1
    49    19    20    1
    50    48    47    2
    51    46    47    1
    52    46    45    1
    53    20    21    2
    54    84    85    1
    55    84    83    1
    56    23    21    1
    57    21    22    1
    58    85    86    1
    59    82    83    1
    60    82    79    1
    61    80    79    1
    62    80    81    2
    63    45    39   am
    64    78    79    1
    65    96    95    1
    66    40    39    2
    67    95    92    1
    68    39    38    1
    69    90    89    2
    70    36    35    1
    71   111   110   ar
    72    89    91   am
    73    89    88    1
    74    41    38    1
    75    41    42    1
    76    92    91    1
    77    92    93    1
    78    38    37    1
    79   110   112   ar
    80   110   109    1
    81    88    87    1
    82    37    33   am
    83   108   109    1
    84   108   105    1
    85    35    32    1
    86    42    44   am
    87    42    43    2
    88    34    33    2
    89    93    94    2
    90    93    97   am
    91     1     2    1
    92    33    32    1
    93     2     3    1
    94    97    98    1
    95    32    31    1
    96   104   105    1
    97   104    99   am
    98   105   106    1
    99   106   107    2
   100   102   101    1
   101     3     4    2
   102    98    99    1
   103    98   101    1
   104    99   100    2
   105   101   103    1
