@<TRIPOS>MOLECULE
tmp/3s85J00.pdb
 113 105 0 0 0
SMALL
GASTEIGER

@<TRIPOS>ATOM
      1  N         10.7890   -0.8100   82.4840 N.3     8  ARG8       -0.1245
      2  CA         9.5660   -0.4340   83.1900 C.3     8  ARG8        0.1563
      3  C          9.8750    0.6600   84.2140 C.2     8  ARG8        0.2260
      4  O         10.7570    0.4820   85.0580 O.2     8  ARG8       -0.2867
      5  CB         8.9540   -1.6390   83.9070 C.3     8  ARG8        0.0307
      6  CG         8.4300   -2.7130   82.9890 C.3     8  ARG8        0.0489
      7  CD         7.7710   -3.8250   83.7740 C.3     8  ARG8        0.2205
      8  NE         7.4110   -4.9410   82.9030 N.pl3   8  ARG8       -0.0865
      9  CZ         6.7360   -6.0190   83.2910 C.cat   8  ARG8        0.5346
     10  NH1        6.4650   -6.9730   82.4110 N.pl3   8  ARG8        0.1354
     11  NH2        6.3300   -6.1460   84.5500 N.pl3   8  ARG8        0.1354
     12  N          4.5010    0.9110   89.4410 N.3    23  LEU23      -0.1245
     13  CA         4.7370    1.3320   88.0640 C.3    23  LEU23       0.1561
     14  C          4.1150    2.7030   87.8010 C.2    23  LEU23       0.2260
     15  O          2.9600    2.9500   88.1640 O.2    23  LEU23      -0.2867
     16  CB         4.1570    0.2870   87.1010 C.3    23  LEU23       0.0270
     17  CG         4.3390    0.3830   85.5800 C.3    23  LEU23       0.0019
     18  CD1        5.7800    0.1150   85.1470 C.3    23  LEU23       0.0001
     19  CD2        3.3890   -0.5930   84.8910 C.3    23  LEU23       0.0001
     20  N          2.4020    4.8050   85.4720 N.3    25  ASP25      -0.1239
     21  CA         1.6310    4.4860   84.2810 C.3    25  ASP25       0.1674
     22  C          0.7860    5.6570   83.7910 C.2    25  ASP25       0.2266
     23  O         -0.1150    6.1260   84.4890 O.2    25  ASP25      -0.2867
     24  CB         0.7480    3.2630   84.5510 C.3    25  ASP25       0.1410
     25  CG        -0.0300    2.8190   83.3330 C.2    25  ASP25       0.3668
     26  OD1        0.3310    3.2200   82.2080 O.co2  25  ASP25      -0.2456
     27  OD2       -1.0040    2.0610   83.5070 O.co2  25  ASP25      -0.2456
     28  N         -1.0100    5.3450   81.1080 N.3    27  GLY27      -0.1210
     29  CA        -2.1940    4.6950   80.5610 C.3    27  GLY27       0.1956
     30  C         -3.1940    4.2650   81.6170 C.2    27  GLY27       0.2612
     31  O         -4.0500    3.4180   81.3620 O.2    27  GLY27      -0.2717
     32  N         -3.0840    4.8490   82.8060 N.am   28  ALA28      -0.1965
     33  CA        -3.9760    4.5280   83.9100 C.3    28  ALA28       0.1728
     34  C         -4.7500    5.7580   84.3640 C.2    28  ALA28       0.2616
     35  O         -4.1620    6.7830   84.7120 O.2    28  ALA28      -0.2715
     36  CB        -3.1930    3.9360   85.0690 C.3    28  ALA28       0.0334
     37  N         -6.0730    5.6490   84.3510 N.am   29  ASP29      -0.1957
     38  CA        -6.9360    6.7080   84.8420 C.3    29  ASP29       0.1840
     39  C         -6.9200    6.7280   86.3610 C.2    29  ASP29       0.2622
     40  O         -6.9400    7.7910   86.9880 O.2    29  ASP29      -0.2715
     41  CB        -8.3660    6.4900   84.3580 C.3    29  ASP29       0.1450
     42  CG        -8.5200    6.6850   82.8670 C.2    29  ASP29       0.3671
     43  OD1       -7.5280    7.0190   82.1830 O.co2  29  ASP29      -0.2456
     44  OD2       -9.6510    6.5020   82.3800 O.co2  29  ASP29      -0.2456
     45  N         -6.8820    5.5360   86.9420 N.am   30  ASP30      -0.1971
     46  CA        -6.9480    5.3740   88.3790 C.3    30  ASP30       0.1709
     47  C         -5.6480    4.7850   88.8860 C.2    30  ASP30       0.2293
     48  O         -4.8270    4.3090   88.1010 O.2    30  ASP30      -0.2864
     49  CB        -8.1100    4.4540   88.7400 C.3    30  ASP30       0.1436
     50  CG        -9.4090    4.8580   88.0700 C.2    30  ASP30       0.3671
     51  OD1       -9.9290    5.9560   88.3650 O.co2  30  ASP30      -0.2456
     52  OD2       -9.9130    4.0650   87.2480 O.co2  30  ASP30      -0.2456
     53  N         -4.1500    1.7890   90.9580 N.3    32  VAL32      -0.1245
     54  CA        -4.5050    0.4350   91.3790 C.3    32  VAL32       0.1561
     55  C         -3.3240   -0.2450   92.0610 C.2    32  VAL32       0.2260
     56  O         -2.2210   -0.2930   91.5100 O.2    32  VAL32      -0.2867
     57  CB        -4.9530   -0.4430   90.1860 C.3    32  VAL32       0.0252
     58  CG1       -5.7180   -1.6600   90.6770 C.3    32  VAL32       0.0019
     59  CG2       -5.8080    0.3530   89.2200 C.3    32  VAL32       0.0019
     60  N        -13.0650   -1.6610   87.4200 N.3    47  ILE47      -0.1231
     61  CA       -12.1680   -0.9860   86.4810 C.3    47  ILE47       0.1692
     62  C        -11.7280   -1.9200   85.3680 C.2    47  ILE47       0.2593
     63  O        -11.4680   -3.0990   85.6040 O.2    47  ILE47      -0.2718
     64  CB       -10.9300   -0.3880   87.1720 C.3    47  ILE47       0.0266
     65  CG1      -10.3020   -1.4080   88.1290 C.3    47  ILE47       0.0019
     66  CG2      -11.3140    0.8840   87.9000 C.3    47  ILE47       0.0020
     67  CD1       -8.7970   -1.3070   88.2510 C.3    47  ILE47       0.0001
     68  N        -11.6530   -1.3770   84.1570 N.am   48  GLY48      -0.1942
     69  CA       -11.3700   -2.1660   82.9670 C.3    48  GLY48       0.2014
     70  C         -9.9380   -2.0400   82.4970 C.2    48  GLY48       0.2639
     71  O         -9.3400   -0.9610   82.5630 O.2    48  GLY48      -0.2714
     72  N         -9.3970   -3.1600   82.0260 N.am   49  GLY49      -0.1939
     73  CA        -8.0570   -3.2190   81.4540 C.3    49  GLY49       0.2014
     74  C         -8.0500   -3.9340   80.1170 C.2    49  GLY49       0.2638
     75  O         -9.1030   -4.1750   79.5220 O.2    49  GLY49      -0.2714
     76  N         -6.8580   -4.2890   79.6510 N.am   50  ILE50      -0.1977
     77  CA        -6.7090   -4.9480   78.3610 C.3    50  ILE50       0.1596
     78  C         -7.5180   -6.2470   78.2670 C.2    50  ILE50       0.2287
     79  O         -8.1320   -6.5210   77.2330 O.2    50  ILE50      -0.2864
     80  CB        -5.2140   -5.1870   78.0020 C.3    50  ILE50       0.0276
     81  CG1       -5.0200   -5.2290   76.4850 C.3    50  ILE50       0.0022
     82  CG2       -4.6660   -6.4520   78.6570 C.3    50  ILE50       0.0022
     83  CD1       -4.8930   -3.8590   75.8540 C.3    50  ILE50       0.0001
     84  N        -12.0350   -6.0530   86.4960 N.3    54  ILE54      -0.1245
     85  CA       -11.7980   -6.6490   87.8110 C.3    54  ILE54       0.1561
     86  C        -12.5210   -5.8420   88.8870 C.2    54  ILE54       0.2260
     87  O        -12.7280   -4.6370   88.7240 O.2    54  ILE54      -0.2867
     88  CB       -10.2780   -6.7550   88.1640 C.3    54  ILE54       0.0252
     89  CG1       -9.6210   -5.3690   88.2460 C.3    54  ILE54       0.0019
     90  CG2       -9.5460   -7.6690   87.1790 C.3    54  ILE54       0.0019
     91  CD1       -8.2840   -5.3450   88.9800 C.3    54  ILE54       0.0001
     92  N         -1.9700   -7.5650   88.6960 N.3    81  PRO81      -0.2102
     93  CA        -0.6270   -8.1010   88.5380 C.3    81  PRO81       0.1504
     94  C          0.4280   -7.2870   89.2940 C.2    81  PRO81       0.2575
     95  O          1.1290   -7.8330   90.1500 O.2    81  PRO81      -0.2718
     96  CB        -0.4070   -8.0160   87.0310 C.3    81  PRO81       0.0282
     97  CG        -1.7660   -8.2130   86.4620 C.3    81  PRO81       0.0208
     98  CD        -2.7090   -7.5490   87.4170 C.3    81  PRO81       0.0893
     99  N          0.5240   -5.9950   88.9900 N.am   82  VAL82      -0.1980
    100  CA         1.5220   -5.1240   89.6210 C.3    82  VAL82       0.1595
    101  C          0.8810   -3.8650   90.2130 C.2    82  VAL82       0.2287
    102  O         -0.2570   -3.5350   89.8850 O.2    82  VAL82      -0.2864
    103  CB         2.6870   -4.7460   88.6460 C.3    82  VAL82       0.0276
    104  CG1        3.4190   -5.9990   88.1590 C.3    82  VAL82       0.0022
    105  CG2        2.1850   -3.9200   87.4650 C.3    82  VAL82       0.0022
    106  N          0.1880   -0.1080   90.4090 N.3    84  ILE84      -0.1245
    107  CA         0.1090    0.8620   89.3160 C.3    84  ILE84       0.1561
    108  C         -0.2800    2.2720   89.7740 C.2    84  ILE84       0.2260
    109  O         -1.3620    2.4810   90.3260 O.2    84  ILE84      -0.2867
    110  CB        -0.8690    0.3710   88.2180 C.3    84  ILE84       0.0252
    111  CG1       -0.3310   -0.9010   87.5550 C.3    84  ILE84       0.0019
    112  CG2       -1.1160    1.4630   87.1720 C.3    84  ILE84       0.0019
    113  CD1       -1.3980   -1.7590   86.8810 C.3    84  ILE84       0.0001
@<TRIPOS>BOND
     1    83    81    1
     2    81    80    1
     3    79    78    2
     4    80    77    1
     5    80    82    1
     6    78    77    1
     7    77    76    1
     8    75    74    2
     9    76    74   am
    10    74    73    1
    11    29    28    1
    12    29    30    1
    13    31    30    2
    14    73    72    1
    15    30    32   am
    16    72    70   am
    17    43    42   ar
    18    26    25   ar
    19    44    42   ar
    20    10     9    1
    21     1     2    1
    22    70    71    2
    23    70    69    1
    24    32    33    1
    25    42    41    1
    26     8     9    2
    27     8     7    1
    28    69    68    1
    29     6     7    1
    30     6     5    1
    31     2     5    1
    32     2     3    1
    33     9    11    1
    34    25    27   ar
    35    25    24    1
    36    22    21    1
    37    22    23    2
    38    33    34    1
    39    33    36    1
    40    68    62   am
    41     3     4    2
    42    21    24    1
    43    21    20    1
    44    37    34   am
    45    37    38    1
    46    41    38    1
    47    34    35    2
    48    38    39    1
    49    19    17    1
    50    18    17    1
    51    62    63    2
    52    62    61    1
    53    17    16    1
    54    39    45   am
    55    39    40    2
    56    97    96    1
    57    97    98    1
    58    61    64    1
    59    61    60    1
    60    84    85    1
    61   113   111    1
    62    45    46    1
    63    96    93    1
    64    16    13    1
    65   112   110    1
    66    64    66    1
    67    64    65    1
    68    90    88    1
    69    52    50   ar
    70    98    92    1
    71   105   103    1
    72   111   110    1
    73    14    13    1
    74    14    15    2
    75    85    88    1
    76    85    86    1
    77    13    12    1
    78    50    51   ar
    79    50    49    1
    80    48    47    2
    81    65    67    1
    82   104   103    1
    83    88    89    1
    84   110   107    1
    85    89    91    1
    86    46    49    1
    87    46    47    1
    88    93    92    1
    89    93    94    1
    90   103   100    1
    91    87    86    2
    92    99    94   am
    93    99   100    1
    94    59    57    1
    95    94    95    2
    96   107   108    1
    97   107   106    1
    98   100   101    1
    99   108   109    2
   100   102   101    2
   101    57    58    1
   102    57    54    1
   103    53    54    1
   104    54    55    1
   105    56    55    2
