@<TRIPOS>MOLECULE
tmp/3s86A00.pdb
 159 152 0 0 0
SMALL
GASTEIGER

@<TRIPOS>ATOM
      1  N          1.7640    6.7640  -13.9010 N.3    10  ASN10      -0.1240
      2  CA         1.6810    5.6230  -13.0080 C.3    10  ASN10       0.1653
      3  C          2.1750    4.3460  -13.6910 C.2    10  ASN10       0.2266
      4  O          1.5380    3.8700  -14.6340 O.2    10  ASN10      -0.2867
      5  CB         0.2380    5.4510  -12.4850 C.3    10  ASN10       0.1155
      6  CG         0.1460    4.5050  -11.2770 C.2    10  ASN10       0.2627
      7  OD1        0.8680    3.5170  -11.1940 O.2    10  ASN10      -0.2716
      8  ND2       -0.7540    4.8160  -10.3370 N.am   10  ASN10      -0.0877
      9  N         -0.1320    1.1980  -13.4970 N.3    13  LYS13      -0.1245
     10  CA        -1.1470    1.3550  -14.5310 C.3    13  LYS13       0.1561
     11  C         -0.6510    0.9210  -15.9270 C.2    13  LYS13       0.2260
     12  O         -1.3880    0.2340  -16.6650 O.2    13  LYS13      -0.2867
     13  CB        -1.6390    2.7980  -14.5720 C.3    13  LYS13       0.0271
     14  CG        -2.5370    3.2020  -13.3830 C.3    13  LYS13       0.0035
     15  CD        -3.4220    4.3220  -13.8350 C.3    13  LYS13       0.0206
     16  CE        -3.9670    5.1490  -12.6670 C.3    13  LYS13       0.1093
     17  NZ        -4.3940    6.4920  -13.1530 N.3    13  LYS13      -0.1314
     18  N         -5.8010   18.2220  -12.7180 N.3    38  GLU38      -0.1245
     19  CA        -6.8250   17.1920  -12.4410 C.3    38  GLU38       0.1567
     20  C         -7.9210   17.6960  -11.5100 C.2    38  GLU38       0.2260
     21  O         -8.1020   17.2040  -10.3930 O.2    38  GLU38      -0.2867
     22  CB        -6.1760   15.9000  -11.9250 C.3    38  GLU38       0.0388
     23  CG        -5.5310   15.0440  -13.0540 C.3    38  GLU38       0.1160
     24  CD        -4.4090   14.0860  -12.5850 C.2    38  GLU38       0.3649
     25  OE1       -4.6750   13.1550  -11.7810 O.co2  38  GLU38      -0.2457
     26  OE2       -3.2470   14.2670  -13.0670 O.co2  38  GLU38      -0.2457
     27  N         -6.9860   14.3460  -19.1730 N.3    50  LYS50      -0.1245
     28  CA        -5.6770   13.7910  -19.4230 C.3    50  LYS50       0.1561
     29  C         -5.5620   13.3860  -20.8840 C.2    50  LYS50       0.2260
     30  O         -4.6010   13.7210  -21.5280 O.2    50  LYS50      -0.2867
     31  CB        -5.3710   12.5870  -18.5010 C.3    50  LYS50       0.0271
     32  CG        -5.3630   12.9470  -17.0000 C.3    50  LYS50       0.0035
     33  CD        -4.8260   11.8200  -16.1280 C.3    50  LYS50       0.0206
     34  CE        -5.8900   10.8970  -15.6300 C.3    50  LYS50       0.1093
     35  NZ        -5.4330   10.2980  -14.3030 N.3    50  LYS50      -0.1314
     36  N         -8.3910    7.4830  -15.5830 N.3    66  ASP66      -0.1225
     37  CA        -8.5710    8.0370  -14.2120 C.3    66  ASP66       0.1805
     38  C         -9.4290    7.1360  -13.2870 C.2    66  ASP66       0.2598
     39  O        -10.5250    6.7100  -13.6490 O.2    66  ASP66      -0.2718
     40  CB        -9.1550    9.4600  -14.1790 C.3    66  ASP66       0.1424
     41  CG        -8.8770   10.1670  -12.8460 C.2    66  ASP66       0.3668
     42  OD1       -7.6830   10.4520  -12.5780 O.co2  66  ASP66      -0.2456
     43  OD2       -9.8230   10.4970  -12.0660 O.co2  66  ASP66      -0.2456
     44  N         -8.9410    6.9500  -12.0790 N.am   67  SER67      -0.1938
     45  CA        -9.3410    5.8770  -11.2170 C.3    67  SER67       0.2058
     46  C         -9.3000    6.2400   -9.7470 C.2    67  SER67       0.2682
     47  O         -8.4370    7.0000   -9.3200 O.2    67  SER67      -0.2710
     48  CB        -8.3200    4.7810  -11.3450 C.3    67  SER67       0.2130
     49  OG        -8.7610    3.9810  -12.3190 O.3    67  SER67      -0.2179
     50  N        -10.1570    5.5920   -8.9480 N.am   68  GLY68      -0.1729
     51  CA        -9.9220    5.5810   -7.5030 C.2    68  GLY68       0.1340
     52  C        -10.9130    4.7450   -6.6830 C.2    68  GLY68       0.2521
     53  O        -11.7500    3.9990   -7.2530 O.2    68  GLY68      -0.2816
     54  N        -12.0920   10.9870   -6.3130 N.3    80  VAL80      -0.1245
     55  CA       -11.0450   11.6580   -7.1400 C.3    80  VAL80       0.1561
     56  C         -9.8690   12.1410   -6.2870 C.2    80  VAL80       0.2260
     57  O         -8.8210   12.4100   -6.8180 O.2    80  VAL80      -0.2867
     58  CB       -11.6110   12.8280   -7.9600 C.3    80  VAL80       0.0252
     59  CG1      -12.8120   12.3080   -8.9150 C.3    80  VAL80       0.0019
     60  CG2      -12.1240   13.9900   -6.9830 C.3    80  VAL80       0.0019
     61  N         -8.3970   10.1850   -4.2490 N.3    82  SER82      -0.1202
     62  CA        -7.7380    8.9320   -3.8650 C.3    82  SER82       0.2020
     63  C         -6.2200    8.9570   -3.6550 C.2    82  SER82       0.2618
     64  O         -5.7240    8.3590   -2.6690 O.2    82  SER82      -0.2717
     65  CB        -8.1070    7.8080   -4.8350 C.3    82  SER82       0.2103
     66  OG        -9.3860    7.2890   -4.5230 O.3    82  SER82      -0.2182
     67  N         -5.5120    9.6000   -4.5730 N.am   83  ALA83      -0.1979
     68  CA        -4.0730    9.8650   -4.4830 C.3    83  ALA83       0.1597
     69  C         -3.7240   11.0300   -3.5820 C.2    83  ALA83       0.2287
     70  O         -2.8060   10.9280   -2.7430 O.2    83  ALA83      -0.2864
     71  CB        -3.4740   10.1270   -5.9430 C.3    83  ALA83       0.0319
     72  N          0.6090    4.5180    1.6880 N.3    91  TYR91      -0.1241
     73  CA        -0.6540    3.8910    1.4970 C.3    91  TYR91       0.1605
     74  C         -1.0570    3.1420    2.7600 C.2    91  TYR91       0.2264
     75  O         -2.2560    3.0600    3.0850 O.2    91  TYR91      -0.2867
     76  CB        -0.7010    3.0300    0.2420 C.3    91  TYR91       0.0534
     77  CG        -1.1510    3.9230   -0.9090 C.ar   91  TYR91      -0.0201
     78  CD1       -2.5080    4.2780   -1.0560 C.ar   91  TYR91      -0.0009
     79  CD2       -0.2180    4.5180   -1.7730 C.ar   91  TYR91      -0.0009
     80  CE1       -2.9210    5.1230   -2.0450 C.ar   91  TYR91       0.0417
     81  CE2       -0.6380    5.3710   -2.7940 C.ar   91  TYR91       0.0417
     82  CZ        -1.9940    5.6470   -2.9320 C.ar   91  TYR91       0.1957
     83  OH        -2.4090    6.4950   -3.9210 O.3    91  TYR91      -0.2866
     84  N        -13.8540    0.1190   -6.6590 N.3   111  PHE111     -0.1241
     85  CA       -12.7960    0.8590   -7.3970 C.3   111  PHE111      0.1605
     86  C        -13.4980    1.1710   -8.7040 C.2   111  PHE111      0.2264
     87  O        -14.1940    0.3250   -9.2440 O.2   111  PHE111     -0.2867
     88  CB       -11.5770    0.0120   -7.7000 C.3   111  PHE111      0.0534
     89  CG       -10.5910   -0.1300   -6.5690 C.ar  111  PHE111     -0.0203
     90  CD1       -9.9050    0.9650   -6.0960 C.ar  111  PHE111     -0.0042
     91  CD2      -10.2810   -1.4170   -6.0390 C.ar  111  PHE111     -0.0042
     92  CE1       -8.9340    0.8410   -5.0230 C.ar  111  PHE111     -0.0003
     93  CE2       -9.2620   -1.5700   -5.0260 C.ar  111  PHE111     -0.0003
     94  CZ        -8.6110   -0.4650   -4.5260 C.ar  111  PHE111     -0.0000
     95  N         -1.1010   -2.2470   -5.7750 N.3   146  PHE146     -0.1227
     96  CA        -0.6180   -0.9440   -5.3940 C.3   146  PHE146      0.1736
     97  C         -1.7360   -0.1920   -4.6950 C.2   146  PHE146      0.2596
     98  O         -2.8760   -0.6620   -4.6780 O.2   146  PHE146     -0.2718
     99  CB        -0.0730   -0.1830   -6.6350 C.3   146  PHE146      0.0547
    100  CG        -1.1290    0.3070   -7.5850 C.ar  146  PHE146     -0.0202
    101  CD1       -1.7100   -0.5390   -8.5290 C.ar  146  PHE146     -0.0042
    102  CD2       -1.5010    1.6650   -7.5690 C.ar  146  PHE146     -0.0042
    103  CE1       -2.6940   -0.0680   -9.4290 C.ar  146  PHE146     -0.0003
    104  CE2       -2.4670    2.1700   -8.4700 C.ar  146  PHE146     -0.0003
    105  CZ        -3.0820    1.2860   -9.3930 C.ar  146  PHE146     -0.0000
    106  N         -1.3910    0.9300   -4.0820 N.am  147  GLY147     -0.1942
    107  CA        -2.3740    1.8260   -3.4790 C.3   147  GLY147      0.2014
    108  C         -3.2150    1.1410   -2.4280 C.2   147  GLY147      0.2639
    109  O         -2.7070    0.6160   -1.4440 O.2   147  GLY147     -0.2714
    110  N         -4.5210    1.1480   -2.6380 N.am  148  TYR148     -0.1959
    111  CA        -5.4710    0.6530   -1.6050 C.3   148  TYR148      0.1771
    112  C         -5.7830   -0.8180   -1.7450 C.2   148  TYR148      0.2619
    113  O         -6.6530   -1.3300   -1.0480 O.2   148  TYR148     -0.2715
    114  CB        -6.8260    1.3960   -1.7020 C.3   148  TYR148      0.0574
    115  CG        -6.7360    2.8700   -1.4460 C.ar  148  TYR148     -0.0198
    116  CD1       -6.5840    3.3500   -0.1510 C.ar  148  TYR148     -0.0009
    117  CD2       -6.7790    3.7900   -2.4950 C.ar  148  TYR148     -0.0009
    118  CE1       -6.4970    4.7110    0.1150 C.ar  148  TYR148      0.0417
    119  CE2       -6.7060    5.1610   -2.2360 C.ar  148  TYR148      0.0417
    120  CZ        -6.5610    5.6080   -0.9290 C.ar  148  TYR148      0.1957
    121  OH        -6.5000    6.9490   -0.6300 O.3   148  TYR148     -0.2866
    122  N         -5.1180   -1.4950   -2.6530 N.am  149  ASP149     -0.1971
    123  CA        -5.4060   -2.9190   -2.9180 C.3   149  ASP149      0.1709
    124  C         -5.2450   -3.7920   -1.6790 C.2   149  ASP149      0.2293
    125  O         -6.0300   -4.6930   -1.4890 O.2   149  ASP149     -0.2864
    126  CB        -4.4720   -3.4930   -4.0050 C.3   149  ASP149      0.1436
    127  CG        -4.8670   -3.1110   -5.4080 C.2   149  ASP149      0.3671
    128  OD1       -6.0660   -2.9130   -5.6940 O.co2 149  ASP149     -0.2456
    129  OD2       -3.9450   -3.0640   -6.2510 O.co2 149  ASP149     -0.2456
    130  N         -6.7820   -9.1810  -10.4230 N.3   168  LYS168     -0.1245
    131  CA        -7.0260   -7.8200  -11.0110 C.3   168  LYS168      0.1561
    132  C         -7.1700   -7.8450  -12.5120 C.2   168  LYS168      0.2260
    133  O         -8.1290   -7.2680  -13.0560 O.2   168  LYS168     -0.2867
    134  CB        -5.9440   -6.8090  -10.5940 C.3   168  LYS168      0.0271
    135  CG        -6.1360   -6.4070   -9.1260 C.3   168  LYS168      0.0035
    136  CD        -5.1830   -5.3110   -8.6600 C.3   168  LYS168      0.0206
    137  CE        -5.5000   -3.9930   -9.3520 C.3   168  LYS168      0.1093
    138  NZ        -4.5970   -2.9110   -8.9060 N.3   168  LYS168     -0.1314
    139  N        -11.6490   -2.9690  -11.9950 N.3   173  HIS173     -0.1226
    140  CA       -12.2490   -1.8390  -12.7440 C.3   173  HIS173      0.1752
    141  C        -11.4670   -1.4460  -14.0300 C.2   173  HIS173      0.2595
    142  O        -12.0400   -1.1610  -15.0600 O.2   173  HIS173     -0.2718
    143  CB       -12.2970   -0.6290  -11.7990 C.3   173  HIS173      0.0759
    144  CG       -10.9810   -0.2960  -11.1840 C.ar  173  HIS173      0.0818
    145  ND1      -10.1920   -1.2300  -10.5570 N.ar  173  HIS173     -0.2268
    146  CD2      -10.3440    0.8870  -11.0390 C.ar  173  HIS173      0.1154
    147  CE1       -9.1010   -0.6460  -10.0930 C.ar  173  HIS173      0.1986
    148  NE2       -9.1730    0.6430  -10.3760 N.ar  173  HIS173     -0.2212
    149  N        -10.1480   -1.3800  -13.9090 N.am  174  ARG174     -0.1980
    150  CA        -9.2350   -0.9990  -14.9860 C.3   174  ARG174      0.1597
    151  C         -9.3080   -2.0650  -16.0690 C.2   174  ARG174      0.2287
    152  O         -9.4730   -1.7290  -17.2470 O.2   174  ARG174     -0.2864
    153  CB        -7.8130   -0.8940  -14.4300 C.3   174  ARG174      0.0334
    154  CG        -6.6890   -0.5140  -15.4340 C.3   174  ARG174      0.0492
    155  CD        -5.4350   -0.0690  -14.6510 C.3   174  ARG174      0.2205
    156  NE        -5.8020    1.1190  -13.8850 N.pl3 174  ARG174     -0.0865
    157  CZ        -5.9600    1.1520  -12.5630 C.cat 174  ARG174      0.5346
    158  NH1       -5.6800    0.0810  -11.8220 N.pl3 174  ARG174      0.1354
    159  NH2       -6.3510    2.2660  -11.9850 N.pl3 174  ARG174      0.1354
@<TRIPOS>BOND
     1    30    29    2
     2    29    28    1
     3    28    27    1
     4    28    31    1
     5    31    32    1
     6   152   151    2
     7    32    33    1
     8    12    11    2
     9    33    34    1
    10   151   150    1
    11    11    10    1
    12    34    35    1
    13    36    37    1
    14   154   155    1
    15   154   153    1
    16   142   141    2
    17   150   153    1
    18   150   149    1
    19   155   156    1
    20     4     3    2
    21    13    10    1
    22    13    14    1
    23    10     9    1
    24    37    40    1
    25    37    38    1
    26    40    41    1
    27   141   149   am
    28   141   140    1
    29     1     2    1
    30   156   157    2
    31    15    14    1
    32    15    16    1
    33     3     2    1
    34    39    38    2
    35    38    44   am
    36    17    16    1
    37    26    24   ar
    38   133   132    2
    39    23    24    1
    40    23    22    1
    41     2     5    1
    42    41    42   ar
    43    41    43   ar
    44   140   139    1
    45   140   143    1
    46    18    19    1
    47    24    25   ar
    48   157   159    1
    49   157   158    1
    50   132   131    1
    51     5     6    1
    52    19    22    1
    53    19    20    1
    54    49    48    1
    55    44    45    1
    56   143   144    1
    57    20    21    2
    58    48    45    1
    59     6     7    2
    60     6     8   am
    61    45    46    1
    62   144   146   ar
    63   144   145   ar
    64   146   148   ar
    65   131   134    1
    66   131   130    1
    67   134   135    1
    68   145   147   ar
    69   148   147   ar
    70    46    47    2
    71    46    50    1
    72   103   105   ar
    73   103   101   ar
    74   105   104   ar
    75   137   138    1
    76   137   136    1
    77    87    86    2
    78   135   136    1
    79    50    51    2
    80    59    58    1
    81    86    85    1
    82   101   100   ar
    83   104   102   ar
    84    58    55    1
    85    58    60    1
    86    88    85    1
    87    88    89    1
    88   100   102   ar
    89   100    99    1
    90    51    52    1
    91    85    84    1
    92    53    52    2
    93    55    54    1
    94    55    56    1
    95    57    56    2
    96    99    96    1
    97    89    90   ar
    98    89    91   ar
    99   129   127   ar
   100    90    92   ar
   101    91    93   ar
   102    71    68    1
   103    95    96    1
   104   128   127   ar
   105   127   126    1
   106    96    97    1
   107    93    94   ar
   108    92    94   ar
   109    65    66    1
   110    65    62    1
   111    97    98    2
   112    97   106   am
   113    67    68    1
   114    67    63   am
   115    68    69    1
   116    61    62    1
   117   106   107    1
   118   126   123    1
   119    83    82    1
   120    62    63    1
   121    63    64    2
   122    69    70    2
   123   107   108    1
   124    82    81   ar
   125    82    80   ar
   126   123   122    1
   127   123   124    1
   128    81    79   ar
   129   122   112   am
   130   110   108   am
   131   110   111    1
   132   117   119   ar
   133   117   115   ar
   134   108   109    2
   135   119   120   ar
   136    80    78   ar
   137    79    77   ar
   138   112   111    1
   139   112   113    2
   140   114   111    1
   141   114   115    1
   142   124   125    2
   143   115   116   ar
   144    78    77   ar
   145   120   121    1
   146   120   118   ar
   147    77    76    1
   148   116   118   ar
   149    76    73    1
   150    73    72    1
   151    73    74    1
   152    74    75    2
