@<TRIPOS>MOLECULE
tmp/3s87A01.pdb
 154 147 0 0 0
SMALL
GASTEIGER

@<TRIPOS>ATOM
      1  N         29.5210   52.9550   22.0770 N.3   126  ALA126     -0.1231
      2  CA        28.4130   53.1570   21.1180 C.3   126  ALA126      0.1694
      3  C         28.0070   54.6210   21.0020 C.2   126  ALA126      0.2593
      4  O         28.2190   55.4180   21.9230 O.2   126  ALA126     -0.2718
      5  CB        27.2190   52.2910   21.5040 C.3   126  ALA126      0.0304
      6  N         27.4170   54.9650   19.8660 N.am  127  SER127     -0.1939
      7  CA        27.0610   56.3440   19.5480 C.3   127  SER127      0.2040
      8  C         26.5100   57.2060   20.6910 C.2   127  SER127      0.2485
      9  O         27.0190   58.3050   20.8840 O.2   127  SER127     -0.2729
     10  CB        26.1250   56.4000   18.3390 C.3   127  SER127      0.2129
     11  OG        26.8210   56.0210   17.1680 O.3   127  SER127     -0.2179
     12  N         25.4830   56.7300   21.4340 N.am  128  PRO128     -0.2726
     13  CA        24.9190   57.5640   22.4930 C.3   128  PRO128      0.1402
     14  C         25.8990   57.8820   23.5890 C.2   128  PRO128      0.2269
     15  O         25.8000   58.9550   24.1960 O.2   128  PRO128     -0.2865
     16  CB        23.7850   56.7130   23.0850 C.3   128  PRO128      0.0296
     17  CG        23.4940   55.6600   22.0860 C.3   128  PRO128      0.0237
     18  CD        24.6940   55.4980   21.2060 C.3   128  PRO128      0.0939
     19  N         22.0680   52.6200   24.4390 N.3   142  SER142     -0.1202
     20  CA        21.7170   52.4320   23.0490 C.3   142  SER142      0.2020
     21  C         20.3950   51.6890   22.8400 C.2   142  SER142      0.2619
     22  O         19.7220   51.8760   21.8050 O.2   142  SER142     -0.2717
     23  CB        22.8210   51.6090   22.3740 C.3   142  SER142      0.2103
     24  OG        23.9450   52.3970   22.0650 O.3   142  SER142     -0.2182
     25  N         20.0350   50.8420   23.7960 N.am  143  CYS143     -0.1969
     26  CA        18.9640   49.8680   23.5940 C.3   143  CYS143      0.1712
     27  C         17.9490   49.8870   24.7180 C.2   143  CYS143      0.2296
     28  O         18.3250   49.9560   25.8940 O.2   143  CYS143     -0.2864
     29  CB        19.5600   48.4430   23.5190 C.3   143  CYS143      0.0983
     30  SG        20.9170   48.3180   22.3570 S.3   143  CYS143     -0.0798
     31  N         17.1550   59.4370   22.7010 N.3   170  ALA170     -0.1231
     32  CA        17.9950   58.8050   21.7210 C.3   170  ALA170      0.1694
     33  C         18.2460   57.2870   21.7220 C.2   170  ALA170      0.2593
     34  O         18.9860   56.7970   20.9310 O.2   170  ALA170     -0.2718
     35  CB        19.2250   59.5410   21.5150 C.3   170  ALA170      0.0304
     36  N         17.6050   56.4960   22.5270 N.am  171  GLY171     -0.1942
     37  CA        17.6620   55.0720   22.1990 C.3   171  GLY171      0.2014
     38  C         16.9700   54.4720   20.9710 C.2   171  GLY171      0.2639
     39  O         16.0760   55.0440   20.4190 O.2   171  GLY171     -0.2714
     40  N         17.3510   53.2720   20.5820 N.am  172  GLY172     -0.1954
     41  CA        16.4750   52.4310   19.8000 C.3   172  GLY172      0.1869
     42  C         15.6160   51.4550   20.5830 C.2   172  GLY172      0.2309
     43  O         15.9880   51.0420   21.6400 O.2   172  GLY172     -0.2863
     44  N         14.5940   61.8160   18.3830 N.3   213  GLN213     -0.1245
     45  CA        15.7990   61.7000   19.2050 C.3   213  GLN213      0.1566
     46  C         16.4310   63.0250   19.6840 C.2   213  GLN213      0.2260
     47  O         17.6470   63.1240   19.8580 O.2   213  GLN213     -0.2867
     48  CB        16.8050   60.7850   18.5020 C.3   213  GLN213      0.0367
     49  CG        16.1070   59.5200   17.9750 C.3   213  GLN213      0.0905
     50  CD        17.0500   58.3850   17.7220 C.2   213  GLN213      0.2608
     51  OE1       17.9730   58.1500   18.5070 O.2   213  GLN213     -0.2717
     52  NE2       16.8110   57.6440   16.6320 N.am  213  GLN213     -0.0878
     53  N         17.4930   62.4680   14.7460 N.3   218  ARG218     -0.1231
     54  CA        17.3440   61.2870   13.8990 C.3   218  ARG218      0.1679
     55  C         15.9280   60.7510   14.0890 C.2   218  ARG218      0.2434
     56  O         15.4550   60.7020   15.2330 O.2   218  ARG218     -0.2733
     57  CB        18.2990   60.1700   14.3470 C.3   218  ARG218      0.0321
     58  CG        19.5700   60.0020   13.5520 C.3   218  ARG218      0.0489
     59  CD        20.3190   58.6920   13.9210 C.3   218  ARG218      0.2205
     60  NE        20.4140   58.4280   15.3720 N.pl3 218  ARG218     -0.0865
     61  CZ        21.1190   57.4290   15.9240 C.cat 218  ARG218      0.5346
     62  NH1       21.8280   56.5960   15.1620 N.pl3 218  ARG218      0.1354
     63  NH2       21.1310   57.2630   17.2460 N.pl3 218  ARG218      0.1354
     64  N         15.2670   60.2960   12.9980 N.am  219  PRO219     -0.2729
     65  CA        13.9560   59.6680   13.2150 C.3   219  PRO219      0.1401
     66  C         14.0100   58.5830   14.2990 C.2   219  PRO219      0.2269
     67  O         14.9900   57.8190   14.3760 O.2   219  PRO219     -0.2865
     68  CB        13.6050   59.0620   11.8400 C.3   219  PRO219      0.0296
     69  CG        14.3360   59.9490   10.8430 C.3   219  PRO219      0.0237
     70  CD        15.6240   60.3800   11.5680 C.3   219  PRO219      0.0939
     71  N         13.3130   55.0990   16.0560 N.3   221  ALA221     -0.1245
     72  CA        13.6420   53.8060   15.4630 C.3   221  ALA221      0.1562
     73  C         13.1360   52.6610   16.3530 C.2   221  ALA221      0.2260
     74  O         13.7510   52.3750   17.3890 O.2   221  ALA221     -0.2867
     75  CB        15.1410   53.7080   15.2670 C.3   221  ALA221      0.0290
     76  N         15.5240   43.2690   20.3630 N.3   351  ASN351     -0.1225
     77  CA        15.5950   44.7320   20.3110 C.3   351  ASN351      0.1785
     78  C         15.6310   45.2300   18.8900 C.2   351  ASN351      0.2597
     79  O         15.3520   44.4680   17.9730 O.2   351  ASN351     -0.2718
     80  CB        16.7980   45.2470   21.1180 C.3   351  ASN351      0.1169
     81  CG        18.1240   44.9700   20.4270 C.2   351  ASN351      0.2627
     82  OD1       18.4360   43.8140   20.1620 O.2   351  ASN351     -0.2716
     83  ND2       18.9060   46.0390   20.1190 N.am  351  ASN351     -0.0877
     84  N         15.9820   46.4940   18.7040 N.am  352  LEU352     -0.1966
     85  CA        15.9960   47.0800   17.3690 C.3   352  LEU352      0.1728
     86  C         16.9200   46.3250   16.3830 C.2   352  LEU352      0.2616
     87  O         16.5980   46.1680   15.1980 O.2   352  LEU352     -0.2715
     88  CB        16.3340   48.5700   17.4300 C.3   352  LEU352      0.0311
     89  CG        16.3210   49.2230   16.0350 C.3   352  LEU352      0.0022
     90  CD1       14.9370   49.2090   15.3820 C.3   352  LEU352      0.0001
     91  CD2       16.9330   50.6160   16.0390 C.3   352  LEU352      0.0001
     92  N         18.0610   45.8400   16.8660 N.am  353  CYS353     -0.1968
     93  CA        18.9870   45.1980   15.9700 C.3   353  CYS353      0.1712
     94  C         19.2690   43.7700   16.3090 C.2   353  CYS353      0.2296
     95  O         20.2490   43.2120   15.8270 O.2   353  CYS353     -0.2864
     96  CB        20.2940   45.9810   15.9090 C.3   353  CYS353      0.0983
     97  SG        20.0940   47.6820   15.4040 S.3   353  CYS353     -0.0798
     98  N         20.3780   41.9940   18.8590 N.3   355  GLU355     -0.1245
     99  CA        21.5530   41.4720   19.5910 C.3   355  GLU355      0.1567
    100  C         21.2420   41.3450   21.0600 C.2   355  GLU355      0.2260
    101  O         21.8150   40.4830   21.7260 O.2   355  GLU355     -0.2867
    102  CB        22.8450   42.2950   19.3300 C.3   355  GLU355      0.0388
    103  CG        22.9500   43.6530   20.0620 C.3   355  GLU355      0.1160
    104  CD        22.2190   44.8030   19.3540 C.2   355  GLU355      0.3649
    105  OE1       22.7610   45.9320   19.3590 O.co2 355  GLU355     -0.2457
    106  OE2       21.1160   44.5910   18.7860 O.co2 355  GLU355     -0.2457
    107  N         26.5730   49.7050   25.3850 N.3   370  LEU370     -0.1245
    108  CA        27.3730   48.9790   24.3990 C.3   370  LEU370      0.1561
    109  C         28.7300   49.5860   24.1300 C.2   370  LEU370      0.2260
    110  O         28.9190   50.8030   24.2430 O.2   370  LEU370     -0.2867
    111  CB        26.6650   48.8900   23.0480 C.3   370  LEU370      0.0270
    112  CG        25.1870   48.5550   22.8870 C.3   370  LEU370      0.0019
    113  CD1       24.9270   47.8730   21.5720 C.3   370  LEU370      0.0001
    114  CD2       24.6040   47.7750   24.0730 C.3   370  LEU370      0.0001
    115  N         27.0510   43.7620   18.1730 N.3   531  MET531     -0.1231
    116  CA        26.1090   44.6590   17.5150 C.3   531  MET531      0.1687
    117  C         26.5880   45.0740   16.1050 C.2   531  MET531      0.2434
    118  O         27.7450   44.8110   15.7480 O.2   531  MET531     -0.2733
    119  CB        25.9070   45.8950   18.4120 C.3   531  MET531      0.0400
    120  CG        27.1560   46.8020   18.6540 C.3   531  MET531      0.0596
    121  SD        28.3960   46.1490   19.8680 S.3   531  MET531     -0.1393
    122  CE        29.6010   45.7570   18.6950 C.3   531  MET531      0.0692
    123  N         25.7180   45.7380   15.3010 N.am  532  PRO532     -0.2718
    124  CA        26.1200   46.0700   13.9320 C.3   532  PRO532      0.1535
    125  C         27.2830   47.0330   13.8090 C.2   532  PRO532      0.2599
    126  O         27.9410   47.0470   12.7480 O.2   532  PRO532     -0.2715
    127  CB        24.8490   46.6820   13.2970 C.3   532  PRO532      0.0310
    128  CG        23.7100   46.2010   14.1570 C.3   532  PRO532      0.0237
    129  CD        24.3020   46.0470   15.5530 C.3   532  PRO532      0.0939
    130  N         27.5270   47.8430   14.8430 N.am  533  THR533     -0.1937
    131  CA        28.5490   48.8720   14.7820 C.3   533  THR533      0.2028
    132  C         28.4010   49.6730   13.4720 C.2   533  THR533      0.2642
    133  O         29.3840   50.1260   12.8860 O.2   533  THR533     -0.2714
    134  CB        29.9810   48.2750   14.8950 C.3   533  THR533      0.1808
    135  OG1       30.3170   47.5500   13.7030 O.3   533  THR533     -0.2208
    136  CG2       30.0830   47.3280   16.0700 C.3   533  THR533      0.0379
    137  N         27.1550   49.8540   13.0330 N.am  534  ALA534     -0.1963
    138  CA        26.8570   50.4980   11.7690 C.3   534  ALA534      0.1728
    139  C         27.4890   51.8620   11.6660 C.2   534  ALA534      0.2617
    140  O         27.8330   52.2910   10.5700 O.2   534  ALA534     -0.2715
    141  CB        25.3520   50.5970   11.5620 C.3   534  ALA534      0.0334
    142  N         27.6250   52.5610   12.7940 N.am  535  SER535     -0.1936
    143  CA        28.2650   53.8810   12.7980 C.3   535  SER535      0.2055
    144  C         29.6800   53.8660   13.3900 C.2   535  SER535      0.2643
    145  O         30.6090   54.4130   12.8020 O.2   535  SER535     -0.2714
    146  CB        27.3910   54.9370   13.5000 C.3   535  SER535      0.2130
    147  OG        26.3740   55.4240   12.6320 O.3   535  SER535     -0.2179
    148  N         29.8390   53.2450   14.5550 N.am  536  THR536     -0.1950
    149  CA        31.1310   53.2710   15.2450 C.3   536  THR536      0.1897
    150  C         32.2570   52.6030   14.4380 C.2   536  THR536      0.2313
    151  O         33.3920   53.0410   14.5310 O.2   536  THR536     -0.2863
    152  CB        31.0570   52.6900   16.6680 C.3   536  THR536      0.1794
    153  OG1       30.3330   51.4450   16.6570 O.3   536  THR536     -0.2208
    154  CG2       30.3690   53.6870   17.6240 C.3   536  THR536      0.0378
@<TRIPOS>BOND
     1   140   139    2
     2    69    70    1
     3    69    68    1
     4   141   138    1
     5    70    64    1
     6   139   138    1
     7   139   142   am
     8   138   137    1
     9    68    65    1
    10   147   146    1
    11   126   125    2
    12   142   143    1
    13   143   144    1
    14   143   146    1
    15   145   144    2
    16   133   132    2
    17    64    65    1
    18    64    55   am
    19   137   132   am
    20    65    66    1
    21   127   124    1
    22   127   128    1
    23   144   148   am
    24   132   131    1
    25    58    59    1
    26    58    57    1
    27   135   134    1
    28   125   124    1
    29   125   130   am
    30    54    55    1
    31    54    57    1
    32    54    53    1
    33    59    60    1
    34   124   123    1
    35    55    56    2
    36   128   129    1
    37    66    67    2
    38   150   151    2
    39   150   149    1
    40   148   149    1
    41   131   130    1
    42   131   134    1
    43   134   136    1
    44    62    61    1
    45    87    86    2
    46   149   152    1
    47    75    72    1
    48   123   129    1
    49   123   117   am
    50    60    61    2
    51    90    89    1
    52    97    96    1
    53    72    71    1
    54    72    73    1
    55   118   117    2
    56    95    94    2
    57    96    93    1
    58    61    63    1
    59    93    94    1
    60    93    92    1
    61    89    91    1
    62    89    88    1
    63   117   116    1
    64    73    74    2
    65    86    92   am
    66    86    85    1
    67    52    50   am
    68   153   152    1
    69   152   154    1
    70    11    10    1
    71    85    88    1
    72    85    84    1
    73   116   115    1
    74   116   119    1
    75    50    49    1
    76    50    51    2
    77    79    78    2
    78    49    48    1
    79    10     7    1
    80    44    45    1
    81   119   120    1
    82    48    45    1
    83   120   121    1
    84   122   121    1
    85    84    78   am
    86   106   104   ar
    87    98    99    1
    88    78    77    1
    89    45    46    1
    90   102    99    1
    91   102   103    1
    92   104   105   ar
    93   104   103    1
    94     7     6    1
    95     7     8    1
    96    99   100    1
    97    46    47    2
    98    41    40    1
    99    41    42    1
   100     6     3   am
   101    83    81   am
   102    82    81    2
   103    77    76    1
   104    77    80    1
   105    39    38    2
   106    81    80    1
   107    40    38   am
   108    42    43    2
   109     8     9    2
   110     8    12   am
   111    34    33    2
   112    38    37    1
   113     3     2    1
   114     3     4    2
   115   100   101    2
   116     2     5    1
   117     2     1    1
   118    18    12    1
   119    18    17    1
   120    12    13    1
   121    35    32    1
   122   113   112    1
   123    32    33    1
   124    32    31    1
   125    33    36   am
   126    22    21    2
   127    24    23    1
   128    17    16    1
   129    37    36    1
   130    30    29    1
   131    23    20    1
   132    13    16    1
   133    13    14    1
   134    21    20    1
   135    21    25   am
   136   112   111    1
   137   112   114    1
   138   111   108    1
   139    20    19    1
   140    29    26    1
   141    14    15    2
   142    26    25    1
   143    26    27    1
   144   109   110    2
   145   109   108    1
   146   108   107    1
   147    27    28    2
