@<TRIPOS>MOLECULE
tmp/3s87A00.pdb
 122 118 0 0 0
SMALL
GASTEIGER

@<TRIPOS>ATOM
      1  N         -3.5250   45.1770   27.4050 N.3   151  ASP151     -0.1225
      2  CA        -4.4760   45.1150   26.2870 C.3   151  ASP151      0.1805
      3  C         -5.7190   46.0330   26.4590 C.2   151  ASP151      0.2598
      4  O         -6.8560   45.5610   26.6180 O.2   151  ASP151     -0.2718
      5  CB        -4.9190   43.6770   26.0800 C.3   151  ASP151      0.1424
      6  CG        -5.7560   43.5140   24.8360 C.2   151  ASP151      0.3668
      7  OD1       -6.6050   42.6190   24.7970 O.co2 151  ASP151     -0.2456
      8  OD2       -5.5570   44.2780   23.8810 O.co2 151  ASP151     -0.2456
      9  N         -5.4760   47.3360   26.4320 N.am  152  SER152     -0.1938
     10  CA        -6.4700   48.3640   26.7350 C.3   152  SER152      0.2055
     11  C         -5.9080   49.6530   26.1870 C.2   152  SER152      0.2643
     12  O         -4.6920   49.7610   25.9890 O.2   152  SER152     -0.2714
     13  CB        -6.6790   48.5220   28.2360 C.3   152  SER152      0.2130
     14  OG        -5.5360   49.1070   28.8260 O.3   152  SER152     -0.2179
     15  N         -6.7990   50.6200   25.9490 N.am  153  ILE153     -0.1963
     16  CA        -6.4500   51.9220   25.4070 C.3   153  ILE153      0.1727
     17  C         -5.5840   52.6330   26.4390 C.2   153  ILE153      0.2616
     18  O         -4.6790   53.4140   26.1110 O.2   153  ILE153     -0.2715
     19  CB        -7.7230   52.7530   25.0520 C.3   153  ILE153      0.0290
     20  CG1       -8.5230   52.0800   23.9550 C.3   153  ILE153      0.0022
     21  CG2       -7.3710   54.1920   24.6070 C.3   153  ILE153      0.0023
     22  CD1       -7.8720   52.1150   22.5400 C.3   153  ILE153      0.0001
     23  N         -5.8310   52.3370   27.6920 N.am  154  GLU154     -0.1977
     24  CA        -5.0560   52.9840   28.7220 C.3   154  GLU154      0.1602
     25  C         -3.6050   52.4970   28.6610 C.2   154  GLU154      0.2287
     26  O         -2.6870   53.3140   28.7750 O.2   154  GLU154     -0.2864
     27  CB        -5.6540   52.7330   30.1070 C.3   154  GLU154      0.0415
     28  CG        -5.2600   53.8020   31.1580 C.3   154  GLU154      0.1163
     29  CD        -5.6260   53.4300   32.5970 C.2   154  GLU154      0.3649
     30  OE1       -6.1390   52.2980   32.8240 O.co2 154  GLU154     -0.2457
     31  OE2       -5.3850   54.2780   33.5030 O.co2 154  GLU154     -0.2457
     32  N         -2.0670   50.7990   26.0870 N.3   156  ILE156     -0.1245
     33  CA        -1.5250   51.1060   24.7700 C.3   156  ILE156      0.1561
     34  C         -0.9420   52.5140   24.7230 C.2   156  ILE156      0.2260
     35  O          0.1540   52.7130   24.1730 O.2   156  ILE156     -0.2867
     36  CB        -2.5760   50.9510   23.6830 C.3   156  ILE156      0.0252
     37  CG1       -2.9570   49.4750   23.5450 C.3   156  ILE156      0.0019
     38  CG2       -2.0750   51.5220   22.3650 C.3   156  ILE156      0.0019
     39  CD1       -4.1670   49.2200   22.6310 C.3   156  ILE156      0.0001
     40  N         -1.9130   42.1670   22.4300 N.3   180  ILE180     -0.1231
     41  CA        -3.0010   43.0150   21.8830 C.3   180  ILE180      0.1692
     42  C         -4.0250   42.1640   21.1080 C.2   180  ILE180      0.2591
     43  O         -3.6740   41.4900   20.1230 O.2   180  ILE180     -0.2718
     44  CB        -2.4440   44.1110   20.9650 C.3   180  ILE180      0.0266
     45  CG1       -1.5530   45.0860   21.7450 C.3   180  ILE180      0.0019
     46  CG2       -3.5730   44.8650   20.2200 C.3   180  ILE180      0.0020
     47  CD1       -2.1570   45.6330   23.0050 C.3   180  ILE180      0.0001
     48  N         -5.2900   42.1960   21.5300 N.am  181  ARG181     -0.1980
     49  CA        -6.3150   41.3710   20.8430 C.3   181  ARG181      0.1597
     50  C         -6.3740   41.6850   19.3640 C.2   181  ARG181      0.2287
     51  O         -6.1920   42.8340   18.9990 O.2   181  ARG181     -0.2864
     52  CB        -7.6990   41.4660   21.4860 C.3   181  ARG181      0.0334
     53  CG        -8.3320   42.8710   21.5670 C.3   181  ARG181      0.0492
     54  CD        -9.5780   42.8350   22.4600 C.3   181  ARG181      0.2205
     55  NE        -9.2460   43.0370   23.8620 N.pl3 181  ARG181     -0.0865
     56  CZ       -10.1150   43.2820   24.8470 C.cat 181  ARG181      0.5346
     57  NH1      -11.4270   43.3250   24.6040 N.pl3 181  ARG181      0.1354
     58  NH2       -9.6570   43.4880   26.0850 N.pl3 181  ARG181      0.1354
     59  N        -13.8600   41.0490   20.3680 N.3   186  TYR186     -0.1227
     60  CA       -14.9170   41.7650   21.0340 C.3   186  TYR186      0.1736
     61  C        -14.3260   42.7590   22.0350 C.2   186  TYR186      0.2595
     62  O        -13.3290   42.4810   22.6860 O.2   186  TYR186     -0.2718
     63  CB       -15.8520   40.7510   21.7310 C.3   186  TYR186      0.0548
     64  CG       -17.0110   41.3600   22.5430 C.ar  186  TYR186     -0.0200
     65  CD1      -17.1470   41.1160   23.9210 C.ar  186  TYR186     -0.0009
     66  CD2      -17.9630   42.1700   21.9230 C.ar  186  TYR186     -0.0009
     67  CE1      -18.2360   41.6770   24.6640 C.ar  186  TYR186      0.0417
     68  CE2      -19.0220   42.7350   22.6290 C.ar  186  TYR186      0.0417
     69  CZ       -19.1680   42.4850   23.9810 C.ar  186  TYR186      0.1957
     70  OH       -20.2350   43.0780   24.6350 O.3   186  TYR186     -0.2866
     71  N        -14.9810   43.9150   22.1590 N.am  187  ILE187     -0.1966
     72  CA       -14.6050   44.9280   23.1210 C.3   187  ILE187      0.1727
     73  C        -15.8030   45.1240   24.0550 C.2   187  ILE187      0.2616
     74  O        -16.8680   45.6010   23.6270 O.2   187  ILE187     -0.2715
     75  CB       -14.2250   46.2530   22.4040 C.3   187  ILE187      0.0290
     76  CG1      -13.0390   46.0380   21.4490 C.3   187  ILE187      0.0022
     77  CG2      -13.9740   47.3690   23.4310 C.3   187  ILE187      0.0023
     78  CD1      -12.6800   47.2700   20.5960 C.3   187  ILE187      0.0001
     79  N        -15.6460   44.7320   25.3100 N.am  188  ALA188     -0.1963
     80  CA       -16.8010   44.6750   26.2360 C.3   188  ALA188      0.1728
     81  C        -17.3430   46.0340   26.7020 C.2   188  ALA188      0.2617
     82  O        -18.5610   46.2360   26.7480 O.2   188  ALA188     -0.2715
     83  CB       -16.5130   43.7820   27.4390 C.3   188  ALA188      0.0334
     84  N        -16.4460   46.9660   27.0420 N.am  189  GLY189     -0.1940
     85  CA       -16.8770   48.2320   27.6260 C.3   189  GLY189      0.2014
     86  C        -17.8330   49.0010   26.7120 C.2   189  GLY189      0.2639
     87  O        -18.6240   49.8060   27.1900 O.2   189  GLY189     -0.2714
     88  N        -17.7760   48.7390   25.4070 N.am  190  THR190     -0.1950
     89  CA       -18.5830   49.4880   24.4330 C.3   190  THR190      0.1897
     90  C        -19.3660   48.6140   23.4290 C.2   190  THR190      0.2313
     91  O        -19.9220   49.1160   22.4640 O.2   190  THR190     -0.2863
     92  CB       -17.6750   50.4090   23.6350 C.3   190  THR190      0.1794
     93  OG1      -16.6910   49.6110   22.9810 O.3   190  THR190     -0.2208
     94  CG2      -16.9800   51.4270   24.5590 C.3   190  THR190      0.0378
     95  N        -15.9990   46.1490   18.4230 N.3   193  THR193     -0.1203
     96  CA       -15.2010   45.1610   17.6830 C.3   193  THR193      0.1994
     97  C        -13.8230   45.7550   17.3730 C.2   193  THR193      0.2619
     98  O        -13.7350   46.8870   16.8930 O.2   193  THR193     -0.2717
     99  CB       -16.0080   44.6920   16.4230 C.3   193  THR193      0.1784
    100  OG1      -16.6980   43.4580   16.7270 O.3   193  THR193     -0.2211
    101  CG2      -15.1660   44.4980   15.2160 C.3   193  THR193      0.0376
    102  N        -12.7480   45.0140   17.6860 N.am  194  SER194     -0.1937
    103  CA       -11.3980   45.5420   17.5000 C.3   194  SER194      0.2055
    104  C        -10.9830   45.5440   16.0410 C.2   194  SER194      0.2643
    105  O        -11.3890   44.6760   15.2690 O.2   194  SER194     -0.2714
    106  CB       -10.3690   44.7550   18.3270 C.3   194  SER194      0.2130
    107  OG        -9.0390   45.0090   17.8800 O.3   194  SER194     -0.2179
    108  N        -10.1480   46.5060   15.6710 N.am  195  ASN195     -0.1971
    109  CA        -9.5340   46.5040   14.3340 C.3   195  ASN195      0.1688
    110  C         -8.1170   45.9690   14.3170 C.2   195  ASN195      0.2292
    111  O         -7.4430   46.0640   13.3030 O.2   195  ASN195     -0.2864
    112  CB        -9.5430   47.8970   13.7300 C.3   195  ASN195      0.1181
    113  CG       -10.9080   48.2870   13.2330 C.2   195  ASN195      0.2629
    114  OD1      -11.3520   49.4270   13.4290 O.2   195  ASN195     -0.2716
    115  ND2      -11.5970   47.3370   12.5770 N.am  195  ASN195     -0.0877
    116  N         -3.9600   49.4880   12.8410 N.3   199  PRO199     -0.2116
    117  CA        -4.2570   50.8700   13.2590 C.3   199  PRO199      0.1372
    118  C         -3.5020   51.2960   14.5300 C.2   199  PRO199      0.2244
    119  O         -3.2180   52.4810   14.7180 O.2   199  PRO199     -0.2868
    120  CB        -5.7650   50.8470   13.5070 C.3   199  PRO199      0.0268
    121  CG        -6.2800   49.7420   12.6380 C.3   199  PRO199      0.0207
    122  CD        -5.1900   48.7130   12.5700 C.3   199  PRO199      0.0892
@<TRIPOS>BOND
     1   122   121    1
     2   122   116    1
     3   115   113   am
     4   121   120    1
     5   116   117    1
     6   113   114    2
     7   113   112    1
     8   117   120    1
     9   117   118    1
    10   111   110    2
    11   112   109    1
    12   110   109    1
    13   109   108    1
    14   118   119    2
    15   101    99    1
    16   105   104    2
    17   108   104   am
    18   104   103    1
    19    99   100    1
    20    99    96    1
    21    98    97    2
    22    97    96    1
    23    97   102   am
    24   103   102    1
    25   103   106    1
    26    96    95    1
    27   107   106    1
    28    51    50    2
    29    50    49    1
    30    43    42    2
    31    46    44    1
    32    59    60    1
    33    78    76    1
    34    49    52    1
    35    49    48    1
    36    44    45    1
    37    44    41    1
    38    60    63    1
    39    60    61    1
    40    42    48   am
    41    42    41    1
    42    76    75    1
    43    52    53    1
    44    53    54    1
    45    63    64    1
    46    45    47    1
    47    41    40    1
    48    66    64   ar
    49    66    68   ar
    50    61    71   am
    51    61    62    2
    52    71    72    1
    53    38    36    1
    54    75    72    1
    55    75    77    1
    56    54    55    1
    57    91    90    2
    58    22    20    1
    59    64    65   ar
    60    68    69   ar
    61    39    37    1
    62    93    92    1
    63    72    73    1
    64    90    89    1
    65    37    36    1
    66    74    73    2
    67    92    89    1
    68    92    94    1
    69    36    33    1
    70    55    56    2
    71     8     6   ar
    72    65    67   ar
    73    20    19    1
    74    69    70    1
    75    69    67   ar
    76    73    79   am
    77    35    34    2
    78    89    88    1
    79    57    56    1
    80    21    19    1
    81    34    33    1
    82    33    32    1
    83     7     6   ar
    84     6     5    1
    85    56    58    1
    86    19    16    1
    87    79    80    1
    88    16    15    1
    89    16    17    1
    90    88    86   am
    91    15    11   am
    92    12    11    2
    93     5     2    1
    94    18    17    2
    95    11    10    1
    96    80    81    1
    97    80    83    1
    98     2     3    1
    99     2     1    1
   100     9     3   am
   101     9    10    1
   102    17    23   am
   103     3     4    2
   104    81    82    2
   105    81    84   am
   106    86    87    2
   107    86    85    1
   108    10    13    1
   109    84    85    1
   110    23    24    1
   111    13    14    1
   112    25    24    1
   113    25    26    2
   114    24    27    1
   115    27    28    1
   116    28    29    1
   117    29    30   ar
   118    29    31   ar
