@<TRIPOS>MOLECULE
tmp/3s8cA01.pdb
 174 169 0 0 0
SMALL
GASTEIGER

@<TRIPOS>ATOM
      1  N         29.7840   64.0860   14.8060 N.3    82  TYR82      -0.1241
      2  CA        30.2020   63.8100   16.1880 C.3    82  TYR82       0.1605
      3  C         30.7730   64.9910   16.9490 C.2    82  TYR82       0.2264
      4  O         30.2880   65.2980   18.0240 O.2    82  TYR82      -0.2867
      5  CB        31.1580   62.6240   16.2570 C.3    82  TYR82       0.0534
      6  CG        30.5210   61.3290   15.8760 C.ar   82  TYR82      -0.0201
      7  CD1       30.1730   61.0700   14.5420 C.ar   82  TYR82      -0.0009
      8  CD2       30.2390   60.3610   16.8370 C.ar   82  TYR82      -0.0009
      9  CE1       29.5720   59.9110   14.1750 C.ar   82  TYR82       0.0417
     10  CE2       29.6280   59.1640   16.4700 C.ar   82  TYR82       0.0417
     11  CZ        29.3090   58.9570   15.1300 C.ar   82  TYR82       0.1957
     12  OH        28.7330   57.7820   14.7380 O.3    82  TYR82      -0.2866
     13  N         29.9580   53.1800   21.7670 N.3   128  ALA128     -0.1231
     14  CA        28.9540   53.3220   20.7210 C.3   128  ALA128      0.1694
     15  C         28.5720   54.7950   20.4870 C.2   128  ALA128      0.2593
     16  O         28.8990   55.6680   21.2770 O.2   128  ALA128     -0.2718
     17  CB        27.7590   52.5340   21.0630 C.3   128  ALA128      0.0304
     18  N         27.8960   55.0920   19.3910 N.am  129  SER129     -0.1939
     19  CA        27.7030   56.4810   19.0530 C.3   129  SER129      0.2040
     20  C         27.0000   57.3080   20.1230 C.2   129  SER129      0.2485
     21  O         27.4230   58.4270   20.3860 O.2   129  SER129     -0.2729
     22  CB        27.0190   56.6080   17.7040 C.3   129  SER129      0.2129
     23  OG        27.9430   56.1550   16.7360 O.3   129  SER129     -0.2179
     24  N         25.9240   56.7940   20.7260 N.am  130  PRO130     -0.2726
     25  CA        25.2330   57.6060   21.7250 C.3   130  PRO130      0.1402
     26  C         26.1300   58.0850   22.8620 C.2   130  PRO130      0.2269
     27  O         25.9830   59.2000   23.3310 O.2   130  PRO130     -0.2865
     28  CB        24.1480   56.6550   22.2520 C.3   130  PRO130      0.0296
     29  CG        23.8860   55.7280   21.1010 C.3   130  PRO130      0.0237
     30  CD        25.2440   55.5120   20.5020 C.3   130  PRO130      0.0939
     31  N         28.2830   60.8300   21.3360 N.3   133  PHE133     -0.1241
     32  CA        27.4540   62.0340   21.2800 C.3   133  PHE133      0.1605
     33  C         27.2640   62.7380   22.6130 C.2   133  PHE133      0.2264
     34  O         27.3310   63.9740   22.6570 O.2   133  PHE133     -0.2867
     35  CB        26.0610   61.7020   20.7750 C.3   133  PHE133      0.0534
     36  CG        26.0090   61.2900   19.3450 C.ar  133  PHE133     -0.0203
     37  CD1       25.0450   60.3630   18.9150 C.ar  133  PHE133     -0.0042
     38  CD2       26.8570   61.8400   18.4140 C.ar  133  PHE133     -0.0042
     39  CE1       24.9400   59.9780   17.5740 C.ar  133  PHE133     -0.0003
     40  CE2       26.7650   61.4530   17.0350 C.ar  133  PHE133     -0.0003
     41  CZ        25.8190   60.5140   16.6380 C.ar  133  PHE133     -0.0000
     42  N         22.4450   52.5470   23.6110 N.3   144  SER144     -0.1202
     43  CA        22.1630   52.3240   22.2020 C.3   144  SER144      0.2020
     44  C         20.7990   51.7250   21.9170 C.2   144  SER144      0.2619
     45  O         20.2500   51.9490   20.8570 O.2   144  SER144     -0.2717
     46  CB        23.2450   51.4860   21.5480 C.3   144  SER144      0.2103
     47  OG        24.4560   52.1990   21.5830 O.3   144  SER144     -0.2182
     48  N         20.2370   50.9770   22.8490 N.am  145  CYS145     -0.1969
     49  CA        18.9500   50.3320   22.5780 C.3   145  CYS145      0.1712
     50  C         18.0810   50.0600   23.7840 C.2   145  CYS145      0.2296
     51  O         18.5660   49.7740   24.9020 O.2   145  CYS145     -0.2864
     52  CB        19.1510   49.0340   21.8230 C.3   145  CYS145      0.0983
     53  SG        20.7820   48.4020   22.1550 S.3   145  CYS145     -0.0798
     54  N         19.0640   59.6660   21.5430 N.3   172  ALA172     -0.1231
     55  CA        19.8140   58.6340   20.8500 C.3   172  ALA172      0.1694
     56  C         19.3060   57.2740   21.2610 C.2   172  ALA172      0.2593
     57  O         18.7850   57.1330   22.3390 O.2   172  ALA172     -0.2718
     58  CB        21.3090   58.7530   21.1780 C.3   172  ALA172      0.0304
     59  N         19.4660   56.2790   20.3990 N.am  173  GLY173     -0.1942
     60  CA        19.0370   54.9260   20.7010 C.3   173  GLY173      0.2014
     61  C         17.9380   54.3800   19.7890 C.2   173  GLY173      0.2639
     62  O         17.1200   55.1440   19.2490 O.2   173  GLY173     -0.2714
     63  N         17.9530   53.0470   19.6290 N.am  174  GLY174     -0.1954
     64  CA        16.9910   52.3000   18.8490 C.3   174  GLY174      0.1869
     65  C         16.0210   51.5640   19.7350 C.2   174  GLY174      0.2309
     66  O         16.2970   51.3080   20.9160 O.2   174  GLY174     -0.2863
     67  N         20.0160   64.0150   14.2560 N.3   218  ASN218     -0.1225
     68  CA        19.7380   62.7800   13.4890 C.3   218  ASN218      0.1785
     69  C         20.2570   61.5800   14.2870 C.2   218  ASN218      0.2597
     70  O         20.6010   60.5230   13.7290 O.2   218  ASN218     -0.2718
     71  CB        20.3510   62.8240   12.0740 C.3   218  ASN218      0.1169
     72  CG        19.8100   63.9890   11.2390 C.2   218  ASN218      0.2627
     73  OD1       18.5880   64.1380   11.0650 O.2   218  ASN218     -0.2716
     74  ND2       20.7190   64.8320   10.7390 N.am  218  ASN218     -0.0877
     75  N         20.3060   61.7910   15.6040 N.am  219  LYS219     -0.1966
     76  CA        20.7240   60.8070   16.5940 C.3   219  LYS219      0.1728
     77  C         19.7130   59.6490   16.8500 C.2   219  LYS219      0.2616
     78  O         20.1280   58.5110   17.1210 O.2   219  LYS219     -0.2715
     79  CB        21.0360   61.5160   17.9150 C.3   219  LYS219      0.0311
     80  CG        22.2020   62.4980   17.8910 C.3   219  LYS219      0.0038
     81  CD        22.3880   63.0440   19.3200 C.3   219  LYS219      0.0206
     82  CE        23.2250   64.3120   19.3480 C.3   219  LYS219      0.1093
     83  NZ        22.6770   65.2490   20.3720 N.3   219  LYS219     -0.1314
     84  N         18.4040   59.9270   16.8060 N.am  220  ALA220     -0.1964
     85  CA        17.4120   58.8350   16.7360 C.3   220  ALA220      0.1713
     86  C         17.5360   58.1680   15.3470 C.2   220  ALA220      0.2458
     87  O         17.9170   58.8490   14.3700 O.2   220  ALA220     -0.2730
     88  CB        15.9850   59.3610   16.9680 C.3   220  ALA220      0.0333
     89  N         17.2630   56.8440   15.2460 N.am  221  PRO221     -0.2727
     90  CA        17.2790   56.2480   13.9000 C.3   221  PRO221      0.1402
     91  C         16.0170   56.5950   13.0780 C.2   221  PRO221      0.2269
     92  O         16.0850   56.6270   11.8430 O.2   221  PRO221     -0.2865
     93  CB        17.3720   54.7390   14.1780 C.3   221  PRO221      0.0296
     94  CG        17.5440   54.6060   15.6930 C.3   221  PRO221      0.0237
     95  CD        16.9810   55.8450   16.2880 C.3   221  PRO221      0.0939
     96  N         16.3960   43.4340   19.8950 N.3   353  ASN353     -0.1225
     97  CA        16.4490   44.8530   19.6440 C.3   353  ASN353      0.1785
     98  C         16.4810   45.1630   18.1540 C.2   353  ASN353      0.2597
     99  O         16.2590   44.3100   17.3150 O.2   353  ASN353     -0.2718
    100  CB        17.7000   45.4560   20.3120 C.3   353  ASN353      0.1169
    101  CG        19.0150   45.1490   19.5350 C.2   353  ASN353      0.2627
    102  OD1       19.3470   43.9780   19.2620 O.2   353  ASN353     -0.2716
    103  ND2       19.7590   46.2030   19.1910 N.am  353  ASN353     -0.0877
    104  N         16.8300   46.3960   17.8400 N.am  354  LEU354     -0.1966
    105  CA        16.7600   46.8580   16.5020 C.3   354  LEU354      0.1728
    106  C         17.8810   46.2660   15.6520 C.2   354  LEU354      0.2616
    107  O         17.8080   46.3170   14.4250 O.2   354  LEU354     -0.2715
    108  CB        16.7810   48.3840   16.5230 C.3   354  LEU354      0.0311
    109  CG        16.8220   49.2450   15.2710 C.3   354  LEU354      0.0022
    110  CD1       15.7780   48.7830   14.2370 C.3   354  LEU354      0.0001
    111  CD2       16.6420   50.7160   15.6610 C.3   354  LEU354      0.0001
    112  N         18.9200   45.7100   16.2630 N.am  355  CYS355     -0.1968
    113  CA        19.9930   45.0980   15.4570 C.3   355  CYS355      0.1712
    114  C         20.1880   43.6250   15.7650 C.2   355  CYS355      0.2296
    115  O         21.2250   43.0300   15.4310 O.2   355  CYS355     -0.2864
    116  CB        21.2870   45.8440   15.6340 C.3   355  CYS355      0.0983
    117  SG        21.0830   47.5790   15.1440 S.3   355  CYS355     -0.0798
    118  N         20.8970   41.9470   18.3880 N.3   357  GLU357     -0.1245
    119  CA        22.0000   41.4750   19.1860 C.3   357  GLU357      0.1567
    120  C         21.6900   41.4350   20.6930 C.2   357  GLU357      0.2260
    121  O         22.2190   40.6190   21.4240 O.2   357  GLU357     -0.2867
    122  CB        23.2610   42.2680   18.8580 C.3   357  GLU357      0.0388
    123  CG        23.4860   43.4910   19.7330 C.3   357  GLU357      0.1160
    124  CD        23.0340   44.8360   19.1080 C.2   357  GLU357      0.3649
    125  OE1       23.7330   45.8500   19.3970 O.co2 357  GLU357     -0.2457
    126  OE2       21.9970   44.9050   18.3610 O.co2 357  GLU357     -0.2457
    127  N         26.8270   50.0570   24.8230 N.3   372  LEU372     -0.1245
    128  CA        27.6890   49.2740   23.9780 C.3   372  LEU372      0.1561
    129  C         29.0490   49.8970   23.8600 C.2   372  LEU372      0.2260
    130  O         29.1660   51.1340   23.9260 O.2   372  LEU372     -0.2867
    131  CB        27.0610   49.1710   22.6080 C.3   372  LEU372      0.0270
    132  CG        25.8330   48.2990   22.3510 C.3   372  LEU372      0.0019
    133  CD1       24.6950   48.5900   23.2930 C.3   372  LEU372      0.0001
    134  CD2       25.4070   48.5480   20.9150 C.3   372  LEU372      0.0001
    135  N         27.7400   43.9910   18.1310 N.3   533  MET533     -0.1231
    136  CA        26.7980   44.8340   17.3800 C.3   533  MET533      0.1687
    137  C         27.3080   45.2310   15.9750 C.2   533  MET533      0.2434
    138  O         28.4450   44.9370   15.6560 O.2   533  MET533     -0.2733
    139  CB        26.5130   46.0900   18.1850 C.3   533  MET533      0.0400
    140  CG        27.6700   46.9940   18.2620 C.3   533  MET533      0.0596
    141  SD        28.8140   46.4430   19.5280 S.3   533  MET533     -0.1393
    142  CE        30.3180   46.4260   18.5970 C.3   533  MET533      0.0692
    143  N         26.4770   45.9080   15.1440 N.am  534  PRO534     -0.2718
    144  CA        26.9250   46.1340   13.7560 C.3   534  PRO534      0.1535
    145  C         28.1300   47.0570   13.5860 C.2   534  PRO534      0.2599
    146  O         28.8270   46.9340   12.5920 O.2   534  PRO534     -0.2715
    147  CB        25.6840   46.7230   13.0520 C.3   534  PRO534      0.0310
    148  CG        24.5830   46.4510   13.9390 C.3   534  PRO534      0.0237
    149  CD        25.1390   46.4710   15.3340 C.3   534  PRO534      0.0939
    150  N         28.3930   47.9410   14.5580 N.am  535  THR535     -0.1937
    151  CA        29.4600   48.9810   14.4510 C.3   535  THR535      0.2028
    152  C         29.4280   49.7270   13.1210 C.2   535  THR535      0.2642
    153  O         30.4640   50.0270   12.5480 O.2   535  THR535     -0.2714
    154  CB        30.9020   48.4240   14.6360 C.3   535  THR535      0.1808
    155  OG1       31.1070   47.2980   13.7700 O.3   535  THR535     -0.2208
    156  CG2       31.1300   47.9890   16.0230 C.3   535  THR535      0.0379
    157  N         28.2540   50.0160   12.6000 N.am  536  ALA536     -0.1963
    158  CA        28.2140   50.6030   11.2870 C.3   536  ALA536      0.1728
    159  C         29.0010   51.9520   11.2680 C.2   536  ALA536      0.2617
    160  O         29.8950   52.1650   10.4320 O.2   536  ALA536     -0.2715
    161  CB        26.7650   50.7410   10.8140 C.3   536  ALA536      0.0334
    162  N         28.7180   52.8370   12.2140 N.am  537  SER537     -0.1936
    163  CA        29.3980   54.1140   12.2320 C.3   537  SER537      0.2055
    164  C         30.7770   54.1670   12.8830 C.2   537  SER537      0.2643
    165  O         31.6680   54.8360   12.3770 O.2   537  SER537     -0.2714
    166  CB        28.5220   55.1350   12.9070 C.3   537  SER537      0.2130
    167  OG        27.9940   56.0120   11.9420 O.3   537  SER537     -0.2179
    168  N         30.9380   53.5090   14.0240 N.am  538  THR538     -0.1950
    169  CA        32.1570   53.6380   14.7940 C.3   538  THR538      0.1897
    170  C         33.3430   52.9380   14.1360 C.2   538  THR538      0.2313
    171  O         34.4970   53.3430   14.3610 O.2   538  THR538     -0.2863
    172  CB        32.0090   53.1040   16.1980 C.3   538  THR538      0.1794
    173  OG1       31.4290   51.7920   16.1400 O.3   538  THR538     -0.2208
    174  CG2       31.1430   54.0240   16.9820 C.3   538  THR538      0.0378
@<TRIPOS>BOND
     1   160   159    2
     2    74    72   am
     3   161   158    1
     4    73    72    2
     5    72    71    1
     6   159   158    1
     7   159   162   am
     8   158   157    1
     9    92    91    2
    10   167   166    1
    11    71    68    1
    12   162   163    1
    13   163   164    1
    14   163   166    1
    15   165   164    2
    16   153   152    2
    17   146   145    2
    18   157   152   am
    19   164   168   am
    20   147   144    1
    21   147   148    1
    22    91    90    1
    23   152   151    1
    24    68    67    1
    25    68    69    1
    26   145   144    1
    27   145   150   am
    28    70    69    2
    29   144   143    1
    30   155   154    1
    31    90    93    1
    32    90    89    1
    33   148   149    1
    34   168   169    1
    35   170   171    2
    36   170   169    1
    37     9     7   ar
    38     9    11   ar
    39    93    94    1
    40   110   109    1
    41    69    75   am
    42    87    86    2
    43   107   106    2
    44   151   150    1
    45   151   154    1
    46     7     6   ar
    47   154   156    1
    48    12    11    1
    49   169   172    1
    50     1     2    1
    51    11    10   ar
    52   117   116    1
    53   143   149    1
    54   143   137   am
    55    89    86   am
    56    89    95    1
    57   109   111    1
    58   109   108    1
    59    86    85    1
    60   115   114    2
    61   113   116    1
    62   113   114    1
    63   113   112    1
    64    75    76    1
    65   106   112   am
    66   106   105    1
    67   138   137    2
    68    94    95    1
    69     6     5    1
    70     6     8   ar
    71   137   136    1
    72   173   172    1
    73     2     5    1
    74     2     3    1
    75   172   174    1
    76    10     8   ar
    77   105   108    1
    78   105   104    1
    79    76    77    1
    80    76    79    1
    81    41    40   ar
    82    41    39   ar
    83    85    84    1
    84    85    88    1
    85    23    22    1
    86    84    77   am
    87    77    78    2
    88     3     4    2
    89    40    38   ar
    90    99    98    2
    91   136   135    1
    92   136   139    1
    93    39    37   ar
    94    22    19    1
    95   104    98   am
    96    80    79    1
    97    80    81    1
    98    98    97    1
    99   139   140    1
   100   140   141    1
   101   126   124   ar
   102   118   119    1
   103    38    36   ar
   104   142   141    1
   105    64    63    1
   106    64    65    1
   107   122   119    1
   108   122   123    1
   109    37    36   ar
   110    19    18    1
   111    19    20    1
   112   124   125   ar
   113   124   123    1
   114   119   120    1
   115   103   101   am
   116    62    61    2
   117   102   101    2
   118    81    82    1
   119    36    35    1
   120    82    83    1
   121    18    15   am
   122   101   100    1
   123    63    61   am
   124    97    96    1
   125    97   100    1
   126    65    66    2
   127    61    60    1
   128    20    21    2
   129    20    24   am
   130    59    60    1
   131    59    56   am
   132    15    14    1
   133    15    16    2
   134    30    24    1
   135    30    29    1
   136   120   121    2
   137    14    17    1
   138    14    13    1
   139    24    25    1
   140    35    32    1
   141    55    58    1
   142    55    56    1
   143    55    54    1
   144    45    44    2
   145   134   132    1
   146    29    28    1
   147    56    57    2
   148    32    31    1
   149    32    33    1
   150    46    47    1
   151    46    43    1
   152    25    28    1
   153    25    26    1
   154    52    53    1
   155    52    49    1
   156    44    43    1
   157    44    48   am
   158    43    42    1
   159   132   131    1
   160   132   133    1
   161    49    48    1
   162    49    50    1
   163   131   128    1
   164    33    34    2
   165    26    27    2
   166    50    51    2
   167   129   130    2
   168   129   128    1
   169   128   127    1
