@<TRIPOS>MOLECULE
tmp/3s8cA00.pdb
 119 113 0 0 0
SMALL
GASTEIGER

@<TRIPOS>ATOM
      1  N         -3.2680   44.7420   26.1000 N.3   153  ASP153     -0.1225
      2  CA        -4.1580   44.6630   24.9440 C.3   153  ASP153      0.1805
      3  C         -5.3500   45.6290   25.0570 C.2   153  ASP153      0.2598
      4  O         -6.4980   45.2090   25.2090 O.2   153  ASP153     -0.2718
      5  CB        -4.6360   43.2290   24.7100 C.3   153  ASP153      0.1424
      6  CG        -5.2320   43.0420   23.3140 C.2   153  ASP153      0.3668
      7  OD1       -5.9480   42.0640   23.0660 O.co2 153  ASP153     -0.2456
      8  OD2       -5.0100   43.9010   22.4450 O.co2 153  ASP153     -0.2456
      9  N         -5.0800   46.9240   24.9710 N.am  154  SER154     -0.1938
     10  CA        -6.1100   47.9370   25.1680 C.3   154  SER154      0.2055
     11  C         -5.6770   49.2130   24.5160 C.2   154  SER154      0.2643
     12  O         -4.5160   49.4050   24.3090 O.2   154  SER154     -0.2714
     13  CB        -6.3540   48.1970   26.6620 C.3   154  SER154      0.2130
     14  OG        -5.2470   48.8070   27.2710 O.3   154  SER154     -0.2179
     15  N         -6.6130   50.0970   24.2030 N.am  155  ILE155     -0.1963
     16  CA        -6.2510   51.4170   23.6990 C.3   155  ILE155      0.1727
     17  C         -5.3450   52.1180   24.7060 C.2   155  ILE155      0.2616
     18  O         -4.3860   52.7640   24.3090 O.2   155  ILE155     -0.2715
     19  CB        -7.4810   52.2910   23.3360 C.3   155  ILE155      0.0290
     20  CG1       -8.1430   51.8660   21.9970 C.3   155  ILE155      0.0022
     21  CG2       -7.0850   53.7250   23.2160 C.3   155  ILE155      0.0023
     22  CD1       -7.1810   51.6400   20.8290 C.3   155  ILE155      0.0001
     23  N         -5.6020   51.9710   26.0050 N.am  156  GLU156     -0.1977
     24  CA        -4.7730   52.6420   26.9930 C.3   156  GLU156      0.1602
     25  C         -3.3540   52.0930   26.9790 C.2   156  GLU156      0.2287
     26  O         -2.3840   52.8470   26.9340 O.2   156  GLU156     -0.2864
     27  CB        -5.3880   52.5210   28.3830 C.3   156  GLU156      0.0415
     28  CG        -4.4460   52.9960   29.4850 C.3   156  GLU156      0.1163
     29  CD        -5.1140   53.1140   30.8520 C.2   156  GLU156      0.3649
     30  OE1       -5.7130   54.1770   31.1600 O.co2 156  GLU156     -0.2457
     31  OE2       -5.0080   52.1500   31.6320 O.co2 156  GLU156     -0.2457
     32  N         -1.8640   50.5580   24.5740 N.3   158  ILE158     -0.1245
     33  CA        -1.2620   50.8910   23.2990 C.3   158  ILE158      0.1561
     34  C         -0.7460   52.3170   23.3090 C.2   158  ILE158      0.2260
     35  O          0.4240   52.5640   22.9530 O.2   158  ILE158     -0.2867
     36  CB        -2.2120   50.6490   22.1120 C.3   158  ILE158      0.0252
     37  CG1       -2.4630   49.1700   21.9620 C.3   158  ILE158      0.0019
     38  CG2       -1.6500   51.2270   20.7960 C.3   158  ILE158      0.0019
     39  CD1       -3.6580   48.9440   21.1040 C.3   158  ILE158      0.0001
     40  N         -1.1760   41.7710   21.2450 N.3   182  ILE182     -0.1231
     41  CA        -2.2600   42.5740   20.6450 C.3   182  ILE182      0.1692
     42  C         -3.1440   41.6770   19.8300 C.2   182  ILE182      0.2591
     43  O         -2.6320   40.8980   19.0310 O.2   182  ILE182     -0.2718
     44  CB        -1.7180   43.6560   19.7230 C.3   182  ILE182      0.0266
     45  CG1       -0.9940   44.7440   20.5400 C.3   182  ILE182      0.0019
     46  CG2       -2.8330   44.1990   18.7940 C.3   182  ILE182      0.0020
     47  CD1       -1.7380   45.2260   21.7790 C.3   182  ILE182      0.0001
     48  N         -4.4520   41.7580   20.0490 N.am  183  ARG183     -0.1980
     49  CA        -5.3840   40.9000   19.3290 C.3   183  ARG183      0.1597
     50  C         -5.4090   41.1720   17.7960 C.2   183  ARG183      0.2287
     51  O         -5.1850   42.3050   17.2890 O.2   183  ARG183     -0.2864
     52  CB        -6.7720   40.9180   19.9500 C.3   183  ARG183      0.0334
     53  CG        -7.4630   42.2660   19.8660 C.3   183  ARG183      0.0492
     54  CD        -8.7300   42.3210   20.7040 C.3   183  ARG183      0.2205
     55  NE        -8.4360   42.3760   22.1410 N.pl3 183  ARG183     -0.0865
     56  CZ        -9.3280   42.6970   23.0800 C.cat 183  ARG183      0.5346
     57  NH1      -10.5750   42.9980   22.7440 N.pl3 183  ARG183      0.1354
     58  NH2       -8.9810   42.7570   24.3560 N.pl3 183  ARG183      0.1354
     59  N        -13.0700   39.9000   18.6540 N.3   188  TYR188     -0.1227
     60  CA       -14.0510   40.5560   19.4710 C.3   188  TYR188      0.1736
     61  C        -13.4640   41.6630   20.3570 C.2   188  TYR188      0.2595
     62  O        -12.3610   41.5420   20.8360 O.2   188  TYR188     -0.2718
     63  CB       -14.6760   39.4720   20.3130 C.3   188  TYR188      0.0548
     64  CG       -15.8490   39.8840   21.1330 C.ar  188  TYR188     -0.0200
     65  CD1      -15.7160   40.0000   22.5380 C.ar  188  TYR188     -0.0009
     66  CD2      -17.1100   40.1420   20.5280 C.ar  188  TYR188     -0.0009
     67  CE1      -16.7820   40.3480   23.3330 C.ar  188  TYR188      0.0417
     68  CE2      -18.2090   40.5210   21.3260 C.ar  188  TYR188      0.0417
     69  CZ       -18.0170   40.6160   22.7490 C.ar  188  TYR188      0.1957
     70  OH       -19.0450   40.9930   23.5920 O.3   188  TYR188     -0.2866
     71  N        -14.2310   42.7420   20.5390 N.am  189  ILE189     -0.1966
     72  CA       -13.9800   43.8330   21.4830 C.3   189  ILE189      0.1727
     73  C        -15.2650   44.0180   22.2750 C.2   189  ILE189      0.2616
     74  O        -16.3060   44.2920   21.6830 O.2   189  ILE189     -0.2715
     75  CB       -13.7640   45.1500   20.7340 C.3   189  ILE189      0.0290
     76  CG1      -12.6530   44.9940   19.6960 C.3   189  ILE189      0.0022
     77  CG2      -13.4460   46.2630   21.6960 C.3   189  ILE189      0.0023
     78  CD1      -12.4620   46.1570   18.8180 C.3   189  ILE189      0.0001
     79  N        -15.2070   43.9190   23.6040 N.am  190  ALA190     -0.1977
     80  CA       -16.4150   43.9950   24.4420 C.3   190  ALA190      0.1597
     81  C        -16.9750   45.4290   24.5280 C.2   190  ALA190      0.2287
     82  O        -16.2230   46.3720   24.7240 O.2   190  ALA190     -0.2864
     83  CB       -16.1330   43.4460   25.7880 C.3   190  ALA190      0.0319
     84  N        -18.8890   46.7620   21.8250 N.3   192  THR192     -0.1218
     85  CA       -19.2760   47.2220   20.4980 C.3   192  THR192      0.1862
     86  C        -19.5650   46.0660   19.6450 C.2   192  THR192      0.2287
     87  O        -19.0910   44.9780   19.9010 O.2   192  THR192     -0.2866
     88  CB       -18.1500   47.8810   19.7240 C.3   192  THR192      0.1770
     89  OG1      -16.8910   47.3720   20.1780 O.3   192  THR192     -0.2211
     90  CG2      -18.1920   49.3560   19.8520 C.3   192  THR192      0.0375
     91  N        -15.4530   45.1290   15.5210 N.3   195  THR195     -0.1203
     92  CA       -14.4110   44.1250   15.4940 C.3   195  THR195      0.1994
     93  C        -13.0500   44.8000   15.6710 C.2   195  THR195      0.2619
     94  O        -12.9600   46.0010   15.5480 O.2   195  THR195     -0.2717
     95  CB       -14.4500   43.3790   14.1380 C.3   195  THR195      0.1784
     96  OG1      -13.7760   42.1410   14.3080 O.3   195  THR195     -0.2211
     97  CG2      -13.7690   44.1880   12.9320 C.3   195  THR195      0.0376
     98  N        -11.9870   44.0620   15.9640 N.am  196  SER196     -0.1937
     99  CA       -10.6620   44.6830   15.9990 C.3   196  SER196      0.2055
    100  C        -10.0460   44.7660   14.6150 C.2   196  SER196      0.2643
    101  O        -10.3090   43.9210   13.7470 O.2   196  SER196     -0.2714
    102  CB        -9.7230   43.9260   16.9150 C.3   196  SER196      0.2130
    103  OG        -8.3790   44.3020   16.6540 O.3   196  SER196     -0.2179
    104  N         -9.2100   45.7850   14.4270 N.am  197  ASN197     -0.1971
    105  CA        -8.4970   46.0180   13.1620 C.3   197  ASN197      0.1688
    106  C         -7.2180   45.1980   13.0860 C.2   197  ASN197      0.2292
    107  O         -6.6460   45.0010   11.9940 O.2   197  ASN197     -0.2864
    108  CB        -8.0640   47.4850   13.0580 C.3   197  ASN197      0.1181
    109  CG        -9.2290   48.4590   12.8500 C.2   197  ASN197      0.2629
    110  OD1      -10.2040   48.1710   12.1180 O.2   197  ASN197     -0.2716
    111  ND2       -9.1080   49.6520   13.4740 N.am  197  ASN197     -0.0877
    112  N         -2.6480   49.5500   13.7850 N.3   202  MET202     -0.1245
    113  CA        -1.8680   49.9430   14.9490 C.3   202  MET202      0.1570
    114  C         -0.3880   50.1590   14.6880 C.2   202  MET202      0.2261
    115  O          0.1930   51.1010   15.1830 O.2   202  MET202     -0.2867
    116  CB        -2.0020   48.9080   16.0450 C.3   202  MET202      0.0387
    117  CG        -1.4550   49.3820   17.3780 C.3   202  MET202      0.0595
    118  SD        -0.6770   48.0610   18.3480 S.3   202  MET202     -0.1393
    119  CE         0.6600   47.5050   17.2690 C.3   202  MET202      0.0692
@<TRIPOS>BOND
     1   107   106    2
     2   110   109    2
     3   109   108    1
     4   109   111   am
     5    97    95    1
     6   108   105    1
     7   106   105    1
     8   105   104    1
     9   101   100    2
    10   112   113    1
    11    95    96    1
    12    95    92    1
    13   104   100   am
    14   100    99    1
    15   114   113    1
    16   114   115    2
    17   113   116    1
    18    92    91    1
    19    92    93    1
    20    94    93    2
    21    93    98   am
    22    98    99    1
    23    99   102    1
    24   116   117    1
    25   103   102    1
    26   119   118    1
    27    51    50    2
    28   117   118    1
    29    50    49    1
    30    59    60    1
    31    46    44    1
    32    78    76    1
    33    43    42    2
    34    49    52    1
    35    49    48    1
    36    60    63    1
    37    60    61    1
    38    86    87    2
    39    86    85    1
    40    76    75    1
    41    44    45    1
    42    44    41    1
    43    88    90    1
    44    88    89    1
    45    88    85    1
    46    42    48   am
    47    42    41    1
    48    53    52    1
    49    53    54    1
    50    63    64    1
    51    61    71   am
    52    61    62    2
    53    85    84    1
    54    66    64   ar
    55    66    68   ar
    56    71    72    1
    57    45    47    1
    58    41    40    1
    59    54    55    1
    60    75    72    1
    61    75    77    1
    62    38    36    1
    63    22    20    1
    64    39    37    1
    65    64    65   ar
    66    68    69   ar
    67    72    73    1
    68    74    73    2
    69    37    36    1
    70    20    19    1
    71    36    33    1
    72    55    56    2
    73    73    79   am
    74     8     6   ar
    75    65    67   ar
    76    57    56    1
    77    69    67   ar
    78    69    70    1
    79    35    34    2
    80     7     6   ar
    81    56    58    1
    82    21    19    1
    83    33    34    1
    84    33    32    1
    85     6     5    1
    86    19    16    1
    87    79    80    1
    88    16    15    1
    89    16    17    1
    90    15    11   am
    91    12    11    2
    92    18    17    2
    93    80    81    1
    94    80    83    1
    95    11    10    1
    96    81    82    2
    97    17    23   am
    98     5     2    1
    99     2     3    1
   100     2     1    1
   101     9     3   am
   102     9    10    1
   103     3     4    2
   104    10    13    1
   105    23    24    1
   106    13    14    1
   107    26    25    2
   108    25    24    1
   109    24    27    1
   110    27    28    1
   111    28    29    1
   112    29    30   ar
   113    29    31   ar
