@<TRIPOS>MOLECULE
tmp/3s8lA00.pdb
 132 127 0 0 0
SMALL
GASTEIGER

@<TRIPOS>ATOM
      1  N        -16.7460    7.5850    8.7160 N.3    14  ARG14      -0.1245
      2  CA       -15.9910    6.7430    7.7740 C.3    14  ARG14       0.1563
      3  C        -16.1830    5.2310    8.0400 C.2    14  ARG14       0.2260
      4  O        -16.4290    4.4190    7.1130 O.2    14  ARG14      -0.2867
      5  CB       -14.5370    7.1030    7.8700 C.3    14  ARG14       0.0307
      6  CG       -13.6210    6.3730    6.8800 C.3    14  ARG14       0.0489
      7  CD       -12.2210    6.7320    7.1950 C.3    14  ARG14       0.2205
      8  NE       -11.2690    5.8690    6.5110 N.pl3  14  ARG14      -0.0865
      9  CZ       -10.5900    6.2330    5.4170 C.cat  14  ARG14       0.5346
     10  NH1      -10.7310    7.4230    4.9160 N.pl3  14  ARG14       0.1354
     11  NH2       -9.7090    5.3940    4.8790 N.pl3  14  ARG14       0.1354
     12  N        -20.7550   11.0460    1.8060 N.3    33  ARG33      -0.1245
     13  CA       -20.9020   11.4780    3.2280 C.3    33  ARG33       0.1563
     14  C        -20.1580   12.7650    3.4970 C.2    33  ARG33       0.2260
     15  O        -19.3010   13.2120    2.7140 O.2    33  ARG33      -0.2867
     16  CB       -20.3480   10.3820    4.1670 C.3    33  ARG33       0.0307
     17  CG       -18.8820    9.9710    3.8900 C.3    33  ARG33       0.0489
     18  CD       -18.4370    8.7820    4.7290 C.3    33  ARG33       0.2205
     19  NE       -17.1270    8.3520    4.3070 N.pl3  33  ARG33      -0.0865
     20  CZ       -15.9780    8.9090    4.6760 C.cat  33  ARG33       0.5346
     21  NH1      -15.9730    9.8440    5.6330 N.pl3  33  ARG33       0.1354
     22  NH2      -14.8280    8.4640    4.1820 N.pl3  33  ARG33       0.1354
     23  N        -17.4660   14.5420    5.6270 N.3    35  SER35      -0.1202
     24  CA       -16.2710   14.0750    6.3360 C.3    35  SER35       0.2020
     25  C        -16.3460   14.6100    7.7580 C.2    35  SER35       0.2619
     26  O        -16.7460   15.7680    7.9650 O.2    35  SER35      -0.2717
     27  CB       -15.0170   14.6890    5.7430 C.3    35  SER35       0.2103
     28  OG       -13.8530   14.2160    6.4420 O.3    35  SER35      -0.2182
     29  N        -16.0040   13.7490    8.6950 N.am   36  GLU36      -0.1965
     30  CA       -15.8400   14.1970   10.0580 C.3    36  GLU36       0.1733
     31  C        -14.4080   14.7170   10.2860 C.2    36  GLU36       0.2617
     32  O        -14.1890   15.5950   11.1350 O.2    36  GLU36      -0.2715
     33  CB       -16.0880   13.0240   10.9790 C.3    36  GLU36       0.0429
     34  CG       -17.4630   12.4280   10.8830 C.3    36  GLU36       0.1163
     35  CD       -17.7420   11.4940   12.0790 C.2    36  GLU36       0.3649
     36  OE1      -18.6320   11.8070   12.8740 O.co2  36  GLU36      -0.2457
     37  OE2      -17.0650   10.4710   12.2490 O.co2  36  GLU36      -0.2457
     38  N        -13.4520   14.1770    9.5570 N.am   37  SER37      -0.1950
     39  CA       -12.0560   14.5810    9.7450 C.3    37  SER37       0.1924
     40  C        -11.7470   15.9150    9.0530 C.2    37  SER37       0.2314
     41  O        -10.8270   16.6320    9.4600 O.2    37  SER37      -0.2863
     42  CB       -11.0920   13.4890    9.3290 C.3    37  SER37       0.2116
     43  OG       -11.1170   13.3840    7.9340 O.3    37  SER37      -0.2180
     44  N        -16.7760   13.2590    1.3180 N.3    43  SER43      -0.1217
     45  CA       -16.0620   12.1030    0.8550 C.3    43  SER43       0.1889
     46  C        -16.9980   11.1030    0.1720 C.2    43  SER43       0.2288
     47  O        -18.1840   10.9420    0.5320 O.2    43  SER43      -0.2866
     48  CB       -15.4230   11.4080    2.0760 C.3    43  SER43       0.2089
     49  OG       -14.5410   12.2840    2.7690 O.3    43  SER43      -0.2183
     50  N        -13.2900    1.5790   -0.7320 N.3    53  GLN53      -0.1231
     51  CA       -12.3230    2.6050   -1.0430 C.3    53  GLN53       0.1698
     52  C        -13.0090    3.9820   -0.7250 C.2    53  GLN53       0.2592
     53  O        -14.2380    4.1600   -0.9460 O.2    53  GLN53      -0.2718
     54  CB       -11.9850    2.5620   -2.5560 C.3    53  GLN53       0.0381
     55  CG       -11.6050    1.2130   -2.9730 C.3    53  GLN53       0.0905
     56  CD       -10.8850    1.1500   -4.2710 C.2    53  GLN53       0.2608
     57  OE1      -10.4600    0.0750   -4.6680 O.2    53  GLN53      -0.2717
     58  NE2      -10.7440    2.2680   -4.9470 N.am   53  GLN53      -0.0878
     59  N        -12.2000    4.9390   -0.2830 N.am   54  HIS54      -0.1962
     60  CA       -12.6290    6.2880   -0.0440 C.3    54  HIS54       0.1787
     61  C        -11.9260    7.3030   -0.9050 C.2    54  HIS54       0.2620
     62  O        -10.7200    7.2370   -1.0980 O.2    54  HIS54      -0.2715
     63  CB       -12.3710    6.6790    1.3910 C.3    54  HIS54       0.0785
     64  CG       -12.9700    5.7100    2.3500 C.ar   54  HIS54       0.0821
     65  ND1      -14.2970    5.7700    2.7170 N.ar   54  HIS54      -0.2267
     66  CD2      -12.4520    4.6110    2.9520 C.ar   54  HIS54       0.1154
     67  CE1      -14.5620    4.7720    3.5440 C.ar   54  HIS54       0.1986
     68  NE2      -13.4560    4.0630    3.7150 N.ar   54  HIS54      -0.2212
     69  N        -12.6780    8.2940   -1.3930 N.am   55  PHE55      -0.1960
     70  CA       -12.1060    9.3820   -2.2470 C.3    55  PHE55       0.1771
     71  C        -12.5230   10.7060   -1.6140 C.2    55  PHE55       0.2619
     72  O        -13.6510   10.8350   -1.1520 O.2    55  PHE55      -0.2715
     73  CB       -12.6520    9.3540   -3.7180 C.3    55  PHE55       0.0574
     74  CG       -12.4050    8.0270   -4.3970 C.ar   55  PHE55      -0.0200
     75  CD1      -13.2380    6.9400   -4.1550 C.ar   55  PHE55      -0.0042
     76  CD2      -11.2770    7.8560   -5.1650 C.ar   55  PHE55      -0.0042
     77  CE1      -12.9600    5.7060   -4.6890 C.ar   55  PHE55      -0.0003
     78  CE2      -10.9880    6.6250   -5.6960 C.ar   55  PHE55      -0.0003
     79  CZ       -11.7880    5.5600   -5.4670 C.ar   55  PHE55      -0.0000
     80  N        -11.5760   11.6590   -1.5750 N.am   56  LYS56      -0.1977
     81  CA       -11.8500   13.0340   -1.2260 C.3    56  LYS56       0.1596
     82  C        -12.6390   13.6880   -2.3520 C.2    56  LYS56       0.2287
     83  O        -12.2240   13.5420   -3.5250 O.2    56  LYS56      -0.2864
     84  CB       -10.5310   13.8170   -1.0710 C.3    56  LYS56       0.0298
     85  CG        -9.5380   13.1880   -0.1370 C.3    56  LYS56       0.0038
     86  CD        -8.4660   14.2630    0.0730 C.3    56  LYS56       0.0206
     87  CE        -7.3550   14.0970   -0.9200 C.3    56  LYS56       0.1093
     88  NZ        -6.1790   14.9850   -0.5830 N.3    56  LYS56      -0.1314
     89  N        -12.8400   16.9010   -3.9530 N.3    58  LEU58      -0.1245
     90  CA       -12.0000   18.0880   -3.9930 C.3    58  LEU58       0.1561
     91  C        -12.7590   19.2660   -4.5750 C.2    58  LEU58       0.2260
     92  O        -13.7180   19.0930   -5.3320 O.2    58  LEU58      -0.2867
     93  CB       -10.6930   17.8060   -4.7800 C.3    58  LEU58       0.0270
     94  CG        -9.8860   16.6350   -4.2300 C.3    58  LEU58       0.0019
     95  CD1       -8.7370   16.3600   -5.1200 C.3    58  LEU58       0.0001
     96  CD2       -9.3880   17.0360   -2.8630 C.3    58  LEU58       0.0001
     97  N        -12.9970   14.5560   -8.4560 N.3    67  LEU67      -0.1231
     98  CA       -12.1490   13.5280   -7.8460 C.3    67  LEU67       0.1693
     99  C        -10.7140   13.5720   -8.3360 C.2    67  LEU67       0.2592
    100  O         -9.7400   13.5030   -7.5190 O.2    67  LEU67      -0.2718
    101  CB       -12.7240   12.1380   -8.0690 C.3    67  LEU67       0.0284
    102  CG       -14.1460   11.8740   -7.5910 C.3    67  LEU67       0.0019
    103  CD1      -14.5030   10.4040   -7.8330 C.3    67  LEU67       0.0001
    104  CD2      -14.2730   12.3070   -6.1080 C.3    67  LEU67       0.0001
    105  N        -10.5870   13.6720   -9.6760 N.am   68  TRP68      -0.1976
    106  CA        -9.2800   13.6100  -10.3000 C.3    68  TRP68       0.1640
    107  C         -9.0410   14.8340  -11.1580 C.2    68  TRP68       0.2290
    108  O         -8.2390   15.6620  -10.7940 O.2    68  TRP68      -0.2864
    109  CB        -9.1410   12.3370  -11.1470 C.3    68  TRP68       0.0576
    110  CG        -9.1890   11.0550  -10.3150 C.ar   68  TRP68       0.0006
    111  CD1      -10.2290   10.1980  -10.2350 C.ar   68  TRP68       0.0946
    112  CD2       -8.1470   10.5110   -9.4690 C.ar   68  TRP68       0.0152
    113  NE1       -9.9200    9.1460   -9.4160 N.ar   68  TRP68      -0.2442
    114  CE2       -8.6470    9.2850   -8.9440 C.ar   68  TRP68       0.0810
    115  CE3       -6.8430   10.8920   -9.1640 C.ar   68  TRP68       0.0012
    116  CZ2       -7.9010    8.4530   -8.0900 C.ar   68  TRP68       0.0191
    117  CZ3       -6.0680   10.0270   -8.2530 C.ar   68  TRP68       0.0001
    118  CH2       -6.6150    8.8310   -7.7640 C.ar   68  TRP68       0.0015
    119  N        -11.6300    5.0020  -10.0040 N.3    88  SER88      -0.1217
    120  CA       -10.3400    4.5260   -9.5850 C.3    88  SER88       0.1889
    121  C         -9.3850    4.5510  -10.7660 C.2    88  SER88       0.2288
    122  O         -9.8110    4.3650  -11.9500 O.2    88  SER88      -0.2866
    123  CB       -10.4470    3.1130   -8.9990 C.3    88  SER88       0.2089
    124  OG        -9.1770    2.4510   -8.9180 O.3    88  SER88      -0.2183
    125  N         -6.8140    2.4510  -10.4410 N.3    90  ASN90      -0.1240
    126  CA        -6.2880    1.1080  -10.3070 C.3    90  ASN90       0.1653
    127  C         -7.2230   -0.0250  -10.7580 C.2    90  ASN90       0.2266
    128  O         -6.7640   -1.1620  -10.9850 O.2    90  ASN90      -0.2867
    129  CB        -5.9650    0.7950   -8.8490 C.3    90  ASN90       0.1155
    130  CG        -4.9030    1.6410   -8.3090 C.2    90  ASN90       0.2627
    131  OD1       -3.9540    1.9350   -8.9980 O.2    90  ASN90      -0.2716
    132  ND2       -5.0320    2.0380   -7.0370 N.am   90  ASN90      -0.0877
@<TRIPOS>BOND
     1   122   121    2
     2   107   108    2
     3   107   106    1
     4   109   110    1
     5   109   106    1
     6   128   127    2
     7   121   120    1
     8   127   126    1
     9   125   126    1
    10   110   111   ar
    11   110   112   ar
    12   126   129    1
    13   106   105    1
    14   111   113   ar
    15   119   120    1
    16   105    99   am
    17   120   123    1
    18   112   115   ar
    19   112   114   ar
    20   113   114   ar
    21   115   117   ar
    22   123   124    1
    23   131   130    2
    24   114   116   ar
    25   129   130    1
    26    97    98    1
    27    99    98    1
    28    99   100    2
    29   130   132   am
    30   117   118   ar
    31   116   118   ar
    32   101    98    1
    33   101   102    1
    34   103   102    1
    35   102   104    1
    36    78    79   ar
    37    78    76   ar
    38    79    77   ar
    39    92    91    2
    40    76    74   ar
    41    95    94    1
    42    58    56   am
    43    93    94    1
    44    93    90    1
    45    77    75   ar
    46    57    56    2
    47    91    90    1
    48    74    75   ar
    49    74    73    1
    50    56    55    1
    51    94    96    1
    52    90    89    1
    53    73    70    1
    54    83    82    2
    55    55    54    1
    56    54    51    1
    57    82    81    1
    58    70    71    1
    59    70    69    1
    60    71    80   am
    61    71    72    2
    62    80    81    1
    63    69    61   am
    64    81    84    1
    65    62    61    2
    66    84    85    1
    67    51    50    1
    68    51    52    1
    69    53    52    2
    70    87    88    1
    71    87    86    1
    72    61    60    1
    73    52    59   am
    74    59    60    1
    75    85    86    1
    76    60    63    1
    77    46    47    2
    78    46    45    1
    79    45    44    1
    80    45    48    1
    81    63    64    1
    82    12    13    1
    83    48    49    1
    84    64    65   ar
    85    64    66   ar
    86    15    14    2
    87    65    67   ar
    88    66    68   ar
    89    13    14    1
    90    13    16    1
    91    67    68   ar
    92    17    16    1
    93    17    18    1
    94    22    20    1
    95    19    20    2
    96    19    18    1
    97    20    21    1
    98    11     9    1
    99    10     9    1
   100     9     8    2
   101    23    24    1
   102    27    24    1
   103    27    28    1
   104    24    25    1
   105     8     7    1
   106     6     7    1
   107     6     5    1
   108     4     3    2
   109    25    26    2
   110    25    29   am
   111     2     5    1
   112     2     3    1
   113     2     1    1
   114    43    42    1
   115    29    30    1
   116    40    41    2
   117    40    39    1
   118    42    39    1
   119    38    39    1
   120    38    31   am
   121    30    31    1
   122    30    33    1
   123    31    32    2
   124    34    33    1
   125    34    35    1
   126    35    37   ar
   127    35    36   ar
