@<TRIPOS>MOLECULE
tmp/3s8oA00.pdb
 132 127 0 0 0
SMALL
GASTEIGER

@<TRIPOS>ATOM
      1  N          7.5780  -16.7200   -8.7040 N.3    14  ARG14      -0.1245
      2  CA         6.8270  -16.0150   -7.6620 C.3    14  ARG14       0.1563
      3  C          5.3150  -16.1920   -7.9600 C.2    14  ARG14       0.2260
      4  O          4.4980  -16.4190   -7.0560 O.2    14  ARG14      -0.2867
      5  CB         7.2110  -14.5620   -7.7340 C.3    14  ARG14       0.0307
      6  CG         6.4280  -13.6720   -6.7790 C.3    14  ARG14       0.0489
      7  CD         6.7900  -12.1930   -7.0710 C.3    14  ARG14       0.2205
      8  NE         5.9450  -11.2350   -6.3130 N.pl3  14  ARG14      -0.0865
      9  CZ         6.3160  -10.5700   -5.2110 C.cat  14  ARG14       0.5346
     10  NH1        7.5240  -10.7340   -4.6640 N.pl3  14  ARG14       0.1354
     11  NH2        5.4650   -9.6890   -4.6570 N.pl3  14  ARG14       0.1354
     12  N         11.1830  -20.7360   -1.8090 N.3    33  ARG33      -0.1245
     13  CA        11.5550  -20.9080   -3.2140 C.3    33  ARG33       0.1563
     14  C         12.8640  -20.1790   -3.4320 C.2    33  ARG33       0.2260
     15  O         13.3150  -19.3580   -2.5730 O.2    33  ARG33      -0.2867
     16  CB        10.4930  -20.3510   -4.1370 C.3    33  ARG33       0.0307
     17  CG        10.0980  -18.8200   -3.8350 C.3    33  ARG33       0.0489
     18  CD         8.8850  -18.4470   -4.6760 C.3    33  ARG33       0.2205
     19  NE         8.4210  -17.1170   -4.2330 N.pl3  33  ARG33      -0.0865
     20  CZ         8.9950  -15.9610   -4.5590 C.cat  33  ARG33       0.5346
     21  NH1        9.9890  -15.9340   -5.4610 N.pl3  33  ARG33       0.1354
     22  NH2        8.5490  -14.8030   -4.0480 N.pl3  33  ARG33       0.1354
     23  N         14.6690  -17.4930   -5.5380 N.3    35  SER35      -0.1202
     24  CA        14.1640  -16.3100   -6.2350 C.3    35  SER35       0.2020
     25  C         14.6500  -16.2970   -7.6990 C.2    35  SER35       0.2619
     26  O         15.7680  -16.7460   -8.0100 O.2    35  SER35      -0.2717
     27  CB        14.6390  -15.0190   -5.5520 C.3    35  SER35       0.2103
     28  OG        14.2980  -13.9100   -6.3770 O.3    35  SER35      -0.2182
     29  N         13.7890  -15.8440   -8.5890 N.am   36  GLU36      -0.1965
     30  CA        14.2270  -15.7400   -9.9780 C.3    36  GLU36       0.1733
     31  C         14.7480  -14.3280  -10.2310 C.2    36  GLU36       0.2617
     32  O         15.6290  -14.1300  -11.1050 O.2    36  GLU36      -0.2715
     33  CB        13.0740  -16.0500  -10.9100 C.3    36  GLU36       0.0429
     34  CG        12.5670  -17.4760  -10.7590 C.3    36  GLU36       0.1163
     35  CD        11.6420  -17.7750  -11.9190 C.2    36  GLU36       0.3649
     36  OE1       11.9410  -18.6760  -12.6980 O.co2  36  GLU36      -0.2457
     37  OE2       10.6270  -17.0730  -12.0690 O.co2  36  GLU36      -0.2457
     38  N         14.2080  -13.3550   -9.5170 N.am   37  SER37      -0.1950
     39  CA        14.6520  -11.9430   -9.6980 C.3    37  SER37       0.1924
     40  C         16.0040  -11.6630   -8.9890 C.2    37  SER37       0.2314
     41  O         16.7670  -10.7620   -9.3870 O.2    37  SER37      -0.2863
     42  CB        13.5580  -10.9710   -9.2360 C.3    37  SER37       0.2116
     43  OG        13.4450  -11.0570   -7.8290 O.3    37  SER37      -0.2180
     44  N         13.2970  -16.8200   -1.1810 N.3    43  SER43      -0.1217
     45  CA        12.1320  -16.0610   -0.7700 C.3    43  SER43       0.1889
     46  C         11.1540  -16.9990   -0.0720 C.2    43  SER43       0.2288
     47  O         11.0680  -18.1910   -0.3980 O.2    43  SER43      -0.2866
     48  CB        11.4750  -15.4380   -2.0090 C.3    43  SER43       0.2089
     49  OG        12.3720  -14.5490   -2.6880 O.3    43  SER43      -0.2183
     50  N          1.7050  -13.3680    0.7890 N.3    53  GLN53      -0.1231
     51  CA         2.7200  -12.4200    1.1530 C.3    53  GLN53       0.1698
     52  C          4.0820  -13.0610    0.8340 C.2    53  GLN53       0.2592
     53  O          4.2710  -14.2870    1.0770 O.2    53  GLN53      -0.2718
     54  CB         2.6650  -12.1320    2.6660 C.3    53  GLN53       0.0381
     55  CG         1.3510  -11.4260    3.0410 C.3    53  GLN53       0.0905
     56  CD         1.2640  -10.9590    4.4630 C.2    53  GLN53       0.2608
     57  OE1        0.1980  -10.4120    4.8940 O.2    53  GLN53      -0.2717
     58  NE2        2.3190  -11.0800    5.1800 N.am   53  GLN53      -0.0878
     59  N          5.0420  -12.2030    0.4460 N.am   54  HIS54      -0.1962
     60  CA         6.4180  -12.6550    0.1090 C.3    54  HIS54       0.1787
     61  C          7.4490  -11.9680    0.9520 C.2    54  HIS54       0.2620
     62  O          7.3840  -10.7320    1.1740 O.2    54  HIS54      -0.2715
     63  CB         6.7300  -12.4070   -1.3700 C.3    54  HIS54       0.0785
     64  CG         5.7440  -13.0370   -2.3110 C.ar   54  HIS54       0.0821
     65  ND1        5.8500  -14.3440   -2.7300 N.ar   54  HIS54      -0.2267
     66  CD2        4.6540  -12.5330   -2.9400 C.ar   54  HIS54       0.1154
     67  CE1        4.8840  -14.6180   -3.5920 C.ar   54  HIS54       0.1986
     68  NE2        4.1320  -13.5370   -3.7110 N.ar   54  HIS54      -0.2212
     69  N          8.3890  -12.7530    1.4830 N.am   55  PHE55      -0.1960
     70  CA         9.4900  -12.2080    2.3140 C.3    55  PHE55       0.1771
     71  C         10.8320  -12.5820    1.6930 C.2    55  PHE55       0.2619
     72  O         11.0600  -13.7200    1.2850 O.2    55  PHE55      -0.2715
     73  CB         9.4590  -12.7570    3.7650 C.3    55  PHE55       0.0574
     74  CG         8.1220  -12.4940    4.4750 C.ar   55  PHE55      -0.0200
     75  CD1        7.0050  -13.2970    4.2000 C.ar   55  PHE55      -0.0042
     76  CD2        7.9810  -11.4860    5.3820 C.ar   55  PHE55      -0.0042
     77  CE1        5.7570  -13.0720    4.7970 C.ar   55  PHE55      -0.0003
     78  CE2        6.7370  -11.2690    5.9900 C.ar   55  PHE55      -0.0003
     79  CZ         5.6290  -12.0380    5.7090 C.ar   55  PHE55      -0.0000
     80  N         11.7420  -11.6030    1.6240 N.am   56  LYS56      -0.1977
     81  CA        13.1460  -11.9320    1.2500 C.3    56  LYS56       0.1596
     82  C         13.7750  -12.6770    2.4280 C.2    56  LYS56       0.2287
     83  O         13.6160  -12.2860    3.6180 O.2    56  LYS56      -0.2864
     84  CB        14.0090  -10.6520    1.0690 C.3    56  LYS56       0.0298
     85  CG        13.4280   -9.6780    0.1450 C.3    56  LYS56       0.0038
     86  CD        14.4160   -8.4830    0.0090 C.3    56  LYS56       0.0206
     87  CE        14.1920   -7.4290    1.1140 C.3    56  LYS56       0.1093
     88  NZ        15.0400   -6.1280    0.7610 N.3    56  LYS56      -0.1314
     89  N         16.9990  -12.8140    3.9970 N.3    58  LEU58      -0.1245
     90  CA        18.2150  -11.9840    4.0180 C.3    58  LEU58       0.1561
     91  C         19.3780  -12.7610    4.6250 C.2    58  LEU58       0.2260
     92  O         19.1630  -13.7030    5.3940 O.2    58  LEU58      -0.2867
     93  CB        17.9190  -10.7060    4.8300 C.3    58  LEU58       0.0270
     94  CG        16.7590   -9.8730    4.2830 C.3    58  LEU58       0.0019
     95  CD1       16.4500   -8.7780    5.2490 C.3    58  LEU58       0.0001
     96  CD2       17.0840   -9.3030    2.8690 C.3    58  LEU58       0.0001
     97  N         14.7000  -12.9990    8.4780 N.3    67  LEU67      -0.1231
     98  CA        13.6440  -12.1400    7.8740 C.3    67  LEU67       0.1693
     99  C         13.6890  -10.6890    8.3710 C.2    67  LEU67       0.2592
    100  O         13.6050   -9.7260    7.5770 O.2    67  LEU67      -0.2718
    101  CB        12.2610  -12.7220    8.1630 C.3    67  LEU67       0.0284
    102  CG        12.0090  -14.1680    7.6490 C.3    67  LEU67       0.0019
    103  CD1       10.5170  -14.5180    7.9520 C.3    67  LEU67       0.0001
    104  CD2       12.3460  -14.3000    6.1310 C.3    67  LEU67       0.0001
    105  N         13.8280  -10.5360    9.6900 N.am   68  TRP68      -0.1976
    106  CA        13.7520   -9.2270   10.2880 C.3    68  TRP68       0.1640
    107  C         15.0000   -8.9900   11.1650 C.2    68  TRP68       0.2290
    108  O         15.8320   -8.1890   10.7930 O.2    68  TRP68      -0.2864
    109  CB        12.5080   -9.1150   11.1600 C.3    68  TRP68       0.0576
    110  CG        11.2190   -9.2260   10.3820 C.ar   68  TRP68       0.0006
    111  CD1       10.4040  -10.3290   10.3350 C.ar   68  TRP68       0.0946
    112  CD2       10.6120   -8.2330    9.5270 C.ar   68  TRP68       0.0152
    113  NE1        9.3050  -10.0810    9.4970 N.ar   68  TRP68      -0.2442
    114  CE2        9.4000   -8.8030    9.0150 C.ar   68  TRP68       0.0810
    115  CE3       10.9290   -6.9150    9.1770 C.ar   68  TRP68       0.0012
    116  CZ2        8.5370   -8.0950    8.1830 C.ar   68  TRP68       0.0191
    117  CZ3       10.0400   -6.2030    8.2920 C.ar   68  TRP68       0.0001
    118  CH2        8.8710   -6.8080    7.8370 C.ar   68  TRP68       0.0015
    119  N          5.1070  -11.7740   10.2350 N.3    88  SER88      -0.1217
    120  CA         4.6330  -10.4720    9.8110 C.3    88  SER88       0.1889
    121  C          4.6740   -9.4700   10.9780 C.2    88  SER88       0.2288
    122  O          4.4880   -9.8600   12.1580 O.2    88  SER88      -0.2866
    123  CB         3.2210  -10.5900    9.2650 C.3    88  SER88       0.2089
    124  OG         2.6420   -9.3040    9.0710 O.3    88  SER88      -0.2183
    125  N          2.5710   -6.9170   10.6870 N.3    90  ASN90      -0.1240
    126  CA         1.2340   -6.3050   10.5800 C.3    90  ASN90       0.1653
    127  C          0.1350   -7.2710   10.9980 C.2    90  ASN90       0.2266
    128  O         -0.9940   -6.8400   11.2800 O.2    90  ASN90      -0.2867
    129  CB         0.9160   -5.9740    9.1320 C.3    90  ASN90       0.1155
    130  CG         1.8050   -4.9270    8.5730 C.2    90  ASN90       0.2627
    131  OD1        2.2650   -4.0650    9.2880 O.2    90  ASN90      -0.2716
    132  ND2        2.0520   -5.0000    7.2570 N.am   90  ASN90      -0.0877
@<TRIPOS>BOND
     1    36    35   ar
     2    37    35   ar
     3    35    34    1
     4    32    31    2
     5    33    34    1
     6    33    30    1
     7    31    30    1
     8    31    38   am
     9    30    29    1
    10    39    38    1
    11    39    42    1
    12    39    40    1
    13    41    40    2
    14    42    43    1
    15     1     2    1
    16    29    25   am
    17    26    25    2
    18     3     2    1
    19     3     4    2
    20     5     2    1
    21     5     6    1
    22    25    24    1
    23     7     6    1
    24     7     8    1
    25    28    27    1
    26     8     9    2
    27    24    27    1
    28    24    23    1
    29    21    20    1
    30     9    10    1
    31     9    11    1
    32    18    19    1
    33    18    17    1
    34    20    19    2
    35    20    22    1
    36    16    17    1
    37    16    13    1
    38    68    67   ar
    39    68    66   ar
    40    67    65   ar
    41    14    13    1
    42    14    15    2
    43    13    12    1
    44    66    64   ar
    45    65    64   ar
    46    49    48    1
    47    64    63    1
    48    48    45    1
    49    63    60    1
    50    44    45    1
    51    45    46    1
    52    47    46    2
    53    86    85    1
    54    86    87    1
    55    60    59    1
    56    60    61    1
    57    85    84    1
    58    59    52   am
    59    88    87    1
    60    50    51    1
    61    52    53    2
    62    52    51    1
    63    61    62    2
    64    61    69   am
    65    84    81    1
    66    51    54    1
    67    81    80    1
    68    81    82    1
    69    72    71    2
    70    69    70    1
    71    80    71   am
    72    71    70    1
    73    70    73    1
    74    82    83    2
    75    54    55    1
    76    96    94    1
    77    55    56    1
    78    73    74    1
    79    89    90    1
    80    90    91    1
    81    90    93    1
    82    75    74   ar
    83    75    77   ar
    84    94    93    1
    85    94    95    1
    86    56    57    2
    87    56    58   am
    88    74    76   ar
    89    91    92    2
    90    77    79   ar
    91    76    78   ar
    92    79    78   ar
    93   104   102    1
    94   132   130   am
    95   100    99    2
    96   102   103    1
    97   102   101    1
    98   118   116   ar
    99   118   117   ar
   100    98   101    1
   101    98    99    1
   102    98    97    1
   103   116   114   ar
   104   117   115   ar
   105    99   105   am
   106   130   129    1
   107   130   131    2
   108   114   113   ar
   109   114   112   ar
   110   124   123    1
   111   129   126    1
   112   115   112   ar
   113   123   120    1
   114   113   111   ar
   115   112   110   ar
   116   105   106    1
   117   120   119    1
   118   120   121    1
   119   106   109    1
   120   106   107    1
   121   111   110   ar
   122   110   109    1
   123   126   125    1
   124   126   127    1
   125   108   107    2
   126   121   122    2
   127   127   128    2
