@<TRIPOS>MOLECULE
tmp/3s91A00.pdb
 133 131 0 0 0
SMALL
GASTEIGER

@<TRIPOS>ATOM
      1  N         34.6160    6.1390   17.3050 N.3    22  TRP22      -0.1228
      2  CA        35.4280    7.2920   17.7150 C.3    22  TRP22       0.1722
      3  C         36.5770    7.7320   16.7860 C.2    22  TRP22       0.2437
      4  O         36.7930    8.9330   16.6230 O.2    22  TRP22      -0.2733
      5  CB        35.9250    7.1380   19.1800 C.3    22  TRP22       0.0563
      6  CG        36.7950    5.9890   19.4150 C.ar   22  TRP22       0.0003
      7  CD1       36.3980    4.7250   19.7630 C.ar   22  TRP22       0.0946
      8  CD2       38.2270    5.9520   19.3280 C.ar   22  TRP22       0.0152
      9  NE1       37.4840    3.9070   19.8860 N.ar   22  TRP22      -0.2442
     10  CE2       38.6240    4.6300   19.6330 C.ar   22  TRP22       0.0810
     11  CE3       39.2110    6.9110   19.0590 C.ar   22  TRP22       0.0012
     12  CZ2       39.9650    4.2300   19.6470 C.ar   22  TRP22       0.0191
     13  CZ3       40.5470    6.5120   19.0500 C.ar   22  TRP22       0.0001
     14  CH2       40.9100    5.1760   19.3480 C.ar   22  TRP22       0.0015
     15  N         37.3060    6.7930   16.1590 N.am   23  PRO23      -0.2718
     16  CA        38.3380    7.2430   15.2250 C.3    23  PRO23       0.1535
     17  C         37.8110    7.9890   13.9920 C.2    23  PRO23       0.2598
     18  O         38.5710    8.6870   13.3380 O.2    23  PRO23      -0.2715
     19  CB        38.9810    5.9150   14.7760 C.3    23  PRO23       0.0310
     20  CG        38.6920    4.9760   15.8970 C.3    23  PRO23       0.0237
     21  CD        37.2680    5.3200   16.1950 C.3    23  PRO23       0.0939
     22  N         36.5200    7.8340   13.6940 N.am   24  PHE24      -0.1974
     23  CA        35.9110    8.3480   12.4620 C.3    24  PHE24       0.1639
     24  C         35.0510    9.5790   12.6740 C.2    24  PHE24       0.2290
     25  O         34.4030   10.0370   11.7230 O.2    24  PHE24      -0.2864
     26  CB        35.0840    7.2370   11.7680 C.3    24  PHE24       0.0560
     27  CG        35.8690    5.9680   11.5130 C.ar   24  PHE24      -0.0200
     28  CD1       36.6230    5.8260   10.3550 C.ar   24  PHE24      -0.0042
     29  CD2       35.8720    4.9300   12.4490 C.ar   24  PHE24      -0.0042
     30  CE1       37.3590    4.6660   10.1210 C.ar   24  PHE24      -0.0003
     31  CE2       36.6210    3.7770   12.2120 C.ar   24  PHE24      -0.0003
     32  CZ        37.3700    3.6590   11.0490 C.ar   24  PHE24      -0.0000
     33  N         36.0460   12.6410   13.2070 N.3    26  GLN26      -0.1231
     34  CA        36.7010   13.7920   12.6580 C.3    26  GLN26       0.1683
     35  C         37.7090   13.3260   11.6310 C.2    26  GLN26       0.2434
     36  O         38.0830   12.1410   11.6270 O.2    26  GLN26      -0.2733
     37  CB        37.4280   14.5560   13.7610 C.3    26  GLN26       0.0380
     38  CG        36.5220   15.2410   14.7600 C.3    26  GLN26       0.0905
     39  CD        37.3290   16.0940   15.7220 C.2    26  GLN26       0.2608
     40  OE1       38.1320   15.5820   16.5010 O.2    26  GLN26      -0.2717
     41  NE2       37.1390   17.4060   15.6540 N.am   26  GLN26      -0.0878
     42  N         38.1390   14.2430   10.7380 N.am   27  PRO27      -0.2718
     43  CA        39.1670   13.9120    9.7600 C.3    27  PRO27       0.1535
     44  C         40.4430   13.3020   10.3800 C.2    27  PRO27       0.2598
     45  O         40.8150   13.6820   11.4980 O.2    27  PRO27      -0.2715
     46  CB        39.4630   15.2770    9.1040 C.3    27  PRO27       0.0310
     47  CG        38.1630   16.0030    9.1860 C.3    27  PRO27       0.0237
     48  CD        37.6030   15.6100   10.5210 C.3    27  PRO27       0.0939
     49  N         41.0800   12.3470    9.6810 N.am   28  VAL28      -0.1978
     50  CA        42.4150   11.8760   10.0720 C.3    28  VAL28       0.1596
     51  C         43.3390   13.0950   10.1000 C.2    28  VAL28       0.2287
     52  O         43.4030   13.8730    9.1330 O.2    28  VAL28      -0.2864
     53  CB        42.9400   10.7110    9.1720 C.3    28  VAL28       0.0276
     54  CG1       44.3480   10.2970    9.5510 C.3    28  VAL28       0.0022
     55  CG2       42.0130    9.4780    9.3370 C.3    28  VAL28       0.0022
     56  N         48.9250   12.6970   14.2880 N.3    33  LEU33      -0.1245
     57  CA        49.2260   11.2510   14.3370 C.3    33  LEU33       0.1561
     58  C         50.5750   10.8940   13.6690 C.2    33  LEU33       0.2260
     59  O         50.9780    9.7220   13.5980 O.2    33  LEU33      -0.2867
     60  CB        48.0550   10.4390   13.7270 C.3    33  LEU33       0.0270
     61  CG        46.7000   10.4760   14.4860 C.3    33  LEU33       0.0019
     62  CD1       45.5960    9.6280   13.8100 C.3    33  LEU33       0.0001
     63  CD2       46.8490   10.0800   15.9520 C.3    33  LEU33       0.0001
     64  N         51.6180   11.0450   10.3820 N.3    35  LEU35      -0.1245
     65  CA        51.4300   10.2230    9.1750 C.3    35  LEU35       0.1561
     66  C         51.7800   11.0350    7.8900 C.2    35  LEU35       0.2260
     67  O         50.8640   11.5290    7.1970 O.2    35  LEU35      -0.2867
     68  CB        49.9840    9.6910    9.1160 C.3    35  LEU35       0.0270
     69  CG        49.3580    9.0940   10.3900 C.3    35  LEU35       0.0019
     70  CD1       47.8450    8.8440   10.1550 C.3    35  LEU35       0.0001
     71  CD2       50.0320    7.8250   10.8230 C.3    35  LEU35       0.0001
     72  N         50.1710    9.9070    4.6270 N.3    38  TYR38      -0.1241
     73  CA        48.6960    9.7060    4.6510 C.3    38  TYR38       0.1605
     74  C         48.0320   10.3900    3.4440 C.2    38  TYR38       0.2264
     75  O         47.2780    9.7680    2.6620 O.2    38  TYR38      -0.2867
     76  CB        48.0230   10.1630    5.9960 C.3    38  TYR38       0.0534
     77  CG        46.5630    9.7270    6.0550 C.ar   38  TYR38      -0.0201
     78  CD1       45.5460   10.6130    5.6520 C.ar   38  TYR38      -0.0009
     79  CD2       46.2030    8.4200    6.4040 C.ar   38  TYR38      -0.0009
     80  CE1       44.2220   10.2330    5.5970 C.ar   38  TYR38       0.0417
     81  CE2       44.8340    7.9940    6.3640 C.ar   38  TYR38       0.0417
     82  CZ        43.8470    8.9080    5.9520 C.ar   38  TYR38       0.1957
     83  OH        42.4940    8.5730    5.9050 O.3    38  TYR38      -0.2866
     84  N         40.7180    3.6440    5.2300 N.3    77  CYS77      -0.1235
     85  CA        41.2470    2.9040    6.3610 C.3    77  CYS77       0.1677
     86  C         41.9240    1.5720    5.9320 C.2    77  CYS77       0.2270
     87  O         43.0520    1.2970    6.3850 O.2    77  CYS77      -0.2867
     88  CB        40.0870    2.7090    7.3610 C.3    77  CYS77       0.0956
     89  SG        40.4970    1.9310    8.8210 S.3    77  CYS77      -0.0801
     90  N         45.2230    2.5400    3.8460 N.3    80  TYR80      -0.1227
     91  CA        46.3380    3.0480    4.6380 C.3    80  TYR80       0.1736
     92  C         46.8810    1.9880    5.6020 C.2    80  TYR80       0.2595
     93  O         48.0670    1.9360    5.8020 O.2    80  TYR80      -0.2718
     94  CB        45.9680    4.3130    5.4190 C.3    80  TYR80       0.0548
     95  CG        47.1760    4.9380    6.0290 C.ar   80  TYR80      -0.0200
     96  CD1       48.0990    5.5920    5.2350 C.ar   80  TYR80      -0.0009
     97  CD2       47.4460    4.8120    7.3850 C.ar   80  TYR80      -0.0009
     98  CE1       49.2420    6.1350    5.7620 C.ar   80  TYR80       0.0417
     99  CE2       48.5950    5.3510    7.9340 C.ar   80  TYR80       0.0417
    100  CZ        49.4970    6.0140    7.1080 C.ar   80  TYR80       0.1957
    101  OH        50.6510    6.5770    7.6050 O.3    80  TYR80      -0.2866
    102  N         46.0220    1.1500    6.1970 N.am   81  ASN81      -0.1974
    103  CA        46.4560    0.2770    7.2930 C.3    81  ASN81       0.1688
    104  C         46.7050   -1.1860    6.8620 C.2    81  ASN81       0.2292
    105  O         46.3220   -1.5970    5.7680 O.2    81  ASN81      -0.2864
    106  CB        45.4560    0.3890    8.4540 C.3    81  ASN81       0.1181
    107  CG        45.3460    1.8230    8.9830 C.2    81  ASN81       0.2629
    108  OD1       46.1560    2.2570    9.8180 O.2    81  ASN81      -0.2716
    109  ND2       44.3410    2.5730    8.4930 N.am   81  ASN81      -0.0877
    110  N         44.0670   -3.1780   14.3050 N.3    86  ASP86      -0.1225
    111  CA        42.8550   -2.9390   15.0740 C.3    86  ASP86       0.1805
    112  C         41.9090   -2.0210   14.3460 C.2    86  ASP86       0.2597
    113  O         40.7380   -2.3190   14.2790 O.2    86  ASP86      -0.2718
    114  CB        43.1730   -2.2890   16.4230 C.3    86  ASP86       0.1424
    115  CG        43.8300   -3.2460   17.4010 C.2    86  ASP86       0.3668
    116  OD1       43.6700   -4.4880   17.2570 O.co2  86  ASP86      -0.2456
    117  OD2       44.5060   -2.7370   18.3250 O.co2  86  ASP86      -0.2456
    118  N         42.4190   -0.9150   13.8020 N.am   87  ILE87      -0.1980
    119  CA        41.5800    0.0650   13.1130 C.3    87  ILE87       0.1595
    120  C         40.8550   -0.5810   11.9160 C.2    87  ILE87       0.2287
    121  O         39.6870   -0.2840   11.6790 O.2    87  ILE87      -0.2864
    122  CB        42.3750    1.3700   12.7410 C.3    87  ILE87       0.0276
    123  CG1       41.4400    2.5140   12.3390 C.3    87  ILE87       0.0022
    124  CG2       43.3530    1.1360   11.5950 C.3    87  ILE87       0.0022
    125  CD1       40.3720    2.8420   13.3170 C.3    87  ILE87       0.0001
    126  N         37.9970   -2.6940   13.2380 N.3    90  MET90      -0.1245
    127  CA        36.9720   -1.7550   13.6910 C.3    90  MET90       0.1570
    128  C         36.1520   -1.2250   12.5260 C.2    90  MET90       0.2261
    129  O         34.9210   -1.2400   12.5770 O.2    90  MET90      -0.2867
    130  CB        37.5980   -0.5770   14.4400 C.3    90  MET90       0.0387
    131  CG        38.2490   -0.9570   15.7680 C.3    90  MET90       0.0595
    132  SD        39.3420    0.2740   16.5290 S.3    90  MET90      -0.1393
    133  CE        38.1800    1.4630   17.2690 C.3    90  MET90       0.0692
@<TRIPOS>BOND
     1    75    74    2
     2    74    73    1
     3    90    91    1
     4    72    73    1
     5    91    94    1
     6    91    92    1
     7    73    76    1
     8    84    85    1
     9    96    98   ar
    10    96    95   ar
    11    94    95    1
    12    80    78   ar
    13    80    82   ar
    14    92    93    2
    15    92   102   am
    16    78    77   ar
    17    98   100   ar
    18   105   104    2
    19    83    82    1
    20    86    85    1
    21    86    87    2
    22    82    81   ar
    23    76    77    1
    24    95    97   ar
    25    77    79   ar
    26   102   103    1
    27    85    88    1
    28    81    79   ar
    29   104   103    1
    30   100   101    1
    31   100    99   ar
    32    67    66    2
    33   103   106    1
    34    88    89    1
    35    97    99   ar
    36    66    65    1
    37   106   107    1
    38   109   107   am
    39   107   108    2
    40    46    47    1
    41    46    43    1
    42    68    65    1
    43    68    69    1
    44    52    51    2
    45    53    55    1
    46    53    54    1
    47    53    50    1
    48    65    64    1
    49    47    48    1
    50    49    50    1
    51    49    44   am
    52    43    44    1
    53    43    42    1
    54    50    51    1
    55    30    28   ar
    56    30    32   ar
    57    70    69    1
    58    28    27   ar
    59    44    45    2
    60    69    71    1
    61    48    42    1
    62    42    35   am
    63    32    31   ar
    64    27    26    1
    65    27    29   ar
    66   124   122    1
    67    36    35    2
    68    35    34    1
    69   121   120    2
    70    25    24    2
    71    26    23    1
    72   120   119    1
    73    31    29   ar
    74   123   122    1
    75   123   125    1
    76    23    24    1
    77    23    22    1
    78   128   129    2
    79   128   127    1
    80    34    33    1
    81    34    37    1
    82   122   119    1
    83   119   118    1
    84   126   127    1
    85    18    17    2
    86    59    58    2
    87    58    57    1
    88   127   130    1
    89    22    17   am
    90    60    57    1
    91    60    61    1
    92    37    38    1
    93   118   112   am
    94    62    61    1
    95    17    16    1
    96   113   112    2
    97    56    57    1
    98   110   111    1
    99   112   111    1
   100   130   131    1
   101    61    63    1
   102    38    39    1
   103    19    16    1
   104    19    20    1
   105   111   114    1
   106    16    15    1
   107    41    39   am
   108    39    40    2
   109   131   132    1
   110    20    21    1
   111    15    21    1
   112    15     3   am
   113   114   115    1
   114   132   133    1
   115     4     3    2
   116     3     2    1
   117   116   115   ar
   118     1     2    1
   119   115   117   ar
   120     2     5    1
   121    13    11   ar
   122    13    14   ar
   123    11     8   ar
   124     5     6    1
   125     8     6   ar
   126     8    10   ar
   127    14    12   ar
   128     6     7   ar
   129    10    12   ar
   130    10     9   ar
   131     7     9   ar
