@<TRIPOS>MOLECULE
tmp/3s92A00.pdb
 144 141 0 0 0
SMALL
GASTEIGER

@<TRIPOS>ATOM
      1  N         30.9340   14.5570   15.2140 N.3    26  TRP26      -0.1228
      2  CA        30.5850   14.7040   16.6210 C.3    26  TRP26       0.1722
      3  C         29.8470   16.0020   17.0070 C.2    26  TRP26       0.2437
      4  O         28.9940   15.9720   17.9000 O.2    26  TRP26      -0.2733
      5  CB        31.7970   14.4370   17.5280 C.3    26  TRP26       0.0563
      6  CG        32.8820   15.4840   17.4730 C.ar   26  TRP26       0.0003
      7  CD1       33.9960   15.4930   16.6890 C.ar   26  TRP26       0.0946
      8  CD2       32.9220   16.6700   18.2350 C.ar   26  TRP26       0.0152
      9  NE1       34.7450   16.6110   16.9290 N.ar   26  TRP26      -0.2442
     10  CE2       34.1000   17.3530   17.8840 C.ar   26  TRP26       0.0810
     11  CE3       32.0700   17.2360   19.2000 C.ar   26  TRP26       0.0012
     12  CZ2       34.4160   18.5940   18.4220 C.ar   26  TRP26       0.0191
     13  CZ3       32.4240   18.4540   19.7630 C.ar   26  TRP26       0.0001
     14  CH2       33.5950   19.1010   19.3800 C.ar   26  TRP26       0.0015
     15  N         30.1300   17.1280   16.3280 N.am   27  PRO27      -0.2718
     16  CA        29.3840   18.3260   16.7060 C.3    27  PRO27       0.1535
     17  C         27.8850   18.2350   16.4530 C.2    27  PRO27       0.2598
     18  O         27.1320   19.0320   16.9710 O.2    27  PRO27      -0.2715
     19  CB        30.0320   19.4080   15.8380 C.3    27  PRO27       0.0310
     20  CG        31.4070   18.9600   15.6360 C.3    27  PRO27       0.0237
     21  CD        31.2130   17.4790   15.3790 C.3    27  PRO27       0.0939
     22  N         27.4980   17.2890   15.6070 N.am   28  PHE28      -0.1974
     23  CA        26.1190   17.0850   15.1790 C.3    28  PHE28       0.1639
     24  C         25.3860   15.9900   15.9390 C.2    28  PHE28       0.2290
     25  O         24.2430   15.7000   15.6590 O.2    28  PHE28      -0.2864
     26  CB        26.1220   16.8300   13.6670 C.3    28  PHE28       0.0560
     27  CG        26.9110   17.8820   12.9290 C.ar   28  PHE28      -0.0200
     28  CD1       26.3930   19.1540   12.7230 C.ar   28  PHE28      -0.0042
     29  CD2       28.2260   17.6390   12.5510 C.ar   28  PHE28      -0.0042
     30  CE1       27.1530   20.1560   12.1490 C.ar   28  PHE28      -0.0003
     31  CE2       28.9540   18.6350   11.9170 C.ar   28  PHE28      -0.0003
     32  CZ        28.4250   19.8920   11.7520 C.ar   28  PHE28      -0.0000
     33  N         24.2960   16.0440   19.1010 N.3    30  LYS30      -0.1245
     34  CA        23.2760   16.5630   20.0210 C.3    30  LYS30       0.1561
     35  C         22.9290   17.9830   19.6250 C.2    30  LYS30       0.2260
     36  O         23.6750   18.6080   18.8630 O.2    30  LYS30      -0.2867
     37  CB        23.8360   16.6350   21.4460 C.3    30  LYS30       0.0271
     38  CG        24.7360   15.4660   21.8480 C.3    30  LYS30       0.0035
     39  CD        25.5160   15.7070   23.1050 C.3    30  LYS30       0.0206
     40  CE        26.2140   14.4300   23.6140 C.3    30  LYS30       0.1093
     41  NZ        26.9130   14.7060   24.8990 N.3    30  LYS30      -0.1314
     42  N         22.7730   21.9050   19.4470 N.3    32  VAL32      -0.1231
     43  CA        23.6900   22.9560   19.8260 C.3    32  VAL32       0.1692
     44  C         23.2470   23.5160   21.1740 C.2    32  VAL32       0.2592
     45  O         22.1100   23.9600   21.3110 O.2    32  VAL32      -0.2718
     46  CB        23.7700   24.1050   18.7850 C.3    32  VAL32       0.0266
     47  CG1       24.5870   25.3030   19.3200 C.3    32  VAL32       0.0020
     48  CG2       24.3780   23.5520   17.5000 C.3    32  VAL32       0.0020
     49  N         24.1560   23.5270   22.1410 N.am   33  ASP33      -0.1974
     50  CA        23.9220   24.0640   23.4630 C.3    33  ASP33       0.1709
     51  C         24.4810   25.4920   23.4390 C.2    33  ASP33       0.2293
     52  O         25.6760   25.7380   23.6610 O.2    33  ASP33      -0.2864
     53  CB        24.5360   23.1870   24.5350 C.3    33  ASP33       0.1436
     54  CG        24.1650   23.6370   25.9490 C.2    33  ASP33       0.3671
     55  OD1       23.8970   24.8390   26.1570 O.co2  33  ASP33      -0.2456
     56  OD2       24.1630   22.7770   26.8590 O.co2  33  ASP33      -0.2456
     57  N         28.2180   26.9670   24.7550 N.3    37  LEU37      -0.1245
     58  CA        29.2380   27.3960   23.7800 C.3    37  LEU37       0.1561
     59  C         29.3760   28.9100   23.6800 C.2    37  LEU37       0.2260
     60  O         30.1670   29.4070   22.8690 O.2    37  LEU37      -0.2867
     61  CB        28.9310   26.8070   22.3980 C.3    37  LEU37       0.0270
     62  CG        28.8810   25.2770   22.3520 C.3    37  LEU37       0.0019
     63  CD1       28.4240   24.7710   20.9980 C.3    37  LEU37       0.0001
     64  CD2       30.2970   24.6940   22.7140 C.3    37  LEU37       0.0001
     65  N         27.2210   31.0860   22.5600 N.3    39  LEU39      -0.1245
     66  CA        26.6450   31.5510   21.2950 C.3    39  LEU39       0.1561
     67  C         25.3340   32.1820   21.6670 C.2    39  LEU39       0.2260
     68  O         24.2610   31.5980   21.5310 O.2    39  LEU39      -0.2867
     69  CB        26.4380   30.3740   20.3350 C.3    39  LEU39       0.0270
     70  CG        27.6570   29.4650   20.0880 C.3    39  LEU39       0.0019
     71  CD1       27.2690   28.1990   19.2530 C.3    39  LEU39       0.0001
     72  CD2       28.8220   30.2520   19.4720 C.3    39  LEU39       0.0001
     73  N         22.5390   32.3990   19.0050 N.3    42  TYR42      -0.1241
     74  CA        22.2870   31.2250   18.1640 C.3    42  TYR42       0.1605
     75  C         20.7990   31.0550   17.8540 C.2    42  TYR42       0.2264
     76  O         20.4160   30.8120   16.7160 O.2    42  TYR42      -0.2867
     77  CB        22.8380   29.9560   18.8200 C.3    42  TYR42       0.0534
     78  CG        22.7700   28.7550   17.9140 C.ar   42  TYR42      -0.0201
     79  CD1       21.7270   27.8710   18.0110 C.ar   42  TYR42      -0.0009
     80  CD2       23.7070   28.5960   16.8850 C.ar   42  TYR42      -0.0009
     81  CE1       21.6250   26.7920   17.1620 C.ar   42  TYR42       0.0417
     82  CE2       23.6180   27.5230   16.0350 C.ar   42  TYR42       0.0417
     83  CZ        22.5660   26.6310   16.1500 C.ar   42  TYR42       0.1957
     84  OH        22.4440   25.5620   15.2810 O.3    42  TYR42      -0.2866
     85  N         24.1460   25.0550   10.2440 N.3    81  CYS81      -0.1235
     86  CA        25.5610   25.2400   10.4850 C.3    81  CYS81       0.1677
     87  C         26.1800   26.2580    9.5050 C.2    81  CYS81       0.2270
     88  O         26.8960   27.1820    9.8830 O.2    81  CYS81      -0.2867
     89  CB        26.2720   23.8970   10.4190 C.3    81  CYS81       0.0956
     90  SG        28.0110   23.9290   10.8320 S.3    81  CYS81      -0.0801
     91  N         24.6860   29.8850   10.3290 N.3    84  TYR84      -0.1227
     92  CA        25.1930   30.5370   11.5240 C.3    84  TYR84       0.1736
     93  C         26.6530   30.9760   11.4200 C.2    84  TYR84       0.2595
     94  O         27.0380   32.0360   11.9430 O.2    84  TYR84      -0.2718
     95  CB        25.0190   29.6560   12.7790 C.3    84  TYR84       0.0548
     96  CG        25.4680   30.3530   14.0460 C.ar   84  TYR84      -0.0200
     97  CD1       24.6920   31.3560   14.5970 C.ar   84  TYR84      -0.0009
     98  CD2       26.6800   30.0290   14.6600 C.ar   84  TYR84      -0.0009
     99  CE1       25.1110   32.0450   15.7080 C.ar   84  TYR84       0.0417
    100  CE2       27.1030   30.7100   15.7930 C.ar   84  TYR84       0.0417
    101  CZ        26.3340   31.7280   16.2850 C.ar   84  TYR84       0.1957
    102  OH        26.7420   32.4050   17.4000 O.3    84  TYR84      -0.2866
    103  N         27.4700   30.1240   10.8020 N.am   85  ASN85      -0.1974
    104  CA        28.9150   30.2380   10.8670 C.3    85  ASN85       0.1688
    105  C         29.5280   30.9490    9.6740 C.2    85  ASN85       0.2292
    106  O         29.0920   30.7420    8.5710 O.2    85  ASN85      -0.2864
    107  CB        29.5530   28.8420   10.9810 C.3    85  ASN85       0.1181
    108  CG        29.2390   28.1820   12.2930 C.2    85  ASN85       0.2629
    109  OD1       28.2850   27.3700   12.4130 O.2    85  ASN85      -0.2716
    110  ND2       29.9070   28.6360   13.2990 N.am   85  ASN85      -0.0877
    111  N         34.9090   28.8560    9.2610 N.3    89  HIS89      -0.1226
    112  CA        34.8760   28.2210   10.5600 C.3    89  HIS89       0.1752
    113  C         35.1480   26.7180   10.3900 C.2    89  HIS89       0.2596
    114  O         34.6990   26.0630    9.4310 O.2    89  HIS89      -0.2718
    115  CB        33.5560   28.4790   11.2940 C.3    89  HIS89       0.0759
    116  CG        33.6010   29.6390   12.2340 C.ar   89  HIS89       0.0818
    117  ND1       32.8320   29.6910   13.3730 N.ar   89  HIS89      -0.2268
    118  CD2       34.3290   30.7800   12.2110 C.ar   89  HIS89       0.1154
    119  CE1       33.0790   30.8240   14.0120 C.ar   89  HIS89       0.1986
    120  NE2       33.9890   31.5000   13.3290 N.ar   89  HIS89      -0.2212
    121  N         35.8870   26.1610   11.3440 N.am   90  GLU90      -0.1965
    122  CA        36.2070   24.7340   11.2990 C.3    90  GLU90       0.1733
    123  C         34.9600   23.8520   11.2640 C.2    90  GLU90       0.2616
    124  O         34.9310   22.8320   10.5930 O.2    90  GLU90      -0.2715
    125  CB        37.0820   24.3880   12.5040 C.3    90  GLU90       0.0429
    126  CG        37.4230   22.9260   12.6440 C.3    90  GLU90       0.1163
    127  CD        38.1690   22.3660   11.4360 C.2    90  GLU90       0.3649
    128  OE1       38.8090   23.1590   10.6950 O.co2  90  GLU90      -0.2457
    129  OE2       38.1190   21.1310   11.2310 O.co2  90  GLU90      -0.2457
    130  N         33.9130   24.2540   11.9620 N.am   91  VAL91      -0.1977
    131  CA        32.7110   23.4220   12.0300 C.3    91  VAL91       0.1596
    132  C         32.0530   23.3120   10.6470 C.2    91  VAL91       0.2287
    133  O         31.4380   22.3000   10.3450 O.2    91  VAL91      -0.2864
    134  CB        31.7230   23.8940   13.0980 C.3    91  VAL91       0.0276
    135  CG1       31.0020   25.1810   12.6780 C.3    91  VAL91       0.0022
    136  CG2       30.7440   22.8030   13.4470 C.3    91  VAL91       0.0022
    137  N         33.6420   20.4750    8.8660 N.3    94  MET94      -0.1245
    138  CA        33.1530   19.2340    9.4360 C.3    94  MET94       0.1570
    139  C         31.7550   18.9000    8.9040 C.2    94  MET94       0.2261
    140  O         31.4960   17.7540    8.5040 O.2    94  MET94      -0.2867
    141  CB        33.1670   19.3180   10.9630 C.3    94  MET94       0.0387
    142  CG        34.5720   19.5170   11.5210 C.3    94  MET94       0.0595
    143  SD        34.6100   19.9670   13.2570 S.3    94  MET94      -0.1393
    144  CE        34.3890   18.3490   13.8360 C.3    94  MET94       0.0692
@<TRIPOS>BOND
     1   140   139    2
     2   106   105    2
     3   137   138    1
     4   139   138    1
     5   111   112    1
     6   114   113    2
     7   138   141    1
     8    87    88    2
     9    87    86    1
    10   105   104    1
    11    85    86    1
    12    91    92    1
    13   133   132    2
    14   113   112    1
    15   113   121   am
    16    89    86    1
    17    89    90    1
    18   112   115    1
    19   124   123    2
    20   132   131    1
    21   128   127   ar
    22   103   104    1
    23   103    93   am
    24   104   107    1
    25   141   142    1
    26   107   108    1
    27   129   127   ar
    28   123   122    1
    29   123   130   am
    30   115   116    1
    31   122   121    1
    32   122   125    1
    33    93    92    1
    34    93    94    2
    35   127   126    1
    36   142   143    1
    37    92    95    1
    38    32    31   ar
    39    32    30   ar
    40    31    29   ar
    41   130   131    1
    42   131   134    1
    43    30    28   ar
    44   118   116   ar
    45   118   120   ar
    46   116   117   ar
    47   108   109    2
    48   108   110   am
    49   125   126    1
    50    29    27   ar
    51   135   134    1
    52    28    27   ar
    53    95    96    1
    54    27    26    1
    55   134   136    1
    56   143   144    1
    57   120   119   ar
    58   117   119   ar
    59    26    23    1
    60    96    97   ar
    61    96    98   ar
    62    97    99   ar
    63    98   100   ar
    64    23    22    1
    65    23    24    1
    66     1     2    1
    67    84    83    1
    68    21    20    1
    69    21    15    1
    70    22    17   am
    71    20    19    1
    72    25    24    2
    73    99   101   ar
    74   100   101   ar
    75    19    16    1
    76    82    83   ar
    77    82    80   ar
    78    83    81   ar
    79   101   102    1
    80    15    16    1
    81    15     3   am
    82    17    16    1
    83    17    18    2
    84     2     3    1
    85     2     5    1
    86     7     9   ar
    87     7     6   ar
    88    76    75    2
    89    80    78   ar
    90     9    10   ar
    91     3     4    2
    92    81    79   ar
    93     6     5    1
    94     6     8   ar
    95    48    46    1
    96    75    74    1
    97    10     8   ar
    98    10    12   ar
    99    78    79   ar
   100    78    77    1
   101    74    77    1
   102    74    73    1
   103     8    11   ar
   104    12    14   ar
   105    46    47    1
   106    46    43    1
   107    36    35    2
   108    33    34    1
   109    11    13   ar
   110    71    70    1
   111    14    13   ar
   112    42    43    1
   113    72    70    1
   114    35    34    1
   115    43    44    1
   116    34    37    1
   117    70    69    1
   118    69    66    1
   119    63    62    1
   120    44    45    2
   121    44    49   am
   122    66    67    1
   123    66    65    1
   124    37    38    1
   125    68    67    2
   126    38    39    1
   127    49    50    1
   128    62    61    1
   129    62    64    1
   130    61    58    1
   131    60    59    2
   132    39    40    1
   133    51    50    1
   134    51    52    2
   135    50    53    1
   136    40    41    1
   137    59    58    1
   138    58    57    1
   139    53    54    1
   140    54    55   ar
   141    54    56   ar
