@<TRIPOS>MOLECULE
tmp/3s99A00.pdb
 96 93 0 0 0
SMALL
GASTEIGER

@<TRIPOS>ATOM
      1  N         24.8030   23.1790   39.1110 N.3     9  ILE9       -0.1245
      2  CA        24.5370   21.8190   39.5770 C.3     9  ILE9        0.1561
      3  C         23.9910   21.8480   41.0290 C.2     9  ILE9        0.2260
      4  O         23.3180   20.9230   41.4560 O.2     9  ILE9       -0.2867
      5  CB        25.8200   20.9580   39.4650 C.3     9  ILE9        0.0252
      6  CG1       25.5350   19.4710   39.7540 C.3     9  ILE9        0.0019
      7  CG2       26.9140   21.4680   40.4220 C.3     9  ILE9        0.0019
      8  CD1       25.1880   18.6720   38.5690 C.3     9  ILE9        0.0001
      9  N         30.9930   25.8760   45.7730 N.3    17  TRP17      -0.1241
     10  CA        31.1790   25.8140   44.3250 C.3    17  TRP17       0.1605
     11  C         30.1580   26.6220   43.5660 C.2    17  TRP17       0.2264
     12  O         30.5150   27.4500   42.7520 O.2    17  TRP17      -0.2867
     13  CB        31.0780   24.3620   43.8490 C.3    17  TRP17       0.0550
     14  CG        31.0710   24.2200   42.3520 C.ar   17  TRP17       0.0003
     15  CD1       29.9830   24.1210   41.5200 C.ar   17  TRP17       0.0946
     16  CD2       32.2230   24.2010   41.5190 C.ar   17  TRP17       0.0152
     17  NE1       30.4080   23.9870   40.2010 N.ar   17  TRP17      -0.2442
     18  CE2       31.7800   24.0640   40.1790 C.ar   17  TRP17       0.0810
     19  CE3       33.5980   24.2410   41.7800 C.ar   17  TRP17       0.0012
     20  CZ2       32.6740   23.9840   39.0950 C.ar   17  TRP17       0.0191
     21  CZ3       34.4920   24.2130   40.6960 C.ar   17  TRP17       0.0001
     22  CH2       34.0240   24.0760   39.3730 C.ar   17  TRP17       0.0015
     23  N         29.3900   22.9390   35.5300 N.3    69  SER69      -0.1202
     24  CA        29.7810   21.6780   36.1340 C.3    69  SER69       0.2020
     25  C         30.2560   20.7090   35.0710 C.2    69  SER69       0.2618
     26  O         29.7500   20.7050   33.9660 O.2    69  SER69      -0.2717
     27  CB        28.6040   21.0680   36.9020 C.3    69  SER69       0.2103
     28  OG        28.9850   19.8740   37.5660 O.3    69  SER69      -0.2182
     29  N         31.2050   19.8610   35.4400 N.am   70  PHE70      -0.1975
     30  CA        31.8200   18.9000   34.5450 C.3    70  PHE70       0.1639
     31  C         30.8310   18.0160   33.7960 C.2    70  PHE70       0.2290
     32  O         30.9830   17.7990   32.6070 O.2    70  PHE70      -0.2864
     33  CB        32.7960   18.0030   35.3180 C.3    70  PHE70       0.0560
     34  CG        33.5170   17.0160   34.4470 C.ar   70  PHE70      -0.0200
     35  CD1       34.3540   17.4540   33.4250 C.ar   70  PHE70      -0.0042
     36  CD2       33.3840   15.6530   34.6580 C.ar   70  PHE70      -0.0042
     37  CE1       35.0270   16.5500   32.6030 C.ar   70  PHE70      -0.0003
     38  CE2       34.0640   14.7270   33.8420 C.ar   70  PHE70      -0.0003
     39  CZ        34.9070   15.1940   32.8220 C.ar   70  PHE70      -0.0000
     40  N         35.3030   23.3370   33.1110 N.3    92  THR92      -0.1218
     41  CA        36.1750   22.2040   33.4570 C.3    92  THR92       0.1862
     42  C         36.1800   21.0720   32.4520 C.2    92  THR92       0.2287
     43  O         36.8810   20.0970   32.6610 O.2    92  THR92      -0.2866
     44  CB        35.9450   21.6100   34.8900 C.3    92  THR92       0.1770
     45  OG1       34.8080   20.7330   34.8990 O.3    92  THR92      -0.2211
     46  CG2       35.7290   22.7150   35.9180 C.3    92  THR92       0.0375
     47  N         39.6730   15.2640   37.4440 N.3   137  GLU137     -0.1245
     48  CA        39.8560   16.4790   38.2750 C.3   137  GLU137      0.1567
     49  C         40.0200   16.1660   39.7830 C.2   137  GLU137      0.2260
     50  O         40.8630   16.7740   40.4800 O.2   137  GLU137     -0.2867
     51  CB        38.6940   17.4590   38.0960 C.3   137  GLU137      0.0388
     52  CG        38.7670   18.7160   38.9830 C.3   137  GLU137      0.1160
     53  CD        37.5510   19.5950   38.8390 C.2   137  GLU137      0.3649
     54  OE1       37.1180   19.7890   37.6780 O.co2 137  GLU137     -0.2457
     55  OE2       37.0240   20.0870   39.8700 O.co2 137  GLU137     -0.2457
     56  N         28.5460   15.8450   43.5710 N.3   166  TRP166     -0.1241
     57  CA        29.2510   17.0620   43.8730 C.3   166  TRP166      0.1605
     58  C         28.6490   17.7580   45.0740 C.2   166  TRP166      0.2264
     59  O         29.3670   18.3170   45.8840 O.2   166  TRP166     -0.2867
     60  CB        29.2490   18.0220   42.6910 C.3   166  TRP166      0.0550
     61  CG        29.9590   17.4980   41.4490 C.ar  166  TRP166      0.0003
     62  CD1       29.3550   17.0530   40.2900 C.ar  166  TRP166      0.0946
     63  CD2       31.3780   17.4180   41.2170 C.ar  166  TRP166      0.0152
     64  NE1       30.3140   16.6860   39.3820 N.ar  166  TRP166     -0.2442
     65  CE2       31.5560   16.9020   39.9090 C.ar  166  TRP166      0.0810
     66  CE3       32.5210   17.7090   41.9950 C.ar  166  TRP166      0.0012
     67  CZ2       32.8200   16.6760   39.3590 C.ar  166  TRP166      0.0191
     68  CZ3       33.7890   17.4980   41.4320 C.ar  166  TRP166      0.0001
     69  CH2       33.9260   16.9780   40.1440 C.ar  166  TRP166      0.0015
     70  N         36.4010   17.6400   48.0420 N.3   190  HIS190     -0.1241
     71  CA        36.1110   18.0500   46.6660 C.3   190  HIS190      0.1621
     72  C         34.6120   18.0480   46.3540 C.2   190  HIS190      0.2264
     73  O         34.1950   17.9180   45.1980 O.2   190  HIS190     -0.2867
     74  CB        36.8540   17.1560   45.6920 C.3   190  HIS190      0.0745
     75  CG        37.2010   17.8200   44.3960 C.ar  190  HIS190      0.0817
     76  ND1       38.4740   17.7650   43.8540 N.ar  190  HIS190     -0.2268
     77  CD2       36.4370   18.4930   43.4980 C.ar  190  HIS190      0.1154
     78  CE1       38.4800   18.4040   42.6950 C.ar  190  HIS190      0.1986
     79  NE2       37.2540   18.8340   42.4420 N.ar  190  HIS190     -0.2212
     80  N         30.8430   20.3410   47.2100 N.3   192  ASP192     -0.1239
     81  CA        30.4850   21.7390   46.9060 C.3   192  ASP192      0.1674
     82  C         30.0780   22.6010   48.0930 C.2   192  ASP192      0.2266
     83  O         30.0500   23.8280   47.9850 O.2   192  ASP192     -0.2867
     84  CB        29.3440   21.7420   45.8680 C.3   192  ASP192      0.1410
     85  CG        29.7990   21.2640   44.4760 C.2   192  ASP192      0.3668
     86  OD1       31.0290   20.9960   44.3070 O.co2 192  ASP192     -0.2456
     87  OD2       28.9310   21.1960   43.5390 O.co2 192  ASP192     -0.2456
     88  N         36.5530   25.1380   50.1910 N.3   210  GLN210     -0.1245
     89  CA        36.5430   24.6760   48.8230 C.3   210  GLN210      0.1566
     90  C         35.7730   25.6280   47.9450 C.2   210  GLN210      0.2260
     91  O         34.6130   25.8990   48.2310 O.2   210  GLN210     -0.2867
     92  CB        35.8440   23.3060   48.7760 C.3   210  GLN210      0.0367
     93  CG        35.6190   22.6740   47.3700 C.3   210  GLN210      0.0905
     94  CD        36.8650   22.3610   46.5780 C.2   210  GLN210      0.2608
     95  OE1       38.0230   22.6110   47.0090 O.2   210  GLN210     -0.2717
     96  NE2       36.6450   21.7790   45.3950 N.am  210  GLN210     -0.0878
@<TRIPOS>BOND
     1    42    43    2
     2    42    41    1
     3    37    39   ar
     4    37    35   ar
     5    32    31    2
     6    39    38   ar
     7    40    41    1
     8    35    34   ar
     9    41    44    1
    10    31    30    1
    11    38    36   ar
    12    26    25    2
    13    34    36   ar
    14    34    33    1
    15    30    33    1
    16    30    29    1
    17    44    45    1
    18    44    46    1
    19    25    29   am
    20    25    24    1
    21    23    24    1
    22    24    27    1
    23    27    28    1
    24    47    48    1
    25    54    53   ar
    26    51    48    1
    27    51    52    1
    28    48    49    1
    29     8     6    1
    30    53    52    1
    31    53    55   ar
    32    20    22   ar
    33    20    18   ar
    34     1     2    1
    35    67    65   ar
    36    67    69   ar
    37    22    21   ar
    38    64    65   ar
    39    64    62   ar
    40     5     2    1
    41     5     6    1
    42     5     7    1
    43     2     3    1
    44    49    50    2
    45    65    63   ar
    46    69    68   ar
    47    18    17   ar
    48    18    16   ar
    49    17    15   ar
    50    62    61   ar
    51    21    19   ar
    52     3     4    2
    53    63    61   ar
    54    63    66   ar
    55    68    66   ar
    56    61    60    1
    57    16    19   ar
    58    16    14   ar
    59    15    14   ar
    60    14    13    1
    61    79    78   ar
    62    79    77   ar
    63    60    57    1
    64    78    76   ar
    65    12    11    2
    66    77    75   ar
    67    87    85   ar
    68    11    10    1
    69    56    57    1
    70    13    10    1
    71    76    75   ar
    72    57    58    1
    73    86    85   ar
    74    10     9    1
    75    75    74    1
    76    85    84    1
    77    58    59    2
    78    73    72    2
    79    96    94   am
    80    74    71    1
    81    84    81    1
    82    72    71    1
    83    94    95    2
    84    94    93    1
    85    71    70    1
    86    81    80    1
    87    81    82    1
    88    93    92    1
    89    90    91    2
    90    90    89    1
    91    83    82    2
    92    92    89    1
    93    89    88    1
