@<TRIPOS>MOLECULE
tmp/3s9cA03.pdb
 79 75 0 0 0
SMALL
GASTEIGER

@<TRIPOS>ATOM
      1  N         22.1770   37.1690   -8.4440 N.3    11  GLU11      -0.1245
      2  CA        22.0720   37.2140   -6.9860 C.3    11  GLU11       0.1567
      3  C         20.8040   36.5800   -6.4090 C.2    11  GLU11       0.2260
      4  O         20.6430   36.5390   -5.1890 O.2    11  GLU11      -0.2867
      5  CB        22.1200   38.6760   -6.4940 C.3    11  GLU11       0.0388
      6  CG        20.8400   39.4910   -6.7950 C.3    11  GLU11       0.1160
      7  CD        20.7770   40.8130   -6.0290 C.2    11  GLU11       0.3649
      8  OE1       20.6980   40.7690   -4.7870 O.co2  11  GLU11      -0.2457
      9  OE2       20.8040   41.8940   -6.6640 O.co2  11  GLU11      -0.2457
     10  N         19.5860   44.3670    8.7900 N.3   119  ARG119     -0.1231
     11  CA        19.3360   44.8610    7.4350 C.3   119  ARG119      0.1694
     12  C         19.0550   43.6260    6.5940 C.2   119  ARG119      0.2592
     13  O         19.7400   42.6000    6.7210 O.2   119  ARG119     -0.2718
     14  CB        20.5320   45.6350    6.8490 C.3   119  ARG119      0.0321
     15  CG        20.1430   46.4700    5.6050 C.3   119  ARG119      0.0489
     16  CD        21.2830   47.3000    4.9990 C.3   119  ARG119      0.2205
     17  NE        22.1810   46.4800    4.2030 N.pl3 119  ARG119     -0.0865
     18  CZ        23.1050   46.9470    3.3630 C.cat 119  ARG119      0.5346
     19  NH1       23.2770   48.2570    3.1870 N.pl3 119  ARG119      0.1354
     20  NH2       23.8590   46.0920    2.6880 N.pl3 119  ARG119      0.1354
     21  N         18.0440   43.7250    5.7380 N.am  120  CYS120     -0.1956
     22  CA        17.6420   42.6040    4.8980 C.3   120  CYS120      0.1843
     23  C         17.3930   43.0840    3.4900 C.2   120  CYS120      0.2625
     24  O         17.3760   44.2750    3.2250 O.2   120  CYS120     -0.2714
     25  CB        16.3660   41.9720    5.4470 C.3   120  CYS120      0.0997
     26  SG        16.4600   41.5230    7.2120 S.3   120  CYS120     -0.0797
     27  N         17.1880   42.1450    2.5830 N.am  121  ARG121     -0.1977
     28  CA        16.9430   42.4980    1.1920 C.3   121  ARG121      0.1597
     29  C         15.5880   41.9460    0.7810 C.2   121  ARG121      0.2287
     30  O         15.2200   40.8340    1.1830 O.2   121  ARG121     -0.2864
     31  CB        18.0150   41.8720    0.3080 C.3   121  ARG121      0.0334
     32  CG        18.0910   42.3830   -1.1220 C.3   121  ARG121      0.0492
     33  CD        19.5440   42.2750   -1.5990 C.3   121  ARG121      0.2205
     34  NE        19.7720   42.7440   -2.9670 N.pl3 121  ARG121     -0.0865
     35  CZ        19.9650   44.0100   -3.3300 C.cat 121  ARG121      0.5346
     36  NH1       19.9510   44.9850   -2.4320 N.pl3 121  ARG121      0.1354
     37  NH2       20.2140   44.2910   -4.6000 N.pl3 121  ARG121      0.1354
     38  N         12.9650   41.4400   -2.7430 N.3   123  MET123     -0.1245
     39  CA        13.0900   41.2790   -4.1870 C.3   123  MET123      0.1570
     40  C         11.8160   40.6410   -4.7360 C.2   123  MET123      0.2261
     41  O         11.1940   39.8060   -4.0800 O.2   123  MET123     -0.2867
     42  CB        14.2650   40.3380   -4.4830 C.3   123  MET123      0.0387
     43  CG        14.1210   39.0030   -3.7690 C.3   123  MET123      0.0595
     44  SD        15.5920   37.9600   -3.8070 S.3   123  MET123     -0.1393
     45  CE        16.7910   38.9720   -2.9730 C.3   123  MET123      0.0692
     46  N         17.1570   47.2310    0.0230 N.3   141  ASN141     -0.1240
     47  CA        17.3960   46.8270    1.3970 C.3   141  ASN141      0.1653
     48  C         16.4590   47.5380    2.3390 C.2   141  ASN141      0.2266
     49  O         16.1450   48.7180    2.1400 O.2   141  ASN141     -0.2867
     50  CB        18.8440   47.1500    1.7820 C.3   141  ASN141      0.1155
     51  CG        19.8370   46.3820    0.9430 C.2   141  ASN141      0.2627
     52  OD1       19.5980   45.2210    0.6000 O.2   141  ASN141     -0.2716
     53  ND2       20.9600   47.0160    0.6100 N.am  141  ASN141     -0.0877
     54  N         15.4430   38.3560    2.7210 N.3   185  ILE185     -0.1231
     55  CA        16.7720   37.7590    2.9470 C.3   185  ILE185      0.1692
     56  C         17.5970   38.5810    3.9360 C.2   185  ILE185      0.2592
     57  O         17.8440   39.7640    3.7050 O.2   185  ILE185     -0.2718
     58  CB        17.5740   37.6630    1.6070 C.3   185  ILE185      0.0266
     59  CG1       16.7880   36.8410    0.5810 C.3   185  ILE185      0.0019
     60  CG2       18.9660   37.0110    1.8400 C.3   185  ILE185      0.0020
     61  CD1       16.6400   35.3700    0.9530 C.3   185  ILE185      0.0001
     62  N         18.0190   37.9660    5.0400 N.am  186  CYS186     -0.1956
     63  CA        18.8430   38.6880    6.0200 C.3   186  CYS186      0.1843
     64  C         20.0500   37.7920    6.2880 C.2   186  CYS186      0.2625
     65  O         19.8970   36.6470    6.6980 O.2   186  CYS186     -0.2714
     66  CB        18.0940   38.9180    7.3440 C.3   186  CYS186      0.0997
     67  SG        16.3590   39.4820    7.2350 S.3   186  CYS186     -0.0797
     68  N         21.2370   38.3170    6.0210 N.am  187  ASN187     -0.1958
     69  CA        22.4660   37.5560    6.2150 C.3   187  ASN187      0.1819
     70  C         22.4550   36.2510    5.4260 C.2   187  ASN187      0.2621
     71  O         22.7600   35.1780    5.9510 O.2   187  ASN187     -0.2715
     72  CB        22.6650   37.3000    7.7040 C.3   187  ASN187      0.1195
     73  CG        22.7300   38.5960    8.4930 C.2   187  ASN187      0.2630
     74  OD1       21.7480   39.0060    9.1250 O.2   187  ASN187     -0.2716
     75  ND2       23.8840   39.2720    8.4340 N.am  187  ASN187     -0.0877
     76  N         22.0930   36.3540    4.1520 N.am  188  GLY188     -0.1954
     77  CA        22.0590   35.1810    3.3000 C.3   188  GLY188      0.1869
     78  C         20.9990   34.1390    3.6210 C.2   188  GLY188      0.2309
     79  O         20.9720   33.1030    2.9700 O.2   188  GLY188     -0.2863
@<TRIPOS>BOND
     1     1     2    1
     2     2     5    1
     3     2     3    1
     4     6     5    1
     5     6     7    1
     6     9     7   ar
     7     3     4    2
     8     7     8   ar
     9    40    39    1
    10    40    41    2
    11    37    35    1
    12    42    39    1
    13    42    43    1
    14    39    38    1
    15    44    43    1
    16    44    45    1
    17    35    34    2
    18    35    36    1
    19    34    33    1
    20    33    32    1
    21    32    31    1
    22    46    47    1
    23    31    28    1
    24    59    61    1
    25    59    58    1
    26    52    51    2
    27    53    51   am
    28    29    30    2
    29    29    28    1
    30    51    50    1
    31    28    27    1
    32    47    50    1
    33    47    48    1
    34    58    60    1
    35    58    55    1
    36    49    48    2
    37    27    23   am
    38    20    18    1
    39    54    55    1
    40    55    56    1
    41    79    78    2
    42    19    18    1
    43    24    23    2
    44    77    78    1
    45    77    76    1
    46    18    17    2
    47    23    22    1
    48    57    56    2
    49    56    62   am
    50    76    70   am
    51    17    16    1
    52    22    25    1
    53    22    21    1
    54    16    15    1
    55    62    63    1
    56    70    71    2
    57    70    69    1
    58    25    26    1
    59    15    14    1
    60    21    12   am
    61    63    64    1
    62    63    66    1
    63    68    69    1
    64    68    64   am
    65    69    72    1
    66    64    65    2
    67    12    13    2
    68    12    11    1
    69    14    11    1
    70    26    67    1
    71    67    66    1
    72    11    10    1
    73    72    73    1
    74    75    73   am
    75    73    74    2
