@<TRIPOS>MOLECULE
tmp/3s9cA00.pdb
 196 191 0 0 0
SMALL
GASTEIGER

@<TRIPOS>ATOM
      1  N          1.8220   36.8180  -10.0870 N.3    27  HIS27      -0.1226
      2  CA         1.0690   37.3150   -8.9310 C.3    27  HIS27       0.1752
      3  C          1.7750   37.1860   -7.5790 C.2    27  HIS27       0.2596
      4  O          1.3030   37.7300   -6.5930 O.2    27  HIS27      -0.2718
      5  CB        -0.3100   36.6370   -8.8510 C.3    27  HIS27       0.0759
      6  CG        -0.2570   35.1740   -8.5130 C.ar   27  HIS27       0.0818
      7  ND1       -0.1260   34.1880   -9.4710 N.ar   27  HIS27      -0.2268
      8  CD2       -0.2550   34.5370   -7.3200 C.ar   27  HIS27       0.1154
      9  CE1       -0.0400   33.0070   -8.8800 C.ar   27  HIS27       0.1986
     10  NE2       -0.1120   33.1900   -7.5720 N.ar   27  HIS27      -0.2212
     11  N          2.8940   36.4660   -7.5400 N.am   28  CYS28      -0.1970
     12  CA         3.6510   36.2730   -6.3140 C.3    28  CYS28       0.1712
     13  C          5.0180   35.7170   -6.6440 C.2    28  CYS28       0.2296
     14  O          5.3030   35.3810   -7.7910 O.2    28  CYS28      -0.2864
     15  CB         2.9800   35.2260   -5.4220 C.3    28  CYS28       0.0983
     16  SG         1.5950   35.7910   -4.3760 S.3    28  CYS28      -0.0798
     17  N         -1.6060   32.8450    0.6650 N.3    43  HIS43      -0.1241
     18  CA        -2.5340   33.5610   -0.1990 C.3    43  HIS43       0.1621
     19  C         -2.1280   33.6090   -1.6660 C.2    43  HIS43       0.2264
     20  O         -2.8940   34.0600   -2.5070 O.2    43  HIS43      -0.2867
     21  CB        -2.8670   34.9620    0.3720 C.3    43  HIS43       0.0745
     22  CG        -1.8610   36.0310    0.0600 C.ar   43  HIS43       0.0817
     23  ND1       -0.9320   36.4830    0.9780 N.ar   43  HIS43      -0.2268
     24  CD2       -1.7150   36.8090   -1.0390 C.ar   43  HIS43       0.1154
     25  CE1       -0.2680   37.5040    0.4580 C.ar   43  HIS43       0.1986
     26  NE2       -0.7290   37.7210   -0.7640 N.ar   43  HIS43      -0.2212
     27  N         -7.4010   32.2530   12.0610 N.3    81  PHE81      -0.1241
     28  CA        -8.3630   32.6930   11.0450 C.3    81  PHE81       0.1605
     29  C         -8.8450   31.5190   10.2020 C.2    81  PHE81       0.2264
     30  O         -8.0740   30.6160    9.8710 O.2    81  PHE81      -0.2867
     31  CB        -7.7440   33.7180   10.0810 C.3    81  PHE81       0.0534
     32  CG        -7.1770   34.9390   10.7430 C.ar   81  PHE81      -0.0203
     33  CD1       -6.5080   35.8930    9.9790 C.ar   81  PHE81      -0.0042
     34  CD2       -7.2920   35.1400   12.1180 C.ar   81  PHE81      -0.0042
     35  CE1       -5.9580   37.0280   10.5630 C.ar   81  PHE81      -0.0003
     36  CE2       -6.7450   36.2730   12.7200 C.ar   81  PHE81      -0.0003
     37  CZ        -6.0720   37.2240   11.9370 C.ar   81  PHE81      -0.0000
     38  N         -9.4170   31.4010    7.1000 N.3    83  ASN83      -0.1240
     39  CA        -8.6670   31.3270    5.8440 C.3    83  ASN83       0.1653
     40  C         -7.1830   31.0710    6.0380 C.2    83  ASN83       0.2266
     41  O         -6.4300   31.0330    5.0680 O.2    83  ASN83      -0.2867
     42  CB        -8.8750   32.5860    4.9800 C.3    83  ASN83       0.1155
     43  CG        -8.3980   33.8660    5.6430 C.2    83  ASN83       0.2627
     44  OD1       -7.5890   33.8590    6.5800 O.2    83  ASN83      -0.2716
     45  ND2       -8.8810   34.9870    5.1300 N.am   83  ASN83      -0.0877
     46  N         -4.8480   32.9080    7.0150 N.3    85  LEU85      -0.1245
     47  CA        -3.9080   33.9890    6.6990 C.3    85  LEU85       0.1561
     48  C         -3.2190   34.6710    7.8800 C.2    85  LEU85       0.2260
     49  O         -2.4620   35.6440    7.7100 O.2    85  LEU85      -0.2867
     50  CB        -4.5810   34.9980    5.7730 C.3    85  LEU85       0.0270
     51  CG        -4.9850   34.3540    4.4300 C.3    85  LEU85       0.0019
     52  CD1       -5.2820   35.4610    3.4330 C.3    85  LEU85       0.0001
     53  CD2       -3.8480   33.4250    3.8710 C.3    85  LEU85       0.0001
     54  N          0.4110   33.0440    7.1890 N.3    88  ASP88      -0.1239
     55  CA         0.4750   33.1180    5.7380 C.3    88  ASP88       0.1674
     56  C          1.7470   32.4710    5.2040 C.2    88  ASP88       0.2266
     57  O          2.7400   33.1380    4.9490 O.2    88  ASP88      -0.2867
     58  CB         0.3760   34.5870    5.3140 C.3    88  ASP88       0.1410
     59  CG        -0.1620   34.7570    3.8980 C.2    88  ASP88       0.3668
     60  OD1       -0.2850   33.7530    3.1580 O.co2  88  ASP88      -0.2456
     61  OD2       -0.4620   35.9030    3.5170 O.co2  88  ASP88      -0.2456
     62  N         -1.1940   49.6740   12.2980 N.3   153  LEU153     -0.1231
     63  CA        -1.5170   49.7040   10.8780 C.3   153  LEU153      0.1693
     64  C         -2.3090   48.4820   10.4510 C.2   153  LEU153      0.2592
     65  O         -3.1860   48.5640    9.5940 O.2   153  LEU153     -0.2718
     66  CB        -0.2280   49.7470   10.0470 C.3   153  LEU153      0.0284
     67  CG         0.7590   50.8690   10.3530 C.3   153  LEU153      0.0019
     68  CD1        1.9690   50.7360    9.4450 C.3   153  LEU153      0.0001
     69  CD2        0.0640   52.2070   10.1610 C.3   153  LEU153      0.0001
     70  N         -1.9930   47.3470   11.0580 N.am  154  TYR154     -0.1976
     71  CA        -2.6350   46.1000   10.6860 C.3   154  TYR154      0.1639
     72  C         -3.2300   45.4140   11.9150 C.2   154  TYR154      0.2290
     73  O         -2.6000   44.5470   12.5120 O.2   154  TYR154     -0.2864
     74  CB        -1.5910   45.1910   10.0060 C.3   154  TYR154      0.0560
     75  CG        -0.6730   45.9580    9.0610 C.ar  154  TYR154     -0.0198
     76  CD1        0.7020   46.0380    9.2990 C.ar  154  TYR154     -0.0009
     77  CD2       -1.1890   46.6280    7.9480 C.ar  154  TYR154     -0.0009
     78  CE1        1.5490   46.7750    8.4440 C.ar  154  TYR154      0.0417
     79  CE2       -0.3560   47.3670    7.0910 C.ar  154  TYR154      0.0417
     80  CZ         1.0060   47.4410    7.3470 C.ar  154  TYR154      0.1957
     81  OH         1.8060   48.2220    6.5280 O.3   154  TYR154     -0.2866
     82  N         -5.2370   43.1200   12.3230 N.3   156  TRP156     -0.1227
     83  CA        -5.2750   41.6680   12.2040 C.3   156  TRP156      0.1737
     84  C         -3.9190   40.9970   12.4830 C.2   156  TRP156      0.2595
     85  O         -3.8090   39.7730   12.5030 O.2   156  TRP156     -0.2718
     86  CB        -5.8090   41.2880   10.8110 C.3   156  TRP156      0.0564
     87  CG        -5.1340   42.0110    9.6690 C.ar  156  TRP156      0.0003
     88  CD1       -4.0610   41.5750    8.9410 C.ar  156  TRP156      0.0946
     89  CD2       -5.4390   43.3250    9.1850 C.ar  156  TRP156      0.0152
     90  NE1       -3.6730   42.5430    8.0350 N.ar  156  TRP156     -0.2442
     91  CE2       -4.5000   43.6260    8.1660 C.ar  156  TRP156      0.0810
     92  CE3       -6.4080   44.2810    9.5140 C.ar  156  TRP156      0.0012
     93  CZ2       -4.5040   44.8440    7.4770 C.ar  156  TRP156      0.0191
     94  CZ3       -6.4100   45.5010    8.8230 C.ar  156  TRP156      0.0001
     95  CH2       -5.4620   45.7670    7.8190 C.ar  156  TRP156      0.0015
     96  N         -2.8900   41.7970   12.7230 N.am  157  VAL157     -0.1980
     97  CA        -1.5640   41.2620   13.0170 C.3   157  VAL157      0.1595
     98  C         -1.1570   41.6470   14.4480 C.2   157  VAL157      0.2287
     99  O         -0.5320   42.6950   14.6680 O.2   157  VAL157     -0.2864
    100  CB        -0.5150   41.8190   12.0310 C.3   157  VAL157      0.0276
    101  CG1        0.8750   41.2960   12.3870 C.3   157  VAL157      0.0022
    102  CG2       -0.8950   41.4440   10.6140 C.3   157  VAL157      0.0022
    103  N          9.9570   49.5250   -0.1770 N.3   174  ASP174     -0.1225
    104  CA         8.9710   48.6180    0.4240 C.3   174  ASP174      0.1805
    105  C          8.6560   47.5530   -0.6190 C.2   174  ASP174      0.2598
    106  O          9.0050   47.7160   -1.7920 O.2   174  ASP174     -0.2718
    107  CB         7.7040   49.4610    0.7040 C.3   174  ASP174      0.1424
    108  CG         6.5980   48.7010    1.4680 C.2   174  ASP174      0.3668
    109  OD1        5.4720   49.2590    1.5290 O.co2 174  ASP174     -0.2456
    110  OD2        6.8500   47.5910    2.0140 O.co2 174  ASP174     -0.2456
    111  N          8.0430   46.4470   -0.2120 N.am  175  THR175     -0.1939
    112  CA         7.5990   45.4870   -1.2170 C.3   175  THR175      0.2028
    113  C          6.2810   46.0930   -1.7160 C.2   175  THR175      0.2642
    114  O          5.8210   47.1360   -1.2060 O.2   175  THR175     -0.2714
    115  CB         7.2950   44.1050   -0.6050 C.3   175  THR175      0.1808
    116  OG1        6.6770   44.2850    0.6720 O.3   175  THR175     -0.2208
    117  CG2        8.5860   43.2810   -0.4740 C.3   175  THR175      0.0379
    118  N          5.6520   45.4580   -2.7000 N.am  176  CYS176     -0.1953
    119  CA         4.3980   46.0080   -3.2110 C.3   176  CYS176      0.1843
    120  C          3.5630   44.9210   -3.8670 C.2   176  CYS176      0.2625
    121  O          3.8960   43.7350   -3.7610 O.2   176  CYS176     -0.2714
    122  CB         4.7010   47.1550   -4.1900 C.3   176  CYS176      0.0997
    123  SG         3.4000   48.4360   -4.3510 S.3   176  CYS176     -0.0797
    124  N          2.4790   45.3120   -4.5360 N.am  177  HIS177     -0.1959
    125  CA         1.5810   44.3510   -5.1730 C.3   177  HIS177      0.1787
    126  C          2.3140   43.3750   -6.0570 C.2   177  HIS177      0.2620
    127  O          3.0610   43.7820   -6.9590 O.2   177  HIS177     -0.2715
    128  CB         0.5190   45.0970   -6.0090 C.3   177  HIS177      0.0785
    129  CG        -0.0960   46.2400   -5.2660 C.ar  177  HIS177      0.0821
    130  ND1       -0.8360   46.0620   -4.1150 N.ar  177  HIS177     -0.2267
    131  CD2       -0.0140   47.5790   -5.4620 C.ar  177  HIS177      0.1154
    132  CE1       -1.1850   47.2440   -3.6330 C.ar  177  HIS177      0.1986
    133  NE2       -0.6940   48.1790   -4.4330 N.ar  177  HIS177     -0.2212
    134  N          2.0710   42.0870   -5.8070 N.am  178  GLY178     -0.1954
    135  CA         2.6990   41.0310   -6.5800 C.3   178  GLY178      0.1869
    136  C          3.9930   40.4980   -5.9570 C.2   178  GLY178      0.2309
    137  O          4.5760   39.5530   -6.4710 O.2   178  GLY178     -0.2863
    138  N          4.1710   39.3480   -2.8030 N.3   180  SER180     -0.1217
    139  CA         3.8980   38.3590   -1.7430 C.3   180  SER180      0.1889
    140  C          4.4920   37.0170   -2.0670 C.2   180  SER180      0.2288
    141  O          4.6120   36.6460   -3.2340 O.2   180  SER180     -0.2866
    142  CB         2.3900   38.1920   -1.4940 C.3   180  SER180      0.2089
    143  OG         1.9160   39.2940   -0.7440 O.3   180  SER180     -0.2183
    144  N          7.0910   37.5550    2.2340 N.3   194  VAL194     -0.1231
    145  CA         6.2820   38.7660    2.0630 C.3   194  VAL194      0.1692
    146  C          4.7920   38.4720    2.2210 C.2   194  VAL194      0.2592
    147  O          4.2420   37.6590    1.4860 O.2   194  VAL194     -0.2718
    148  CB         6.4890   39.3990    0.6400 C.3   194  VAL194      0.0266
    149  CG1        5.7050   40.6910    0.5490 C.3   194  VAL194      0.0020
    150  CG2        7.9770   39.6630    0.3730 C.3   194  VAL194      0.0020
    151  N          4.1320   39.1640    3.1500 N.am  195  ALA195     -0.1966
    152  CA         2.7130   38.9280    3.3840 C.3   195  ALA195      0.1728
    153  C          1.8820   40.1000    2.8620 C.2   195  ALA195      0.2617
    154  O          1.1480   39.9680    1.8850 O.2   195  ALA195     -0.2715
    155  CB         2.4480   38.7210    4.8910 C.3   195  ALA195      0.0334
    156  N          1.9990   41.2540    3.5110 N.am  196  GLY196     -0.1940
    157  CA         1.2300   42.3950    3.0690 C.3   196  GLY196      0.2014
    158  C          1.7410   43.6970    3.6540 C.2   196  GLY196      0.2639
    159  O          2.6920   43.7140    4.4680 O.2   196  GLY196     -0.2714
    160  N          1.0990   44.7860    3.2510 N.am  197  GLY197     -0.1939
    161  CA         1.5040   46.0840    3.7530 C.3   197  GLY197      0.2014
    162  C          0.4780   47.1640    3.4930 C.2   197  GLY197      0.2640
    163  O         -0.6880   46.8870    3.1890 O.2   197  GLY197     -0.2714
    164  N          0.9210   48.4110    3.5950 N.am  198  SER198     -0.1935
    165  CA         0.0150   49.5210    3.4160 C.3   198  SER198      0.2055
    166  C         -0.1660   49.9290    1.9440 C.2   198  SER198      0.2642
    167  O          0.5910   49.5200    1.0590 O.2   198  SER198     -0.2714
    168  CB         0.4760   50.6920    4.2890 C.3   198  SER198      0.2130
    169  OG         0.3740   50.3380    5.6770 O.3   198  SER198     -0.2179
    170  N         -1.1580   50.7830    1.7190 N.am  199  GLU199     -0.1976
    171  CA        -1.5590   51.1950    0.3810 C.3   199  GLU199      0.1602
    172  C         -1.6990   52.7160    0.3830 C.2   199  GLU199      0.2287
    173  O         -2.5590   53.2550    1.0850 O.2   199  GLU199     -0.2864
    174  CB        -2.9140   50.5130    0.0910 C.3   199  GLU199      0.0415
    175  CG        -3.5660   50.8340   -1.2330 C.3   199  GLU199      0.1163
    176  CD        -2.8780   50.1780   -2.4080 C.2   199  GLU199      0.3649
    177  OE1       -3.5160   49.3050   -3.0620 O.co2 199  GLU199     -0.2457
    178  OE2       -1.7060   50.5340   -2.6800 O.co2 199  GLU199     -0.2457
    179  N          2.1610   51.5830   -1.3830 N.3   201  CYS201     -0.1235
    180  CA         3.3590   51.0090   -0.8170 C.3   201  CYS201      0.1677
    181  C          4.3810   52.1120   -0.5920 C.2   201  CYS201      0.2270
    182  O          4.2970   53.1750   -1.2120 O.2   201  CYS201     -0.2867
    183  CB         3.9490   50.0060   -1.8000 C.3   201  CYS201      0.0956
    184  SG         2.7270   48.8060   -2.4560 S.3   201  CYS201     -0.0801
    185  N          6.1130   46.9810    6.4050 N.3   208  ALA208     -0.1231
    186  CA         5.2300   45.9050    5.9650 C.3   208  ALA208      0.1694
    187  C          5.4160   44.6620    6.8250 C.2   208  ALA208      0.2591
    188  O          6.3310   44.5950    7.6510 O.2   208  ALA208     -0.2718
    189  CB         5.5230   45.5800    4.4840 C.3   208  ALA208      0.0304
    190  N          4.5490   43.6820    6.5950 N.am  209  VAL209     -0.1980
    191  CA         4.5410   42.4350    7.3380 C.3   209  VAL209      0.1595
    192  C          5.0960   41.2450    6.5390 C.2   209  VAL209      0.2287
    193  O          4.6870   40.9930    5.3900 O.2   209  VAL209     -0.2864
    194  CB         3.1110   42.1090    7.7670 C.3   209  VAL209      0.0276
    195  CG1        3.0820   40.8340    8.5940 C.3   209  VAL209      0.0022
    196  CG2        2.5540   43.2800    8.5930 C.3   209  VAL209      0.0022
@<TRIPOS>BOND
     1     1     2    1
     2     7     9   ar
     3     7     6   ar
     4     2     5    1
     5     2     3    1
     6     9    10   ar
     7     5     6    1
     8     6     8   ar
     9    14    13    2
    10     3    11   am
    11     3     4    2
    12    10     8   ar
    13    11    12    1
    14   127   126    2
    15    13    12    1
    16   135   136    1
    17   135   134    1
    18   137   136    2
    19    12    15    1
    20   126   134   am
    21   126   125    1
    22   128   129    1
    23   128   125    1
    24   131   129   ar
    25   131   133   ar
    26    15    16    1
    27   129   130   ar
    28   125   124    1
    29   124   120   am
    30   133   132   ar
    31   123   122    1
    32   123   184    1
    33   122   119    1
    34   130   132   ar
    35   120   121    2
    36   120   119    1
    37   141   140    2
    38   119   118    1
    39   177   176   ar
    40   138   139    1
    41   118   113   am
    42   178   176   ar
    43    20    19    2
    44   184   183    1
    45   176   175    1
    46   140   139    1
    47   183   180    1
    48   106   105    2
    49   139   142    1
    50   113   112    1
    51   113   114    2
    52    19    18    1
    53   142   143    1
    54   179   180    1
    55   175   174    1
    56   112   115    1
    57   112   111    1
    58   182   181    2
    59    24    26   ar
    60    24    22   ar
    61   180   181    1
    62    26    25   ar
    63   105   111   am
    64   105   104    1
    65   115   117    1
    66   115   116    1
    67    18    21    1
    68    18    17    1
    69   103   104    1
    70    22    21    1
    71    22    23   ar
    72   174   171    1
    73   150   148    1
    74   171   172    1
    75   171   170    1
    76   172   173    2
    77   104   107    1
    78    25    23   ar
    79   149   148    1
    80   148   145    1
    81   107   108    1
    82   167   166    2
    83   108   109   ar
    84   108   110   ar
    85   147   146    2
    86   170   166   am
    87   154   153    2
    88   166   165    1
    89   145   146    1
    90   145   144    1
    91   146   151   am
    92   153   152    1
    93   153   156   am
    94   157   156    1
    95   157   158    1
    96   151   152    1
    97    60    59   ar
    98   163   162    2
    99   160   158   am
   100   160   161    1
   101   152   155    1
   102   165   164    1
   103   165   168    1
   104    52    51    1
   105   162   164   am
   106   162   161    1
   107    61    59   ar
   108   158   159    2
   109    53    51    1
   110    59    58    1
   111   168   169    1
   112    51    50    1
   113   189   186    1
   114    57    56    2
   115    42    43    1
   116    42    39    1
   117    41    40    2
   118    45    43   am
   119    56    55    1
   120    58    55    1
   121   193   192    2
   122    43    44    2
   123    55    54    1
   124    50    47    1
   125    39    40    1
   126    39    38    1
   127   186   185    1
   128   186   187    1
   129    81    80    1
   130   192   191    1
   131   190   187   am
   132   190   191    1
   133    47    46    1
   134    47    48    1
   135   187   188    2
   136    79    80   ar
   137    79    77   ar
   138   191   194    1
   139    80    78   ar
   140    93    95   ar
   141    93    91   ar
   142    49    48    2
   143   194   196    1
   144   194   195    1
   145    95    94   ar
   146    77    75   ar
   147    90    91   ar
   148    90    88   ar
   149    91    89   ar
   150    78    76   ar
   151    94    92   ar
   152    88    87   ar
   153    75    76   ar
   154    75    74    1
   155    89    92   ar
   156    89    87   ar
   157    68    67    1
   158    65    64    2
   159    87    86    1
   160    30    29    2
   161    33    35   ar
   162    33    32   ar
   163    74    71    1
   164    66    67    1
   165    66    63    1
   166    31    32    1
   167    31    28    1
   168    69    67    1
   169    29    28    1
   170    64    63    1
   171    64    70   am
   172    35    37   ar
   173   102   100    1
   174    71    70    1
   175    71    72    1
   176    32    34   ar
   177    86    83    1
   178    63    62    1
   179    28    27    1
   180    72    73    2
   181    37    36   ar
   182   100   101    1
   183   100    97    1
   184    34    36   ar
   185    83    82    1
   186    83    84    1
   187    84    85    2
   188    84    96   am
   189    96    97    1
   190    97    98    1
   191    98    99    2
