@<TRIPOS>MOLECULE
tmp/3s9cA02.pdb
 92 85 0 0 0
SMALL
GASTEIGER

@<TRIPOS>ATOM
      1  N          2.7830   32.1610  -11.2430 N.3    19  TYR19      -0.1227
      2  CA         1.7740   32.6820  -12.1550 C.3    19  TYR19       0.1736
      3  C          0.7680   31.5580  -12.3440 C.2    19  TYR19       0.2596
      4  O          0.6910   30.6770  -11.4990 O.2    19  TYR19      -0.2718
      5  CB         2.4080   33.1350  -13.4800 C.3    19  TYR19       0.0548
      6  CG         3.2040   32.0840  -14.2200 C.ar   19  TYR19      -0.0200
      7  CD1        2.7580   31.5800  -15.4460 C.ar   19  TYR19      -0.0009
      8  CD2        4.4070   31.6060  -13.7070 C.ar   19  TYR19      -0.0009
      9  CE1        3.4870   30.6330  -16.1400 C.ar   19  TYR19       0.0417
     10  CE2        5.1450   30.6500  -14.3920 C.ar   19  TYR19       0.0417
     11  CZ         4.6760   30.1700  -15.6100 C.ar   19  TYR19       0.1957
     12  OH         5.3920   29.2140  -16.2830 O.3    19  TYR19      -0.2866
     13  N         -0.0360   31.5860  -13.3970 N.am   20  THR20      -0.1953
     14  CA        -0.9850   30.4880  -13.5950 C.3    20  THR20       0.1897
     15  C         -0.9890   30.0910  -15.0670 C.2    20  THR20       0.2313
     16  O         -0.3420   30.7300  -15.8930 O.2    20  THR20      -0.2863
     17  CB        -2.4370   30.8600  -13.2100 C.3    20  THR20       0.1794
     18  OG1       -2.9680   31.7580  -14.1850 O.3    20  THR20      -0.2208
     19  CG2       -2.4970   31.5060  -11.8120 C.3    20  THR20       0.0378
     20  N         -2.6830   32.9230  -17.2030 N.3    23  SER23      -0.1202
     21  CA        -2.0780   34.2310  -17.4190 C.3    23  SER23       0.2020
     22  C         -0.5620   34.2590  -17.2260 C.2    23  SER23       0.2619
     23  O         -0.0070   33.4370  -16.4930 O.2    23  SER23      -0.2717
     24  CB        -2.7410   35.2330  -16.4670 C.3    23  SER23       0.2103
     25  OG        -2.0250   36.4510  -16.4220 O.3    23  SER23      -0.2182
     26  N          0.1000   35.2140  -17.8730 N.am   24  SER24      -0.1951
     27  CA         1.5520   35.3610  -17.7470 C.3    24  SER24       0.1924
     28  C          1.8830   36.3340  -16.6080 C.2    24  SER24       0.2314
     29  O          3.0530   36.5370  -16.2580 O.2    24  SER24      -0.2863
     30  CB         2.1620   35.8870  -19.0470 C.3    24  SER24       0.2116
     31  OG         1.8690   37.2660  -19.2150 O.3    24  SER24      -0.2180
     32  N          2.6860   37.7480  -13.1660 N.3    26  ILE26      -0.1245
     33  CA         3.3260   37.1350  -11.9960 C.3    26  ILE26       0.1561
     34  C          2.5780   37.6730  -10.7710 C.2    26  ILE26       0.2260
     35  O          2.6520   38.8710  -10.4660 O.2    26  ILE26      -0.2867
     36  CB         4.8240   37.5010  -11.9440 C.3    26  ILE26       0.0252
     37  CG1        5.5320   36.8440  -13.1300 C.3    26  ILE26       0.0019
     38  CG2        5.4800   36.9980  -10.6250 C.3    26  ILE26       0.0019
     39  CD1        6.9630   37.2380  -13.2770 C.3    26  ILE26       0.0001
     40  N          7.9950   29.4180  -12.2330 N.3    52  LYS52      -0.1245
     41  CA         9.1740   29.6000  -13.0870 C.3    52  LYS52       0.1561
     42  C         10.3980   29.7110  -12.1800 C.2    52  LYS52       0.2260
     43  O         10.4280   30.5520  -11.2660 O.2    52  LYS52      -0.2867
     44  CB         9.0510   30.8770  -13.9260 C.3    52  LYS52       0.0271
     45  CG         9.7350   30.8100  -15.2940 C.3    52  LYS52       0.0035
     46  CD         8.8440   30.1190  -16.3110 C.3    52  LYS52       0.0206
     47  CE         9.4310   30.1560  -17.7240 C.3    52  LYS52       0.1093
     48  NZ         9.5470   31.5410  -18.2810 N.3    52  LYS52      -0.1314
     49  N         14.6310   32.2240  -13.3900 N.3    55  MET55      -0.1245
     50  CA        14.2590   33.3370  -14.2480 C.3    55  MET55       0.1570
     51  C         14.6520   34.7040  -13.7180 C.2    55  MET55       0.2261
     52  O         14.7300   34.9110  -12.5040 O.2    55  MET55      -0.2867
     53  CB        12.7430   33.3220  -14.4890 C.3    55  MET55       0.0387
     54  CG        12.2060   34.4510  -15.3720 C.3    55  MET55       0.0595
     55  SD        10.4260   34.2920  -15.6610 S.3    55  MET55      -0.1393
     56  CE         9.7480   35.1070  -14.1610 C.3    55  MET55       0.0692
     57  N         11.0910   38.3470  -17.4300 N.3    58  LYS58      -0.1231
     58  CA         9.8680   37.6160  -17.7680 C.3    58  LYS58       0.1693
     59  C          9.8250   37.2230  -19.2460 C.2    58  LYS58       0.2592
     60  O          9.1220   36.2770  -19.6220 O.2    58  LYS58      -0.2718
     61  CB         8.6270   38.4920  -17.5650 C.3    58  LYS58       0.0285
     62  CG         8.1500   38.7370  -16.1660 C.3    58  LYS58       0.0035
     63  CD         6.8730   39.5830  -16.2400 C.3    58  LYS58       0.0206
     64  CE         5.8070   38.8910  -17.1070 C.3    58  LYS58       0.1093
     65  NZ         4.4880   39.5900  -17.1140 N.3    58  LYS58      -0.1314
     66  N         10.5370   37.9850  -20.0740 N.am   59  ASN59      -0.1974
     67  CA        10.5260   37.7730  -21.5230 C.3    59  ASN59       0.1688
     68  C         11.7750   37.1410  -22.1240 C.2    59  ASN59       0.2292
     69  O         11.6960   36.4390  -23.1320 O.2    59  ASN59      -0.2864
     70  CB        10.2600   39.1090  -22.2320 C.3    59  ASN59       0.1181
     71  CG         9.0860   39.8660  -21.6310 C.2    59  ASN59       0.2629
     72  OD1        8.0280   39.2870  -21.3660 O.2    59  ASN59      -0.2716
     73  ND2        9.2660   41.1730  -21.4160 N.am   59  ASN59      -0.0877
     74  N         14.4540   34.4650  -21.6550 N.3    61  ARG61      -0.1245
     75  CA        14.7550   33.2480  -20.8940 C.3    61  ARG61       0.1563
     76  C         16.2320   32.9600  -20.6430 C.2    61  ARG61       0.2260
     77  O         17.0640   33.1640  -21.5230 O.2    61  ARG61      -0.2867
     78  CB        14.1560   32.0290  -21.5990 C.3    61  ARG61       0.0307
     79  CG        12.6500   32.0460  -21.7360 C.3    61  ARG61       0.0489
     80  CD        12.1440   30.8350  -22.5220 C.3    61  ARG61       0.2205
     81  NE        12.4790   29.5550  -21.8950 N.pl3  61  ARG61      -0.0865
     82  CZ        13.6530   28.9360  -22.0120 C.cat  61  ARG61       0.5346
     83  NH1       13.8580   27.7770  -21.4010 N.pl3  61  ARG61       0.1354
     84  NH2       14.6210   29.4650  -22.7480 N.pl3  61  ARG61       0.1354
     85  N         10.1650   25.4180  -15.7600 N.3    67  ILE67      -0.1245
     86  CA         8.7620   25.5790  -15.4090 C.3    67  ILE67       0.1561
     87  C          8.3620   24.3310  -14.6300 C.2    67  ILE67       0.2260
     88  O          8.7290   23.2120  -15.0050 O.2    67  ILE67      -0.2867
     89  CB         7.8460   25.6550  -16.6480 C.3    67  ILE67       0.0252
     90  CG1        8.1470   26.9170  -17.4480 C.3    67  ILE67       0.0019
     91  CG2        6.3830   25.6680  -16.2070 C.3    67  ILE67       0.0019
     92  CD1        7.3330   27.0480  -18.7140 C.3    67  ILE67       0.0001
@<TRIPOS>BOND
     1    69    68    2
     2    84    82    1
     3    80    81    1
     4    80    79    1
     5    70    71    1
     6    70    67    1
     7    68    67    1
     8    82    81    2
     9    82    83    1
    10    79    78    1
    11    74    75    1
    12    71    73   am
    13    71    72    2
    14    78    75    1
    15    77    76    2
    16    67    66    1
    17    75    76    1
    18    66    59   am
    19    60    59    2
    20    59    58    1
    21    31    30    1
    22    30    27    1
    23    92    90    1
    24    48    47    1
    25    26    27    1
    26    26    22   am
    27    58    61    1
    28    58    57    1
    29    27    28    1
    30    47    46    1
    31    61    62    1
    32    90    89    1
    33    21    22    1
    34    21    20    1
    35    21    24    1
    36    22    23    2
    37    65    64    1
    38    64    63    1
    39    89    91    1
    40    89    86    1
    41    28    29    2
    42    24    25    1
    43    46    45    1
    44    12    11    1
    45    63    62    1
    46     9    11   ar
    47     9     7   ar
    48    16    15    2
    49    85    86    1
    50    55    54    1
    51    55    56    1
    52    11    10   ar
    53     7     6   ar
    54    86    87    1
    55    54    53    1
    56    45    44    1
    57    15    14    1
    58    88    87    2
    59    53    50    1
    60    10     8   ar
    61    50    51    1
    62    50    49    1
    63     6     8   ar
    64     6     5    1
    65    18    17    1
    66    44    41    1
    67    51    52    2
    68    14    13    1
    69    14    17    1
    70     5     2    1
    71    13     3   am
    72    39    37    1
    73    17    19    1
    74    32    33    1
    75    37    36    1
    76    41    40    1
    77    41    42    1
    78     3     2    1
    79     3     4    2
    80    42    43    2
    81     2     1    1
    82    33    36    1
    83    33    34    1
    84    36    38    1
    85    34    35    2
