@<TRIPOS>MOLECULE
tmp/3s9kA00.pdb
 89 85 0 0 0
SMALL
GASTEIGER

@<TRIPOS>ATOM
      1  N         -1.2880   -6.7240  -21.2690 N.3    13  SER13      -0.1202
      2  CA        -2.5590   -7.4170  -21.3640 C.3    13  SER13       0.2020
      3  C         -2.4970   -8.5730  -22.3570 C.2    13  SER13       0.2618
      4  O         -1.6390   -8.6060  -23.2500 O.2    13  SER13      -0.2717
      5  CB        -3.6630   -6.4360  -21.7690 C.3    13  SER13       0.2103
      6  OG        -3.4140   -5.8990  -23.0600 O.3    13  SER13      -0.2182
      7  N         -3.4170   -9.5180  -22.1900 N.am   14  ARG14      -0.1979
      8  CA        -3.5110  -10.6560  -23.0830 C.3    14  ARG14       0.1597
      9  C         -3.6240  -10.2060  -24.5370 C.2    14  ARG14       0.2287
     10  O         -2.9570  -10.7380  -25.4180 O.2    14  ARG14      -0.2864
     11  CB        -4.7170  -11.5370  -22.7210 C.3    14  ARG14       0.0334
     12  CG        -4.9410  -12.6490  -23.7330 C.3    14  ARG14       0.0492
     13  CD        -6.0020  -13.6430  -23.3340 C.3    14  ARG14       0.2205
     14  NE        -6.4440  -14.3490  -24.5240 N.pl3  14  ARG14      -0.0865
     15  CZ        -7.1520  -15.4640  -24.5240 C.cat  14  ARG14       0.5346
     16  NH1       -7.4980  -16.0430  -23.3840 N.pl3  14  ARG14       0.1354
     17  NH2       -7.4930  -16.0060  -25.6740 N.pl3  14  ARG14       0.1354
     18  N          4.1540  -13.4010  -19.1660 N.3    33  ARG33      -0.1231
     19  CA         3.5630  -12.2540  -18.4960 C.3    33  ARG33       0.1694
     20  C          3.0270  -12.6450  -17.1270 C.2    33  ARG33       0.2592
     21  O          3.1690  -13.7980  -16.7240 O.2    33  ARG33      -0.2718
     22  CB         2.4900  -11.5950  -19.3690 C.3    33  ARG33       0.0321
     23  CG         1.6620  -12.5540  -20.1780 C.3    33  ARG33       0.0489
     24  CD         0.7190  -11.8050  -21.1210 C.3    33  ARG33       0.2205
     25  NE        -0.3100  -12.7130  -21.6230 N.pl3  33  ARG33      -0.0865
     26  CZ        -1.4590  -12.9680  -21.0010 C.cat  33  ARG33       0.5346
     27  NH1       -1.7460  -12.3810  -19.8400 N.pl3  33  ARG33       0.1354
     28  NH2       -2.3270  -13.8120  -21.5450 N.pl3  33  ARG33       0.1354
     29  N          2.4500  -11.6880  -16.4000 N.am   34  ASP34      -0.1960
     30  CA         1.8740  -11.9710  -15.0780 C.3    34  ASP34       0.1840
     31  C          0.4200  -12.4550  -15.1590 C.2    34  ASP34       0.2623
     32  O         -0.3250  -12.1210  -16.0920 O.2    34  ASP34      -0.2715
     33  CB         1.9540  -10.7540  -14.1530 C.3    34  ASP34       0.1450
     34  CG         3.3890  -10.3710  -13.7970 C.2    34  ASP34       0.3671
     35  OD1        4.2490  -11.2730  -13.7010 O.co2  34  ASP34      -0.2456
     36  OD2        3.6600   -9.1610  -13.6100 O.co2  34  ASP34      -0.2456
     37  N          0.0320  -13.2520  -14.1680 N.am   35  SER35      -0.1936
     38  CA        -1.3200  -13.7860  -14.0800 C.3    35  SER35       0.2055
     39  C         -2.0580  -13.1440  -12.9090 C.2    35  SER35       0.2642
     40  O         -1.4820  -12.3240  -12.1880 O.2    35  SER35      -0.2714
     41  CB        -1.2650  -15.3050  -13.9190 C.3    35  SER35       0.2130
     42  OG        -2.5040  -15.8360  -13.4840 O.3    35  SER35      -0.2179
     43  N         -3.3240  -13.5200  -12.7310 N.am   36  ARG36      -0.1977
     44  CA        -4.1770  -12.9870  -11.6660 C.3    36  ARG36       0.1597
     45  C         -3.5230  -13.0950  -10.3040 C.2    36  ARG36       0.2287
     46  O         -3.3250  -12.0950   -9.6250 O.2    36  ARG36      -0.2864
     47  CB        -5.5000  -13.7430  -11.6110 C.3    36  ARG36       0.0334
     48  CG        -5.9440  -14.2950  -12.9410 C.3    36  ARG36       0.0492
     49  CD        -6.4080  -13.2000  -13.8780 C.3    36  ARG36       0.2205
     50  NE        -6.9470  -13.7850  -15.0960 N.pl3  36  ARG36      -0.0865
     51  CZ        -8.1260  -14.3980  -15.1700 C.cat  36  ARG36       0.5346
     52  NH1       -8.9060  -14.5050  -14.1010 N.pl3  36  ARG36       0.1354
     53  NH2       -8.5280  -14.9070  -16.3200 N.pl3  36  ARG36       0.1354
     54  N          2.0280  -16.5750  -16.9570 N.3    42  THR42      -0.1218
     55  CA         1.3920  -17.0780  -18.1690 C.3    42  THR42       0.1862
     56  C          2.3430  -17.0640  -19.3400 C.2    42  THR42       0.2287
     57  O          2.8750  -16.0240  -19.6980 O.2    42  THR42      -0.2866
     58  CB         0.1300  -16.2560  -18.5420 C.3    42  THR42       0.1770
     59  OG1       -0.8000  -16.2930  -17.4460 O.3    42  THR42      -0.2211
     60  CG2       -0.5400  -16.8310  -19.8180 C.3    42  THR42       0.0375
     61  N         -1.9000  -20.1370  -24.6080 N.3    59  HIS59      -0.1241
     62  CA        -1.5800  -19.6090  -23.2880 C.3    59  HIS59       0.1621
     63  C         -1.4370  -20.7280  -22.2860 C.2    59  HIS59       0.2264
     64  O         -2.2830  -21.6170  -22.2180 O.2    59  HIS59      -0.2867
     65  CB        -2.6750  -18.6630  -22.8190 C.3    59  HIS59       0.0745
     66  CG        -2.8530  -17.4700  -23.6990 C.ar   59  HIS59       0.0817
     67  ND1       -1.9340  -16.4470  -23.7570 N.ar   59  HIS59      -0.2268
     68  CD2       -3.8420  -17.1390  -24.5600 C.ar   59  HIS59       0.1154
     69  CE1       -2.3540  -15.5290  -24.6080 C.ar   59  HIS59       0.1986
     70  NE2       -3.5140  -15.9240  -25.1090 N.ar   59  HIS59      -0.2212
     71  N         -0.4800  -21.8180  -18.0960 N.3    61  HIS61      -0.1241
     72  CA        -0.2510  -21.3520  -16.7390 C.3    61  HIS61       0.1621
     73  C          1.0850  -21.8810  -16.2780 C.2    61  HIS61       0.2264
     74  O          1.4590  -22.9920  -16.6230 O.2    61  HIS61      -0.2867
     75  CB        -1.3030  -21.9330  -15.8060 C.3    61  HIS61       0.0745
     76  CG        -2.0210  -20.9150  -14.9920 C.ar   61  HIS61       0.0817
     77  ND1       -2.3400  -19.6640  -15.4770 N.ar   61  HIS61      -0.2268
     78  CD2       -2.5190  -20.9730  -13.7370 C.ar   61  HIS61       0.1154
     79  CE1       -2.9950  -18.9920  -14.5510 C.ar   61  HIS61       0.1986
     80  NE2       -3.1200  -19.7630  -13.4850 N.ar   61  HIS61      -0.2212
     81  N         -4.9430  -23.9780  -16.4750 N.3    77  LYS77      -0.1245
     82  CA        -5.5700  -22.9750  -15.6240 C.3    77  LYS77       0.1561
     83  C         -6.6420  -23.5740  -14.7110 C.2    77  LYS77       0.2260
     84  O         -7.0550  -22.9280  -13.7530 O.2    77  LYS77      -0.2867
     85  CB        -6.1930  -21.8920  -16.5090 C.3    77  LYS77       0.0271
     86  CG        -5.8340  -22.0340  -18.0040 C.3    77  LYS77       0.0035
     87  CD        -7.0000  -21.6440  -18.9550 C.3    77  LYS77       0.0206
     88  CE        -7.5680  -20.2370  -18.7110 C.3    77  LYS77       0.1093
     89  NZ        -8.6570  -19.8360  -19.6610 N.3    77  LYS77      -0.1314
@<TRIPOS>BOND
     1    17    15    1
     2    10     9    2
     3    70    69   ar
     4    70    68   ar
     5    61    62    1
     6    69    67   ar
     7    68    66   ar
     8     9     8    1
     9    15    14    2
    10    15    16    1
    11    14    13    1
    12    67    66   ar
    13    12    13    1
    14    12    11    1
    15    66    65    1
    16    62    65    1
    17    62    63    1
    18     4     3    2
    19     8    11    1
    20     8     7    1
    21     6     5    1
    22     3     7   am
    23     3     2    1
    24    63    64    2
    25     5     2    1
    26    25    24    1
    27    25    26    2
    28    28    26    1
    29     2     1    1
    30    24    23    1
    31    26    27    1
    32    23    22    1
    33    60    58    1
    34    57    56    2
    35    89    88    1
    36    22    19    1
    37    56    55    1
    38    18    19    1
    39    87    88    1
    40    87    86    1
    41    58    55    1
    42    58    59    1
    43    19    20    1
    44    55    54    1
    45    71    72    1
    46    86    85    1
    47    20    21    2
    48    20    29   am
    49    72    73    1
    50    72    75    1
    51    74    73    2
    52    85    82    1
    53    81    82    1
    54    29    30    1
    55    53    51    1
    56    32    31    2
    57    75    76    1
    58    82    83    1
    59    77    76   ar
    60    77    79   ar
    61    51    50    2
    62    51    52    1
    63    31    30    1
    64    31    37   am
    65    50    49    1
    66    30    33    1
    67    76    78   ar
    68    83    84    2
    69    79    80   ar
    70    37    38    1
    71    33    34    1
    72    38    41    1
    73    38    39    1
    74    41    42    1
    75    49    48    1
    76    34    35   ar
    77    34    36   ar
    78    78    80   ar
    79    48    47    1
    80    39    43   am
    81    39    40    2
    82    43    44    1
    83    44    47    1
    84    44    45    1
    85    45    46    2
