@<TRIPOS>MOLECULE
tmp/3s9sA00.pdb
 166 158 0 0 0
SMALL
GASTEIGER

@<TRIPOS>ATOM
      1  N        -15.3880   13.4030  -10.5060 N.3    76  VAL76      -0.1231
      2  CA       -14.2000   13.1580  -11.3160 C.3    76  VAL76       0.1692
      3  C        -13.2650   12.1800  -10.5960 C.2    76  VAL76       0.2591
      4  O        -12.8360   11.1900  -11.1870 O.2    76  VAL76      -0.2718
      5  CB       -13.4320   14.4650  -11.7000 C.3    76  VAL76       0.0266
      6  CG1      -12.2360   14.1370  -12.5550 C.3    76  VAL76       0.0020
      7  CG2      -14.3080   15.4260  -12.4620 C.3    76  VAL76       0.0020
      8  N        -12.9680   12.4550   -9.3270 N.am   77  GLN77      -0.1979
      9  CA       -12.1030   11.5940   -8.5170 C.3    77  GLN77       0.1601
     10  C        -12.6320   10.1650   -8.4490 C.2    77  GLN77       0.2287
     11  O        -11.8790    9.2040   -8.6170 O.2    77  GLN77      -0.2864
     12  CB       -11.9410   12.1680   -7.1070 C.3    77  GLN77       0.0394
     13  CG       -11.1130   13.4500   -7.0290 C.3    77  GLN77       0.0908
     14  CD       -11.2660   14.1610   -5.6990 C.2    77  GLN77       0.2608
     15  OE1      -12.1180   13.8080   -4.8700 O.2    77  GLN77      -0.2717
     16  NE2      -10.4510   15.1800   -5.4890 N.am   77  GLN77      -0.0878
     17  N        -12.3680    8.3080  -11.8900 N.3    80  THR80      -0.1203
     18  CA       -10.9710    7.9850  -12.1590 C.3    80  THR80       0.1994
     19  C        -10.5470    6.6750  -11.4950 C.2    80  THR80       0.2617
     20  O         -9.9170    5.8360  -12.1360 O.2    80  THR80      -0.2717
     21  CB       -10.0410    9.1510  -11.7340 C.3    80  THR80       0.1784
     22  OG1      -10.3020   10.2890  -12.5650 O.3    80  THR80      -0.2211
     23  CG2       -8.5650    8.7690  -11.8560 C.3    80  THR80       0.0376
     24  N        -10.8930    6.5040  -10.2200 N.am   81  GLU81      -0.1979
     25  CA       -10.5850    5.2670   -9.5060 C.3    81  GLU81       0.1602
     26  C        -11.2960    4.1020  -10.1700 C.2    81  GLU81       0.2287
     27  O        -10.7230    3.0130  -10.2890 O.2    81  GLU81      -0.2864
     28  CB       -10.9490    5.3480   -8.0190 C.3    81  GLU81       0.0415
     29  CG       -10.0600    6.2820   -7.1810 C.3    81  GLU81       0.1163
     30  CD        -8.5700    5.9270   -7.2180 C.2    81  GLU81       0.3649
     31  OE1       -7.7870    6.6680   -7.8700 O.co2  81  GLU81      -0.2457
     32  OE2       -8.1770    4.9100   -6.5960 O.co2  81  GLU81      -0.2457
     33  N         -9.5590    3.0890  -13.5110 N.3    84  LYS84      -0.1245
     34  CA        -8.3630    2.3360  -13.1200 C.3    84  LYS84       0.1561
     35  C         -8.6720    0.8650  -12.8170 C.2    84  LYS84       0.2260
     36  O         -7.7680    0.0840  -12.5410 O.2    84  LYS84      -0.2867
     37  CB        -7.6960    2.9880  -11.8950 C.3    84  LYS84       0.0271
     38  CG        -7.0340    4.3330  -12.1680 C.3    84  LYS84       0.0035
     39  CD        -6.8720    5.1650  -10.8920 C.3    84  LYS84       0.0206
     40  CE        -5.5890    4.8390  -10.1220 C.3    84  LYS84       0.1093
     41  NZ        -5.5450    5.5400   -8.7970 N.3    84  LYS84      -0.1314
     42  N         -7.3260   -0.7510  -18.8680 N.3    89  PHE89      -0.1241
     43  CA        -7.2960    0.7170  -18.8950 C.3    89  PHE89       0.1605
     44  C         -5.9370    1.2530  -18.4380 C.2    89  PHE89       0.2264
     45  O         -5.3620    2.1250  -19.0950 O.2    89  PHE89      -0.2867
     46  CB        -8.4240    1.3480  -18.0690 C.3    89  PHE89       0.0534
     47  CG        -8.4560    2.8550  -18.1510 C.ar   89  PHE89      -0.0203
     48  CD1       -9.1250    3.4960  -19.1920 C.ar   89  PHE89      -0.0042
     49  CD2       -7.7970    3.6360  -17.1980 C.ar   89  PHE89      -0.0042
     50  CE1       -9.1400    4.8900  -19.2830 C.ar   89  PHE89      -0.0003
     51  CE2       -7.8090    5.0320  -17.2770 C.ar   89  PHE89      -0.0003
     52  CZ        -8.4800    5.6600  -18.3200 C.ar   89  PHE89      -0.0000
     53  N         -0.3600    6.4610  -20.9690 N.3    94  LEU94      -0.1231
     54  CA        -0.8690    7.3290  -19.8910 C.3    94  LEU94       0.1693
     55  C         -1.3510    8.7200  -20.3530 C.2    94  LEU94       0.2592
     56  O         -1.8810    9.5010  -19.5480 O.2    94  LEU94      -0.2718
     57  CB         0.1950    7.4410  -18.7790 C.3    94  LEU94       0.0284
     58  CG        -0.1140    7.9400  -17.3590 C.3    94  LEU94       0.0019
     59  CD1       -1.2190    7.1390  -16.6740 C.3    94  LEU94       0.0001
     60  CD2        1.1620    7.9140  -16.5250 C.3    94  LEU94       0.0001
     61  N         -1.1580    9.0260  -21.6390 N.am   95  ASN95      -0.1974
     62  CA        -1.7060   10.2410  -22.2530 C.3    95  ASN95       0.1688
     63  C         -3.1220   10.0300  -22.8110 C.2    95  ASN95       0.2292
     64  O         -3.9360   10.9630  -22.8330 O.2    95  ASN95      -0.2864
     65  CB        -0.7750   10.7710  -23.3510 C.3    95  ASN95       0.1181
     66  CG         0.5880   11.2050  -22.8150 C.2    95  ASN95       0.2629
     67  OD1        0.6800   12.1610  -22.0190 O.2    95  ASN95      -0.2716
     68  ND2        1.6530   10.5060  -23.2640 N.am   95  ASN95      -0.0877
     69  N         -5.3020    7.5850  -21.5770 N.3    97  GLN97      -0.1231
     70  CA        -6.0180    7.5080  -20.3090 C.3    97  GLN97       0.1698
     71  C         -6.5530    8.8710  -19.8780 C.2    97  GLN97       0.2592
     72  O         -7.7220    8.9900  -19.4860 O.2    97  GLN97      -0.2718
     73  CB        -5.1080    6.9260  -19.2210 C.3    97  GLN97       0.0381
     74  CG        -4.6660    5.4860  -19.4710 C.3    97  GLN97       0.0905
     75  CD        -3.8870    4.8840  -18.3070 C.2    97  GLN97       0.2608
     76  OE1       -4.2300    5.0780  -17.1370 O.2    97  GLN97      -0.2717
     77  NE2       -2.8400    4.1320  -18.6280 N.am   97  GLN97      -0.0878
     78  N         -5.7040    9.8940  -19.9620 N.am   98  VAL98      -0.1966
     79  CA        -6.0820   11.2610  -19.5800 C.3    98  VAL98       0.1727
     80  C         -7.1410   11.8240  -20.5310 C.2    98  VAL98       0.2616
     81  O         -8.0580   12.5050  -20.0910 O.2    98  VAL98      -0.2715
     82  CB        -4.8390   12.2160  -19.4880 C.3    98  VAL98       0.0290
     83  CG1       -5.2530   13.6900  -19.4410 C.3    98  VAL98       0.0023
     84  CG2       -3.9750   11.8780  -18.2750 C.3    98  VAL98       0.0023
     85  N         -7.0350   11.5210  -21.8210 N.am   99  THR99      -0.1951
     86  CA        -8.0030   12.0220  -22.7980 C.3    99  THR99       0.1897
     87  C         -9.3700   11.3350  -22.6700 C.2    99  THR99       0.2313
     88  O        -10.4130   11.9860  -22.7750 O.2    99  THR99      -0.2863
     89  CB        -7.4970   11.8800  -24.2500 C.3    99  THR99       0.1794
     90  OG1       -6.1000   12.2050  -24.3250 O.3    99  THR99      -0.2208
     91  CG2       -8.2960   12.8010  -25.1780 C.3    99  THR99       0.0378
     92  N        -10.6520    9.9860  -19.9440 N.3   101  LEU101     -0.1231
     93  CA       -11.2510   10.5780  -18.7550 C.3   101  LEU101      0.1693
     94  C        -11.6540   12.0270  -19.0260 C.2   101  LEU101      0.2591
     95  O        -12.7120   12.4580  -18.5920 O.2   101  LEU101     -0.2718
     96  CB       -10.2920   10.5240  -17.5640 C.3   101  LEU101      0.0284
     97  CG        -9.8520    9.2180  -16.8890 C.3   101  LEU101      0.0019
     98  CD1       -8.7190    9.5340  -15.9290 C.3   101  LEU101      0.0001
     99  CD2      -10.9770    8.5580  -16.1340 C.3   101  LEU101      0.0001
    100  N        -10.8200   12.7720  -19.7540 N.am  102  LYS102     -0.1980
    101  CA       -11.1370   14.1700  -20.0680 C.3   102  LYS102      0.1596
    102  C        -12.5310   14.3410  -20.6940 C.2   102  LYS102      0.2287
    103  O        -13.3270   15.1390  -20.2090 O.2   102  LYS102     -0.2864
    104  CB       -10.0640   14.8030  -20.9610 C.3   102  LYS102      0.0298
    105  CG       -10.2140   16.3040  -21.1020 C.3   102  LYS102      0.0038
    106  CD        -9.0800   16.9210  -21.8870 C.3   102  LYS102      0.0206
    107  CE        -9.3440   18.4000  -22.0930 C.3   102  LYS102      0.1093
    108  NZ        -8.2370   19.0770  -22.8090 N.3   102  LYS102     -0.1314
    109  N        -15.8300   12.1270  -18.5540 N.3   105  VAL105     -0.1245
    110  CA       -16.4420   12.4620  -17.2530 C.3   105  VAL105      0.1561
    111  C        -17.7900   13.1670  -17.2890 C.2   105  VAL105      0.2260
    112  O        -18.6460   12.8790  -16.4600 O.2   105  VAL105     -0.2867
    113  CB       -15.4820   13.1980  -16.2820 C.3   105  VAL105      0.0252
    114  CG1      -14.4700   12.2190  -15.6930 C.3   105  VAL105      0.0019
    115  CG2      -14.8080   14.4050  -16.9420 C.3   105  VAL105      0.0019
    116  N        -12.9500   25.5870  -10.4890 N.3   248  HIS248     -0.1227
    117  CA       -11.9390   24.7050   -9.9090 C.3   248  HIS248      0.1737
    118  C        -10.9280   24.2990  -10.9780 C.2   248  HIS248      0.2438
    119  O        -11.3010   24.0870  -12.1310 O.2   248  HIS248     -0.2733
    120  CB       -12.5880   23.4550   -9.2920 C.3   248  HIS248      0.0758
    121  CG       -11.6570   22.6420   -8.4380 C.ar  248  HIS248      0.0818
    122  ND1      -10.6920   21.8090   -8.9650 N.ar  248  HIS248     -0.2268
    123  CD2      -11.5500   22.5300   -7.0930 C.ar  248  HIS248      0.1154
    124  CE1      -10.0220   21.2320   -7.9840 C.ar  248  HIS248      0.1986
    125  NE2      -10.5330   21.6420   -6.8350 N.ar  248  HIS248     -0.2212
    126  N         -9.6520   24.1800  -10.6020 N.am  249  PRO249     -0.2718
    127  CA        -8.6460   23.9030  -11.6290 C.3   249  PRO249      0.1535
    128  C         -8.6500   22.4780  -12.1950 C.2   249  PRO249      0.2598
    129  O         -8.1410   22.2670  -13.2940 O.2   249  PRO249     -0.2715
    130  CB        -7.3100   24.2440  -10.9470 C.3   249  PRO249      0.0310
    131  CG        -7.5810   24.3500   -9.5180 C.3   249  PRO249      0.0237
    132  CD        -9.0600   24.5260   -9.2990 C.3   249  PRO249      0.0939
    133  N         -9.1980   21.5140  -11.4600 N.am  250  LEU250     -0.1978
    134  CA        -9.4690   20.1890  -12.0340 C.3   250  LEU250      0.1596
    135  C        -10.5140   20.3020  -13.1480 C.2   250  LEU250      0.2287
    136  O        -10.3640   19.6690  -14.1990 O.2   250  LEU250     -0.2864
    137  CB        -9.9330   19.1720  -10.9750 C.3   250  LEU250      0.0297
    138  CG       -10.4830   17.8160  -11.4510 C.3   250  LEU250      0.0022
    139  CD1       -9.5620   17.1230  -12.4680 C.3   250  LEU250      0.0001
    140  CD2      -10.7350   16.9060  -10.2640 C.3   250  LEU250      0.0001
    141  N         -9.0380   22.1600  -16.1470 N.3   253  GLU253     -0.1231
    142  CA        -8.1440   21.2230  -16.8110 C.3   253  GLU253      0.1699
    143  C         -8.9220   20.3510  -17.7900 C.2   253  GLU253      0.2592
    144  O         -8.3590   19.8450  -18.7620 O.2   253  GLU253     -0.2718
    145  CB        -7.4960   20.3360  -15.7540 C.3   253  GLU253      0.0402
    146  CG        -6.1390   19.8040  -16.1110 C.3   253  GLU253      0.1161
    147  CD        -5.5630   18.9520  -15.0040 C.2   253  GLU253      0.3649
    148  OE1       -5.9230   17.7550  -14.9140 O.co2 253  GLU253     -0.2457
    149  OE2       -4.7390   19.4800  -14.2340 O.co2 253  GLU253     -0.2457
    150  N        -10.2140   20.1750  -17.5150 N.am  254  ILE254     -0.1980
    151  CA       -11.1000   19.3650  -18.3450 C.3   254  ILE254      0.1595
    152  C        -11.7550   20.1990  -19.4620 C.2   254  ILE254      0.2287
    153  O        -11.8890   19.7240  -20.5960 O.2   254  ILE254     -0.2864
    154  CB       -12.1460   18.6070  -17.4650 C.3   254  ILE254      0.0276
    155  CG1      -11.4290   17.5210  -16.6510 C.3   254  ILE254      0.0022
    156  CG2      -13.2560   17.9830  -18.3190 C.3   254  ILE254      0.0022
    157  CD1      -12.1940   16.9810  -15.5060 C.3   254  ILE254      0.0001
    158  N        -10.6200   23.1920  -20.8260 N.3   256  LYS256     -0.1245
    159  CA        -9.5990   23.7170  -21.7360 C.3   256  LYS256      0.1561
    160  C         -9.5560   22.8760  -23.0130 C.2   256  LYS256      0.2260
    161  O         -9.4770   21.6420  -22.9500 O.2   256  LYS256     -0.2867
    162  CB        -8.2300   23.6950  -21.0460 C.3   256  LYS256      0.0271
    163  CG        -7.1190   24.4450  -21.7720 C.3   256  LYS256      0.0035
    164  CD        -6.7770   25.7660  -21.0890 C.3   256  LYS256      0.0206
    165  CE        -5.5180   26.3800  -21.6960 C.3   256  LYS256      0.1093
    166  NZ        -4.9330   27.4150  -20.8030 N.3   256  LYS256     -0.1314
@<TRIPOS>BOND
     1    91    89    1
     2    90    89    1
     3    89    86    1
     4    65    66    1
     5    65    62    1
     6    68    66   am
     7   160   161    2
     8   160   159    1
     9    64    63    2
    10    66    67    2
    11    63    62    1
    12   108   107    1
    13    86    87    1
    14    86    85    1
    15    88    87    2
    16    62    61    1
    17   107   106    1
    18   106   105    1
    19    85    80   am
    20   163   164    1
    21   163   162    1
    22   159   162    1
    23   159   158    1
    24   165   164    1
    25   165   166    1
    26    61    55   am
    27    69    70    1
    28   105   104    1
    29    53    54    1
    30   104   101    1
    31   102   103    2
    32   102   101    1
    33   153   152    2
    34    80    81    2
    35    80    79    1
    36    55    54    1
    37    55    56    2
    38    70    71    1
    39    70    73    1
    40   101   100    1
    41    78    71   am
    42    78    79    1
    43    92    93    1
    44    54    57    1
    45    71    72    2
    46   100    94   am
    47    79    82    1
    48    82    83    1
    49    82    84    1
    50    74    73    1
    51    74    75    1
    52   152   151    1
    53    50    48   ar
    54    50    52   ar
    55    48    47   ar
    56    45    44    2
    57    94    93    1
    58    94    95    2
    59    43    42    1
    60    43    44    1
    61    43    46    1
    62    57    58    1
    63   144   143    2
    64    93    96    1
    65    77    75   am
    66   109   110    1
    67   151   150    1
    68   151   154    1
    69    52    51   ar
    70   156   154    1
    71    75    76    2
    72    47    46    1
    73    47    49   ar
    74   143   150   am
    75   143   142    1
    76    96    97    1
    77   154   155    1
    78    58    59    1
    79    58    60    1
    80   111   110    1
    81   111   112    2
    82    51    49   ar
    83   110   113    1
    84   115   113    1
    85    97    99    1
    86    97    98    1
    87   142   141    1
    88   142   145    1
    89   155   157    1
    90   113   114    1
    91   146   145    1
    92   146   147    1
    93   147   148   ar
    94   147   149   ar
    95   136   135    2
    96    33    34    1
    97   129   128    2
    98   135   134    1
    99    34    35    1
   100    34    37    1
   101    35    36    2
   102    22    21    1
   103     6     5    1
   104   139   138    1
   105     7     5    1
   106   128   127    1
   107   128   133   am
   108    38    37    1
   109    38    39    1
   110    18    17    1
   111    18    21    1
   112    18    19    1
   113    20    19    2
   114   119   118    2
   115   134   133    1
   116   134   137    1
   117    23    21    1
   118     5     2    1
   119   127   130    1
   120   127   126    1
   121    19    24   am
   122   138   137    1
   123   138   140    1
   124     2     3    1
   125     2     1    1
   126     4     3    2
   127   118   126   am
   128   118   117    1
   129   130   131    1
   130    39    40    1
   131   126   132    1
   132     3     8   am
   133   116   117    1
   134    27    26    2
   135    24    25    1
   136    26    25    1
   137    40    41    1
   138   117   120    1
   139   131   132    1
   140    25    28    1
   141     8     9    1
   142   120   121    1
   143   122   121   ar
   144   122   124   ar
   145    11    10    2
   146     9    10    1
   147     9    12    1
   148   121   123   ar
   149    28    29    1
   150   124   125   ar
   151    31    30   ar
   152    30    29    1
   153    30    32   ar
   154    12    13    1
   155   123   125   ar
   156    13    14    1
   157    14    16   am
   158    14    15    2
