@<TRIPOS>MOLECULE
tmp/3s9sA01.pdb
 199 189 0 0 0
SMALL
GASTEIGER

@<TRIPOS>ATOM
      1  N        -24.2930   27.0240   -8.0870 N.3    65  PHE65      -0.1241
      2  CA       -23.2930   26.7860   -9.1250 C.3    65  PHE65       0.1605
      3  C        -21.9780   26.3000   -8.5100 C.2    65  PHE65       0.2264
      4  O        -21.3820   25.3190   -8.9700 O.2    65  PHE65      -0.2867
      5  CB       -23.0950   28.0810   -9.9140 C.3    65  PHE65       0.0534
      6  CG       -22.1480   27.9730  -11.0760 C.ar   65  PHE65      -0.0203
      7  CD1      -22.5760   27.4640  -12.3040 C.ar   65  PHE65      -0.0042
      8  CD2      -20.8380   28.4400  -10.9660 C.ar   65  PHE65      -0.0042
      9  CE1      -21.6940   27.3920  -13.3950 C.ar   65  PHE65      -0.0003
     10  CE2      -19.9490   28.3720  -12.0460 C.ar   65  PHE65      -0.0003
     11  CZ       -20.3790   27.8510  -13.2600 C.ar   65  PHE65      -0.0000
     12  N        -22.4790   22.6480   -7.1100 N.3    68  CYS68      -0.1221
     13  CA       -22.4200   21.6510   -8.1810 C.3    68  CYS68       0.1808
     14  C        -20.9890   21.4370   -8.6500 C.2    68  CYS68       0.2601
     15  O        -20.5490   20.3090   -8.9220 O.2    68  CYS68      -0.2717
     16  CB       -23.2890   22.0970   -9.3620 C.3    68  CYS68       0.0970
     17  SG       -25.0340   22.4350   -8.9570 S.3    68  CYS68      -0.0800
     18  N        -20.2690   22.5470   -8.7420 N.am   69  GLN69      -0.1979
     19  CA       -18.8580   22.5500   -9.0680 C.3    69  GLN69       0.1601
     20  C        -18.1000   21.7610   -8.0080 C.2    69  GLN69       0.2287
     21  O        -17.2590   20.9070   -8.3230 O.2    69  GLN69      -0.2864
     22  CB       -18.3820   23.9970   -9.1570 C.3    69  GLN69       0.0394
     23  CG       -16.8990   24.1940   -9.1050 C.3    69  GLN69       0.0908
     24  CD       -16.4670   25.3750   -9.9320 C.2    69  GLN69       0.2608
     25  OE1      -15.4520   25.3110  -10.6210 O.2    69  GLN69      -0.2717
     26  NE2      -17.2520   26.4570   -9.9000 N.am   69  GLN69      -0.0878
     27  N        -19.0250   19.4060   -5.9670 N.3    71  ARG71      -0.1231
     28  CA       -19.3100   17.9980   -6.0430 C.3    71  ARG71       0.1694
     29  C        -18.7860   17.3600   -7.3210 C.2    71  ARG71       0.2592
     30  O        -18.4440   16.1770   -7.3130 O.2    71  ARG71      -0.2718
     31  CB       -20.8190   17.7740   -5.9040 C.3    71  ARG71       0.0321
     32  CG       -21.3610   16.5260   -6.5790 C.3    71  ARG71       0.0489
     33  CD       -20.9860   15.2210   -5.8550 C.3    71  ARG71       0.2205
     34  NE       -21.1720   14.0640   -6.7480 N.pl3  71  ARG71      -0.0865
     35  CZ       -20.4970   12.9130   -6.6730 C.cat  71  ARG71       0.5346
     36  NH1      -19.5640   12.7260   -5.7250 N.pl3  71  ARG71       0.1354
     37  NH2      -20.7570   11.9450   -7.5540 N.pl3  71  ARG71       0.1354
     38  N        -18.7380   18.1060   -8.4240 N.am   72  SER72      -0.1952
     39  CA       -18.2310   17.5280   -9.6670 C.3    72  SER72       0.1924
     40  C        -16.7550   17.1450   -9.5260 C.2    72  SER72       0.2314
     41  O        -16.3170   16.1050  -10.0240 O.2    72  SER72      -0.2863
     42  CB       -18.4030   18.4900  -10.8290 C.3    72  SER72       0.2116
     43  OG       -19.7330   18.9280  -10.9290 O.3    72  SER72      -0.2180
     44  N        -15.3880   13.4030  -10.5060 N.3    76  VAL76      -0.1245
     45  CA       -14.2000   13.1580  -11.3160 C.3    76  VAL76       0.1561
     46  C        -13.2650   12.1800  -10.5960 C.2    76  VAL76       0.2260
     47  O        -12.8360   11.1900  -11.1870 O.2    76  VAL76      -0.2867
     48  CB       -13.4320   14.4650  -11.7000 C.3    76  VAL76       0.0252
     49  CG1      -12.2360   14.1370  -12.5550 C.3    76  VAL76       0.0019
     50  CG2      -14.3080   15.4260  -12.4620 C.3    76  VAL76       0.0019
     51  N        -17.9850   14.0920  -18.2220 N.3   106  HIS106     -0.1241
     52  CA       -19.2580   14.8010  -18.3180 C.3   106  HIS106      0.1621
     53  C        -20.3820   13.8390  -18.6660 C.2   106  HIS106      0.2264
     54  O        -21.4320   13.8580  -18.0350 O.2   106  HIS106     -0.2867
     55  CB       -19.1820   15.9180  -19.3510 C.3   106  HIS106      0.0745
     56  CG       -18.5530   17.1660  -18.8300 C.ar  106  HIS106      0.0817
     57  ND1      -17.2180   17.4560  -19.0080 N.ar  106  HIS106     -0.2268
     58  CD2      -19.0710   18.1930  -18.1140 C.ar  106  HIS106      0.1154
     59  CE1      -16.9430   18.6150  -18.4360 C.ar  106  HIS106      0.1986
     60  NE2      -18.0490   19.0820  -17.8860 N.ar  106  HIS106     -0.2212
     61  N        -20.9370   11.7440  -15.5780 N.3   109  ILE109     -0.1231
     62  CA       -21.5290   12.5350  -14.5000 C.3   109  ILE109      0.1692
     63  C        -23.0350   12.7220  -14.7130 C.2   109  ILE109      0.2592
     64  O        -23.7990   12.7260  -13.7550 O.2   109  ILE109     -0.2718
     65  CB       -20.8110   13.8990  -14.3180 C.3   109  ILE109      0.0266
     66  CG1      -19.4450   13.6850  -13.6430 C.3   109  ILE109      0.0019
     67  CG2      -21.6670   14.8690  -13.4990 C.3   109  ILE109      0.0020
     68  CD1      -18.5180   14.9010  -13.6830 C.3   109  ILE109      0.0001
     69  N        -23.4490   12.8480  -15.9720 N.am  110  TYR110     -0.1976
     70  CA       -24.8370   13.1370  -16.2910 C.3   110  TYR110      0.1639
     71  C        -25.6810   11.8730  -16.3770 C.2   110  TYR110      0.2290
     72  O        -26.8910   11.9110  -16.2060 O.2   110  TYR110     -0.2864
     73  CB       -24.9230   13.9650  -17.5690 C.3   110  TYR110      0.0560
     74  CG       -24.3100   15.3400  -17.4170 C.ar  110  TYR110     -0.0198
     75  CD1      -24.5450   16.1080  -16.2740 C.ar  110  TYR110     -0.0009
     76  CD2      -23.5100   15.8890  -18.4270 C.ar  110  TYR110     -0.0009
     77  CE1      -23.9820   17.3650  -16.1290 C.ar  110  TYR110      0.0417
     78  CE2      -22.9490   17.1550  -18.2930 C.ar  110  TYR110      0.0417
     79  CZ       -23.1970   17.8880  -17.1430 C.ar  110  TYR110      0.1957
     80  OH       -22.6530   19.1460  -16.9970 O.3   110  TYR110     -0.2866
     81  N        -25.9630   11.1960  -12.5670 N.3   113  LEU113     -0.1245
     82  CA       -26.8900   12.2330  -12.0720 C.3   113  LEU113      0.1561
     83  C        -28.3760   11.8580  -12.2190 C.2   113  LEU113      0.2260
     84  O        -29.1960   12.1570  -11.3270 O.2   113  LEU113     -0.2867
     85  CB       -26.6420   13.5680  -12.7690 C.3   113  LEU113      0.0270
     86  CG       -27.3490   14.8140  -12.2310 C.3   113  LEU113      0.0019
     87  CD1      -26.9980   15.0820  -10.7410 C.3   113  LEU113      0.0001
     88  CD2      -26.9770   16.0010  -13.0900 C.3   113  LEU113      0.0001
     89  N        -30.1870   10.2410   -9.3710 N.3   116  LEU116     -0.1245
     90  CA       -30.5470   11.0640   -8.2080 C.3   116  LEU116      0.1561
     91  C        -31.7280   11.9530   -8.5340 C.2   116  LEU116      0.2260
     92  O        -32.1530   12.7560   -7.7130 O.2   116  LEU116     -0.2867
     93  CB       -29.3710   11.9740   -7.8190 C.3   116  LEU116      0.0270
     94  CG       -27.9140   11.4960   -7.7400 C.3   116  LEU116      0.0019
     95  CD1      -27.0530   12.5940   -7.1470 C.3   116  LEU116      0.0001
     96  CD2      -27.7470   10.2360   -6.9280 C.3   116  LEU116      0.0001
     97  N        -33.7260   16.8700   -7.6740 N.3   122  VAL122     -0.1231
     98  CA       -32.4900   16.0980   -7.6050 C.3   122  VAL122      0.1692
     99  C        -31.9880   15.9890   -6.1670 C.2   122  VAL122      0.2592
    100  O        -32.0110   16.9700   -5.4170 O.2   122  VAL122     -0.2718
    101  CB       -31.4010   16.7090   -8.5200 C.3   122  VAL122      0.0266
    102  CG1      -31.1170   18.1610   -8.1390 C.3   122  VAL122      0.0020
    103  CG2      -30.1040   15.8610   -8.5050 C.3   122  VAL122      0.0020
    104  N        -31.5470   14.7920   -5.7850 N.am  123  LEU123     -0.1966
    105  CA       -30.8800   14.6140   -4.4960 C.3   123  LEU123      0.1728
    106  C        -29.5930   15.4050   -4.4260 C.2   123  LEU123      0.2616
    107  O        -28.8630   15.5210   -5.4050 O.2   123  LEU123     -0.2715
    108  CB       -30.6010   13.1360   -4.2170 C.3   123  LEU123      0.0311
    109  CG       -31.8270   12.2520   -3.9350 C.3   123  LEU123      0.0022
    110  CD1      -31.3590   10.8340   -3.6800 C.3   123  LEU123      0.0001
    111  CD2      -32.6440   12.7520   -2.7420 C.3   123  LEU123      0.0001
    112  N        -29.3170   15.9820   -3.2760 N.am  124  ILE124     -0.1963
    113  CA       -28.0550   16.6840   -3.0910 C.3   124  ILE124      0.1727
    114  C        -27.4530   16.1630   -1.8000 C.2   124  ILE124      0.2616
    115  O        -28.1770   15.5780   -0.9860 O.2   124  ILE124     -0.2715
    116  CB       -28.2310   18.2480   -3.0820 C.3   124  ILE124      0.0290
    117  CG1      -29.0260   18.7220   -1.8570 C.3   124  ILE124      0.0022
    118  CG2      -28.8720   18.7300   -4.3850 C.3   124  ILE124      0.0023
    119  CD1      -29.2220   20.2410   -1.7470 C.3   124  ILE124      0.0001
    120  N        -26.1400   16.3220   -1.6300 N.am  125  SER125     -0.1950
    121  CA       -25.5170   16.0220   -0.3350 C.3   125  SER125      0.1924
    122  C        -25.6660   14.5320    0.0620 C.2   125  SER125      0.2314
    123  O        -26.0760   14.2240    1.1690 O.2   125  SER125     -0.2863
    124  CB       -26.1490   16.9360    0.7280 C.3   125  SER125      0.2116
    125  OG       -25.8230   16.5570    2.0640 O.3   125  SER125     -0.2180
    126  N        -29.4730   26.0940  -16.2510 N.3   146  PHE146     -0.1227
    127  CA       -28.3030   25.2910  -15.9750 C.3   146  PHE146      0.1736
    128  C        -28.6720   23.8130  -15.8090 C.2   146  PHE146      0.2595
    129  O        -28.0440   22.9470  -16.4210 O.2   146  PHE146     -0.2718
    130  CB       -27.5740   25.8180  -14.7390 C.3   146  PHE146      0.0547
    131  CG       -26.2880   25.1150  -14.4540 C.ar  146  PHE146     -0.0202
    132  CD1      -26.2770   23.9120  -13.7510 C.ar  146  PHE146     -0.0042
    133  CD2      -25.0870   25.6480  -14.8910 C.ar  146  PHE146     -0.0042
    134  CE1      -25.0770   23.2460  -13.4900 C.ar  146  PHE146     -0.0003
    135  CE2      -23.8770   24.9900  -14.6300 C.ar  146  PHE146     -0.0003
    136  CZ       -23.8760   23.7850  -13.9280 C.ar  146  PHE146     -0.0000
    137  N        -29.6920   23.5320  -14.9930 N.am  147  MET147     -0.1979
    138  CA       -30.0630   22.1510  -14.6660 C.3   147  MET147      0.1605
    139  C        -31.1480   21.5560  -15.5510 C.2   147  MET147      0.2287
    140  O        -31.2510   20.3340  -15.6620 O.2   147  MET147     -0.2864
    141  CB       -30.4990   22.0390  -13.2070 C.3   147  MET147      0.0413
    142  CG       -29.3690   22.1550  -12.1920 C.3   147  MET147      0.0598
    143  SD       -28.0760   20.8990  -12.4020 S.3   147  MET147     -0.1393
    144  CE       -28.8730   19.4270  -11.7820 C.3   147  MET147      0.0692
    145  N        -30.5150   18.7510  -18.0330 N.3   150  LYS150     -0.1245
    146  CA       -30.1390   17.5680  -17.2650 C.3   150  LYS150      0.1561
    147  C        -31.3670   16.8170  -16.7580 C.2   150  LYS150      0.2260
    148  O        -31.3860   15.5810  -16.7320 O.2   150  LYS150     -0.2867
    149  CB       -29.2610   17.9700  -16.0740 C.3   150  LYS150      0.0271
    150  CG       -27.8010   18.2480  -16.3930 C.3   150  LYS150      0.0035
    151  CD       -27.5840   19.6890  -16.8650 C.3   150  LYS150      0.0206
    152  CE       -26.1160   20.0430  -16.8710 C.3   150  LYS150      0.1093
    153  NZ       -25.8780   21.2470  -17.6980 N.3   150  LYS150     -0.1314
    154  N        -24.1330   22.3580  -22.3600 N.3   232  HIS232     -0.1241
    155  CA       -23.4880   22.7300  -21.1050 C.3   232  HIS232      0.1621
    156  C        -22.2620   23.6400  -21.2990 C.2   232  HIS232      0.2264
    157  O        -22.1880   24.7370  -20.7280 O.2   232  HIS232     -0.2867
    158  CB       -23.0930   21.4640  -20.3480 C.3   232  HIS232      0.0745
    159  CG       -22.3730   21.7300  -19.0680 C.ar  232  HIS232      0.0817
    160  ND1      -23.0170   22.1720  -17.9330 N.ar  232  HIS232     -0.2268
    161  CD2      -21.0650   21.6140  -18.7420 C.ar  232  HIS232      0.1154
    162  CE1      -22.1350   22.3280  -16.9640 C.ar  232  HIS232      0.1986
    163  NE2      -20.9420   21.9980  -17.4300 N.ar  232  HIS232     -0.2212
    164  N        -21.6460   27.4590  -20.3520 N.3   236  LEU236     -0.1245
    165  CA       -20.5170   27.9110  -19.5490 C.3   236  LEU236      0.1561
    166  C        -19.8520   29.1310  -20.1730 C.2   236  LEU236      0.2260
    167  O        -19.3920   30.0220  -19.4560 O.2   236  LEU236     -0.2867
    168  CB       -19.4770   26.8080  -19.3580 C.3   236  LEU236      0.0270
    169  CG       -19.7210   25.6480  -18.3850 C.3   236  LEU236      0.0019
    170  CD1      -18.3760   24.9660  -18.1160 C.3   236  LEU236      0.0001
    171  CD2      -20.3550   26.0990  -17.0620 C.3   236  LEU236      0.0001
    172  N        -13.8140   28.9010  -11.5680 N.3   247  LEU247     -0.1245
    173  CA       -13.8410   27.4480  -11.7650 C.3   247  LEU247      0.1561
    174  C        -12.6530   26.7110  -11.1410 C.2   247  LEU247      0.2260
    175  O        -11.5080   27.1460  -11.2510 O.2   247  LEU247     -0.2867
    176  CB       -14.0080   27.0790  -13.2510 C.3   247  LEU247      0.0270
    177  CG       -15.3410   27.3910  -13.9650 C.3   247  LEU247      0.0019
    178  CD1      -15.1280   27.5970  -15.4680 C.3   247  LEU247      0.0001
    179  CD2      -16.3960   26.3280  -13.7440 C.3   247  LEU247      0.0001
    180  N        -11.5540   21.1070  -12.9200 N.3   251  LEU251     -0.1245
    181  CA       -12.5400   21.3630  -13.9670 C.3   251  LEU251      0.1561
    182  C        -11.9700   22.1480  -15.1560 C.2   251  LEU251      0.2260
    183  O        -12.2150   21.7900  -16.3140 O.2   251  LEU251     -0.2867
    184  CB       -13.7860   22.0290  -13.4020 C.3   251  LEU251      0.0270
    185  CG       -14.6190   21.1900  -12.4190 C.3   251  LEU251      0.0019
    186  CD1      -15.8240   21.9890  -11.9490 C.3   251  LEU251      0.0001
    187  CD2      -15.0490   19.8600  -13.0060 C.3   251  LEU251      0.0001
    188  N        -12.1290   21.4410  -19.1500 N.3   255  TYR255     -0.1241
    189  CA       -12.7830   22.3290  -20.1270 C.3   255  TYR255      0.1605
    190  C        -11.8760   22.9320  -21.1950 C.2   255  TYR255      0.2264
    191  O        -12.3290   23.1880  -22.3170 O.2   255  TYR255     -0.2867
    192  CB       -13.5540   23.4420  -19.4270 C.3   255  TYR255      0.0534
    193  CG       -14.8340   22.9540  -18.8050 C.ar  255  TYR255     -0.0201
    194  CD1      -15.8920   22.5120  -19.5980 C.ar  255  TYR255     -0.0009
    195  CD2      -14.9870   22.9280  -17.4250 C.ar  255  TYR255     -0.0009
    196  CE1      -17.0710   22.0530  -19.0230 C.ar  255  TYR255      0.0417
    197  CE2      -16.1600   22.4720  -16.8440 C.ar  255  TYR255      0.0417
    198  CZ       -17.1940   22.0410  -17.6460 C.ar  255  TYR255      0.1957
    199  OH       -18.3540   21.6120  -17.0660 O.3   255  TYR255     -0.2866
@<TRIPOS>BOND
     1   154   155    1
     2   191   190    2
     3   156   155    1
     4   156   157    2
     5   190   189    1
     6   155   158    1
     7   164   165    1
     8   158   159    1
     9   166   165    1
    10   166   167    2
    11   189   192    1
    12   189   188    1
    13   194   196   ar
    14   194   193   ar
    15   165   168    1
    16   192   193    1
    17   168   169    1
    18    55    56    1
    19    55    52    1
    20   159   161   ar
    21   159   160   ar
    22   196   198   ar
    23    57    56   ar
    24    57    59   ar
    25    56    58   ar
    26   193   195   ar
    27   161   163   ar
    28    53    52    1
    29    53    54    2
    30    59    60   ar
    31    76    78   ar
    32    76    74   ar
    33   169   170    1
    34   169   171    1
    35    52    51    1
    36    78    79   ar
    37    58    60   ar
    38   145   146    1
    39   160   162   ar
    40   153   152    1
    41   198   199    1
    42   198   197   ar
    43    73    74    1
    44    73    70    1
    45   163   162   ar
    46   195   197   ar
    47    74    75   ar
    48   146   147    1
    49   146   149    1
    50    79    80    1
    51    79    77   ar
    52   152   151    1
    53   151   150    1
    54   147   148    2
    55   129   128    2
    56   150   149    1
    57    71    70    1
    58    71    72    2
    59   183   182    2
    60    70    69    1
    61    75    77   ar
    62   126   127    1
    63   127   128    1
    64   127   130    1
    65    69    63   am
    66   128   137   am
    67   140   139    2
    68    61    62    1
    69   139   138    1
    70   178   177    1
    71   182   181    1
    72   137   138    1
    73   133   135   ar
    74   133   131   ar
    75   130   131    1
    76    63    62    1
    77    63    64    2
    78   138   141    1
    79   135   136   ar
    80    62    65    1
    81   131   132   ar
    82    65    66    1
    83    65    67    1
    84   181   184    1
    85   181   180    1
    86   177   179    1
    87   177   176    1
    88   136   134   ar
    89   132   134   ar
    90    68    66    1
    91   184   185    1
    92     9    11   ar
    93     9     7   ar
    94    11    10   ar
    95   176   173    1
    96   141   142    1
    97    88    86    1
    98   187   185    1
    99    85    86    1
   100    85    82    1
   101    81    82    1
   102    49    48    1
   103    50    48    1
   104   185   186    1
   105   143   142    1
   106   143   144    1
   107     7     6   ar
   108    86    87    1
   109    83    82    1
   110    83    84    2
   111    10     8   ar
   112   173   172    1
   113   173   174    1
   114    48    45    1
   115    45    46    1
   116    45    44    1
   117   175   174    2
   118    47    46    2
   119     6     8   ar
   120     6     5    1
   121    43    42    1
   122    42    39    1
   123    25    24    2
   124    41    40    2
   125    24    26   am
   126    24    23    1
   127     5     2    1
   128    39    40    1
   129    39    38    1
   130    89    90    1
   131    16    17    1
   132    16    13    1
   133    22    23    1
   134    22    19    1
   135     2     3    1
   136     2     1    1
   137    19    18    1
   138    19    20    1
   139     4     3    2
   140    15    14    2
   141    18    14   am
   142    14    13    1
   143    91    90    1
   144    91    92    2
   145   101   103    1
   146   101   102    1
   147   101    98    1
   148    38    29   am
   149    21    20    2
   150    90    93    1
   151    13    12    1
   152    93    94    1
   153    94    95    1
   154    94    96    1
   155    97    98    1
   156    98    99    1
   157    37    35    1
   158    29    30    2
   159    29    28    1
   160    34    35    2
   161    34    33    1
   162    35    36    1
   163    32    31    1
   164    32    33    1
   165    99   104   am
   166    99   100    2
   167    28    27    1
   168    28    31    1
   169   104   105    1
   170   107   106    2
   171   105   106    1
   172   105   108    1
   173   106   112   am
   174   118   116    1
   175   108   109    1
   176   109   110    1
   177   109   111    1
   178   112   113    1
   179   113   116    1
   180   113   114    1
   181   116   117    1
   182   117   119    1
   183   114   120   am
   184   114   115    2
   185   120   121    1
   186   121   122    1
   187   121   124    1
   188   122   123    2
   189   124   125    1
