@<TRIPOS>MOLECULE
tmp/3s9tA01.pdb
 181 176 0 0 0
SMALL
GASTEIGER

@<TRIPOS>ATOM
      1  N          8.2440   -0.3270   10.3150 N.3     3  TRP3       -0.1241
      2  CA         7.6110   -1.4000   11.1610 C.3     3  TRP3        0.1605
      3  C          6.5760   -2.1390   10.3950 C.2     3  TRP3        0.2264
      4  O          6.0270   -1.6750    9.3480 O.2     3  TRP3       -0.2867
      5  CB         6.9250   -0.6420   12.3740 C.3     3  TRP3        0.0550
      6  CG         5.7210    0.1930   12.0140 C.ar    3  TRP3        0.0003
      7  CD1        5.6990    1.5180   11.7520 C.ar    3  TRP3        0.0946
      8  CD2        4.3880   -0.3230   11.9750 C.ar    3  TRP3        0.0152
      9  NE1        4.4340    1.8510   11.5190 N.ar    3  TRP3       -0.2442
     10  CE2        3.5690    0.7590   11.6540 C.ar    3  TRP3        0.0810
     11  CE3        3.7740   -1.5800   12.2970 C.ar    3  TRP3        0.0012
     12  CZ2        2.1610    0.6760   11.5540 C.ar    3  TRP3        0.0191
     13  CZ3        2.3670   -1.7040   12.1070 C.ar    3  TRP3        0.0001
     14  CH2        1.5490   -0.5380   11.7940 C.ar    3  TRP3        0.0015
     15  N         -3.2330    0.2980    3.5280 N.3    60  ASN60      -0.1296
     16  CA        -2.1500    1.1210    3.9620 C.3    60  ASN60       0.1339
     17  C         -0.9070    0.2910    4.1380 C.3    60  ASN60       0.2014
     18  O          0.1700    0.7190    4.7410 O.3    60  ASN60      -0.2188
     19  CB        -2.4440    1.9340    5.2270 C.3    60  ASN60       0.1102
     20  CG        -2.6740    1.0000    6.4320 C.2    60  ASN60       0.2623
     21  OD1       -2.4930   -0.2220    6.3770 O.2    60  ASN60      -0.2716
     22  ND2       -2.9520    1.6240    7.5390 N.am   60  ASN60      -0.0877
     23  N         -0.6760   -2.2980    6.1840 N.3    62  HIS62      -0.1226
     24  CA        -0.8350   -2.9170    7.5250 C.3    62  HIS62       0.1752
     25  C         -2.1590   -3.5630    7.7130 C.2    62  HIS62       0.2592
     26  O         -2.1900   -4.6420    8.2610 O.2    62  HIS62      -0.2718
     27  CB        -0.6210   -1.8290    8.6540 C.3    62  HIS62       0.0759
     28  CG         0.6680   -1.0610    8.4970 C.ar   62  HIS62       0.0818
     29  ND1        1.9200   -1.6590    8.5780 N.ar   62  HIS62      -0.2268
     30  CD2        0.8930    0.2560    8.2820 C.ar   62  HIS62       0.1154
     31  CE1        2.8660   -0.7140    8.4620 C.ar   62  HIS62       0.1986
     32  NE2        2.2830    0.4440    8.1870 N.ar   62  HIS62      -0.2212
     33  N         -3.1690   -2.9430    7.2160 N.am   63  ALA63      -0.2033
     34  CA        -4.5350   -3.4330    7.2220 C.3    63  ALA63       0.1283
     35  C         -5.2610   -2.6980    6.0930 C.3    63  ALA63       0.2036
     36  O         -4.5590   -2.0340    5.2140 O.3    63  ALA63      -0.2185
     37  CB        -5.1990   -3.2100    8.5970 C.3    63  ALA63       0.0262
     38  N         -8.3440    0.5300    5.8140 N.3    65  ASN65      -0.1240
     39  CA        -9.2710    1.4330    6.6040 C.3    65  ASN65       0.1653
     40  C        -10.5130    1.8120    5.7710 C.2    65  ASN65       0.2266
     41  O        -10.3160    2.2270    4.5950 O.2    65  ASN65      -0.2867
     42  CB        -8.5250    2.7370    6.9110 C.3    65  ASN65       0.1155
     43  CG        -7.4130    2.5620    7.8630 C.2    65  ASN65       0.2627
     44  OD1       -7.3810    1.6070    8.6150 O.2    65  ASN65      -0.2716
     45  ND2       -6.4580    3.5510    7.8800 N.am   65  ASN65      -0.0877
     46  N        -12.6180    6.1380   11.2250 N.3    90  GLN90      -0.1245
     47  CA       -12.3030    5.0480   10.3090 C.3    90  GLN90       0.1566
     48  C        -12.5930    3.7500   11.1020 C.2    90  GLN90       0.2260
     49  O        -12.6560    3.7820   12.3330 O.2    90  GLN90      -0.2867
     50  CB       -10.8770    5.0130    9.8270 C.3    90  GLN90       0.0367
     51  CG        -9.8380    5.0600   10.9730 C.3    90  GLN90       0.0905
     52  CD        -9.0980    3.7710   11.0990 C.2    90  GLN90       0.2608
     53  OE1       -9.6770    2.6740   11.2410 O.2    90  GLN90      -0.2717
     54  NE2       -7.7930    3.8540   11.1010 N.am   90  GLN90      -0.0878
     55  N        -11.0670   -0.5410   10.8740 N.3    92  HIS92      -0.1241
     56  CA       -10.2200   -1.5050   10.1900 C.3    92  HIS92       0.1621
     57  C        -10.3260   -2.7540   11.0800 C.2    92  HIS92       0.2264
     58  O        -10.8900   -2.7950   12.1390 O.2    92  HIS92      -0.2867
     59  CB        -8.7740   -1.0360   10.1550 C.3    92  HIS92       0.0745
     60  CG        -8.2670   -0.7380   11.5240 C.ar   92  HIS92       0.0817
     61  ND1       -8.3900    0.4700   12.1560 N.ar   92  HIS92      -0.2268
     62  CD2       -7.6170   -1.5260   12.4300 C.ar   92  HIS92       0.1154
     63  CE1       -7.9570    0.4040   13.3690 C.ar   92  HIS92       0.1986
     64  NE2       -7.5140   -0.8250   13.5920 N.ar   92  HIS92      -0.2212
     65  N         -7.9540   -6.4940   12.3850 N.3    94  HIS94      -0.1241
     66  CA        -6.7580   -7.3170   12.5200 C.3    94  HIS94       0.1621
     67  C         -7.2210   -8.7430   12.4370 C.2    94  HIS94       0.2264
     68  O         -8.2640   -9.1050   12.9150 O.2    94  HIS94      -0.2867
     69  CB        -6.1250   -7.0770   13.9170 C.3    94  HIS94       0.0745
     70  CG        -5.8050   -5.6160   14.1790 C.ar   94  HIS94       0.0817
     71  ND1       -4.5470   -5.0410   13.9630 N.ar   94  HIS94      -0.2268
     72  CD2       -6.6810   -4.6110   14.5320 C.ar   94  HIS94       0.1154
     73  CE1       -4.6370   -3.7380   14.2670 C.ar   94  HIS94       0.1986
     74  NE2       -5.8660   -3.3990   14.5640 N.ar   94  HIS94      -0.2212
     75  N        -11.8300   -2.6880   14.7560 N.3   117  HIS117     -0.1245
     76  CA       -11.6270   -1.4720   15.5530 C.3   117  HIS117      0.1576
     77  C        -12.3340   -0.2910   14.8910 C.2   117  HIS117      0.2261
     78  O        -11.9850    0.0240   13.7460 O.2   117  HIS117     -0.2867
     79  CB       -10.1720   -1.1310   15.6230 C.3   117  HIS117      0.0459
     80  CG        -9.4880   -2.1730   16.5070 C.3   117  HIS117      0.0936
     81  ND1       -8.1240   -2.4630   16.4770 N.3   117  HIS117     -0.1997
     82  CD2      -10.0180   -3.0600   17.4020 C.3   117  HIS117      0.1077
     83  CE1       -7.7820   -3.2590   17.3860 C.3   117  HIS117      0.1782
     84  NE2       -8.9310   -3.7580   17.9140 N.3   117  HIS117     -0.1983
     85  N        -12.6830    3.4900   15.1680 N.3   119  VAL119     -0.1245
     86  CA       -11.8560    4.5420   15.8330 C.3   119  VAL119      0.1561
     87  C        -12.5540    5.8910   15.8190 C.2   119  VAL119      0.2260
     88  O        -12.9960    6.3130   14.7550 O.2   119  VAL119     -0.2867
     89  CB       -10.5540    4.6270   15.0060 C.3   119  VAL119      0.0252
     90  CG1       -9.5910    5.7090   15.6020 C.3   119  VAL119      0.0019
     91  CG2       -9.8610    3.2480   14.9110 C.3   119  VAL119      0.0019
     92  N         -8.4110   14.5640   14.7070 N.3   128  PHE128     -0.1241
     93  CA        -7.7440   13.2930   15.1380 C.3   128  PHE128      0.1605
     94  C         -6.2430   13.5550   15.4760 C.2   128  PHE128      0.2264
     95  O         -5.7040   13.0550   16.4670 O.2   128  PHE128     -0.2867
     96  CB        -7.7890   12.2970   13.9630 C.3   128  PHE128      0.0534
     97  CG        -7.0970   11.0460   14.2000 C.ar  128  PHE128     -0.0203
     98  CD1       -7.7170    9.9610   14.8830 C.ar  128  PHE128     -0.0042
     99  CD2       -5.7320   10.8490   13.8900 C.ar  128  PHE128     -0.0042
    100  CE1       -7.0050    8.7470   15.0970 C.ar  128  PHE128     -0.0003
    101  CE2       -5.0300    9.6580   14.0670 C.ar  128  PHE128     -0.0003
    102  CZ        -5.7190    8.5730   14.6860 C.ar  128  PHE128     -0.0000
    103  N         -4.8590   12.4940   19.2860 N.3   132  VAL132     -0.1245
    104  CA        -3.9260   11.4120   19.6980 C.3   132  VAL132      0.1561
    105  C         -2.7930   11.8450   20.6320 C.2   132  VAL132      0.2260
    106  O         -2.0750   11.0260   21.1840 O.2   132  VAL132     -0.2867
    107  CB        -3.3040   10.6640   18.4870 C.3   132  VAL132      0.0252
    108  CG1       -4.3980    9.9820   17.6940 C.3   132  VAL132      0.0019
    109  CG2       -2.4560   11.6130   17.6250 C.3   132  VAL132      0.0019
    110  N         -8.8680    9.4130   22.1360 N.3   138  LEU138     -0.1245
    111  CA        -9.5610    8.5090   21.2350 C.3   138  LEU138      0.1561
    112  C        -10.4670    7.5320   22.0330 C.2   138  LEU138      0.2260
    113  O        -10.1620    7.2500   23.2230 O.2   138  LEU138     -0.2867
    114  CB        -8.5710    7.6080   20.4670 C.3   138  LEU138      0.0270
    115  CG        -7.7010    8.3620   19.4860 C.3   138  LEU138      0.0019
    116  CD1       -6.9150    7.2680   18.6680 C.3   138  LEU138      0.0001
    117  CD2       -8.3710    9.3350   18.5630 C.3   138  LEU138      0.0001
    118  N        -11.8780    3.6650   21.0930 N.3   140  VAL140     -0.1245
    119  CA       -12.0250    2.6400   20.0970 C.3   140  VAL140      0.1561
    120  C        -13.0000    1.5380   20.5570 C.2   140  VAL140      0.2260
    121  O        -12.8980    1.0740   21.6720 O.2   140  VAL140     -0.2867
    122  CB       -10.6530    1.9910   19.7540 C.3   140  VAL140      0.0252
    123  CG1      -10.8260    1.0110   18.5900 C.3   140  VAL140      0.0019
    124  CG2       -9.7200    3.0900   19.2880 C.3   140  VAL140      0.0019
    125  N         -2.9010    3.0620   21.1650 N.3   195  LEU195     -0.1231
    126  CA        -2.9550    2.5540   19.7970 C.3   195  LEU195      0.1693
    127  C         -2.2490    1.1920   19.8640 C.2   195  LEU195      0.2593
    128  O         -1.2510    1.0070   20.6030 O.2   195  LEU195     -0.2718
    129  CB        -2.1540    3.4270   18.8330 C.3   195  LEU195      0.0284
    130  CG        -2.4390    4.9220   18.8100 C.3   195  LEU195      0.0019
    131  CD1       -1.5640    5.6250   17.7990 C.3   195  LEU195      0.0001
    132  CD2       -3.9160    5.3110   18.6400 C.3   195  LEU195      0.0001
    133  N         -2.7450    0.2150   19.0760 N.am  196  THR196     -0.1939
    134  CA        -2.0360   -1.1090   18.9970 C.3   196  THR196      0.2028
    135  C         -1.0480   -1.1210   17.8710 C.2   196  THR196      0.2643
    136  O         -0.3950   -2.1790   17.6920 O.2   196  THR196     -0.2714
    137  CB        -3.0520   -2.2100   18.8300 C.3   196  THR196      0.1808
    138  OG1       -3.6230   -2.0990   17.5470 O.3   196  THR196     -0.2208
    139  CG2       -4.0670   -2.2450   19.9510 C.3   196  THR196      0.0379
    140  N         -0.8610   -0.0560   17.1250 N.am  197  THR197     -0.1937
    141  CA         0.0890    0.0510   16.0970 C.3   197  THR197      0.2013
    142  C          0.9490    1.2580   16.3760 C.2   197  THR197      0.2484
    143  O          0.5150    2.2380   17.0130 O.2   197  THR197     -0.2729
    144  CB        -0.5150    0.3580   14.7170 C.3   197  THR197      0.1807
    145  OG1       -1.3400    1.5290   14.8010 O.3   197  THR197     -0.2208
    146  CG2       -1.4330   -0.8210   14.1850 C.3   197  THR197      0.0379
    147  N          2.2170    1.2540   15.9750 N.am  198  PRO198     -0.2715
    148  CA         2.9970    2.5320   16.0480 C.3   198  PRO198      0.1521
    149  C          2.1390    3.6540   15.5260 C.2   198  PRO198      0.2440
    150  O          1.5060    3.5310   14.4790 O.2   198  PRO198     -0.2731
    151  CB         4.2120    2.1680   15.1510 C.3   198  PRO198      0.0310
    152  CG         4.4300    0.6750   15.3780 C.3   198  PRO198      0.0237
    153  CD         2.9700    0.1020   15.3000 C.3   198  PRO198      0.0939
    154  N          2.1680    4.8040   16.1940 N.am  199  PRO199     -0.2727
    155  CA         3.1710    5.1350   17.2110 C.3   199  PRO199      0.1402
    156  C          2.8290    4.7150   18.6410 C.2   199  PRO199      0.2269
    157  O          3.4900    5.1670   19.5680 O.2   199  PRO199     -0.2865
    158  CB         3.2630    6.6650   17.1150 C.3   199  PRO199      0.0296
    159  CG         1.9340    7.0820   16.6050 C.3   199  PRO199      0.0237
    160  CD         1.5140    6.0050   15.6500 C.3   199  PRO199      0.0939
    161  N         -5.9990    6.1480   24.2180 N.3   204  VAL204     -0.1245
    162  CA        -7.2740    5.4830   23.8620 C.3   204  VAL204      0.1561
    163  C         -8.0200    5.0190   25.0750 C.2   204  VAL204      0.2260
    164  O         -7.4480    4.3390   25.9420 O.2   204  VAL204     -0.2867
    165  CB        -6.9750    4.1970   22.9970 C.3   204  VAL204      0.0252
    166  CG1       -8.2830    3.4730   22.6560 C.3   204  VAL204      0.0019
    167  CG2       -6.2010    4.5410   21.7320 C.3   204  VAL204      0.0019
    168  N        -10.3780    2.2050   25.5640 N.3   206  TRP206     -0.1241
    169  CA       -10.8840    0.9970   24.8610 C.3   206  TRP206      0.1605
    170  C        -12.2110    0.5290   25.3910 C.2   206  TRP206      0.2264
    171  O        -12.4360    0.4710   26.6070 O.2   206  TRP206     -0.2867
    172  CB        -9.8230   -0.1560   25.0760 C.3   206  TRP206      0.0550
    173  CG        -8.7060   -0.0720   24.0810 C.ar  206  TRP206      0.0003
    174  CD1       -7.4490    0.5540   24.2950 C.ar  206  TRP206      0.0946
    175  CD2       -8.7860   -0.4280   22.7080 C.ar  206  TRP206      0.0152
    176  NE1       -6.7920    0.5520   23.0980 N.ar  206  TRP206     -0.2442
    177  CE2       -7.4930   -0.0990   22.1130 C.ar  206  TRP206      0.0810
    178  CE3       -9.7730   -1.1160   21.9340 C.ar  206  TRP206      0.0012
    179  CZ2       -7.2830   -0.2470   20.7650 C.ar  206  TRP206      0.0191
    180  CZ3       -9.5090   -1.3350   20.6230 C.ar  206  TRP206      0.0001
    181  CH2       -8.2370   -0.9260   20.0350 C.ar  206  TRP206      0.0015
@<TRIPOS>BOND
     1    15    16    1
     2    16    17    1
     3    16    19    1
     4    17    18    1
     5    41    40    2
     6    36    35    1
     7    19    20    1
     8    40    39    1
     9    38    39    1
    10    35    34    1
    11    23    24    1
    12    21    20    2
    13    20    22   am
    14    39    42    1
    15    42    43    1
    16    33    34    1
    17    33    25   am
    18    34    37    1
    19    24    25    1
    20    24    27    1
    21    25    26    2
    22    43    45   am
    23    43    44    2
    24    32    30   ar
    25    32    31   ar
    26    30    28   ar
    27    31    29   ar
    28    28    29   ar
    29    28    27    1
    30     4     3    2
    31    50    47    1
    32    50    51    1
    33    59    56    1
    34    59    60    1
    35    56    55    1
    36    56    57    1
    37    47    48    1
    38    47    46    1
    39     1     2    1
    40     3     2    1
    41    51    52    1
    42    57    58    2
    43    52    54   am
    44    52    53    2
    45    48    49    2
    46     2     5    1
    47     9    10   ar
    48     9     7   ar
    49    60    61   ar
    50    60    62   ar
    51    12    10   ar
    52    12    14   ar
    53    10     8   ar
    54     7     6   ar
    55    14    13   ar
    56     8     6   ar
    57     8    11   ar
    58     6     5    1
    59    13    11   ar
    60    61    63   ar
    61    65    66    1
    62    62    64   ar
    63    67    66    1
    64    67    68    2
    65    66    69    1
    66    63    64   ar
    67    78    77    2
    68    99   101   ar
    69    99    97   ar
    70    69    70    1
    71    71    70   ar
    72    71    73   ar
    73    96    97    1
    74    96    93    1
    75   101   102   ar
    76    70    72   ar
    77   146   144    1
    78    97    98   ar
    79    73    74   ar
    80   150   149    2
    81    72    74   ar
    82   102   100   ar
    83    92    93    1
    84   144   145    1
    85   144   141    1
    86    88    87    2
    87    75    76    1
    88    98   100   ar
    89    77    76    1
    90    91    89    1
    91    89    90    1
    92    89    86    1
    93    93    94    1
    94   151   152    1
    95   151   148    1
    96    85    86    1
    97   153   152    1
    98   153   147    1
    99    94    95    2
   100   149   148    1
   101   149   154   am
   102    76    79    1
   103    79    80    1
   104   160   154    1
   105   160   159    1
   106    87    86    1
   107   147   148    1
   108   147   142   am
   109   141   142    1
   110   141   140    1
   111   154   155    1
   112   142   143    2
   113    81    80    1
   114    81    83    1
   115    80    82    1
   116   159   158    1
   117   158   155    1
   118   140   135   am
   119   155   156    1
   120    83    84    1
   121    82    84    1
   122   138   137    1
   123   109   107    1
   124   136   135    2
   125   108   107    1
   126   131   130    1
   127   135   134    1
   128   107   104    1
   129   117   115    1
   130   123   122    1
   131   132   130    1
   132   156   157    2
   133   116   115    1
   134   130   129    1
   135   137   134    1
   136   137   139    1
   137   129   126    1
   138   134   133    1
   139   133   127   am
   140   103   104    1
   141   124   122    1
   142   115   114    1
   143   104   105    1
   144   122   119    1
   145   126   127    1
   146   126   125    1
   147   127   128    2
   148   181   180   ar
   149   181   179   ar
   150   119   120    1
   151   119   118    1
   152   114   111    1
   153   120   121    2
   154   180   178   ar
   155   105   106    2
   156   179   177   ar
   157   111   112    1
   158   111   110    1
   159   167   165    1
   160   178   175   ar
   161   112   113    2
   162   177   175   ar
   163   177   176   ar
   164   166   165    1
   165   175   173   ar
   166   165   162    1
   167   176   174   ar
   168   162   161    1
   169   162   163    1
   170   173   174   ar
   171   173   172    1
   172   169   172    1
   173   169   170    1
   174   169   168    1
   175   163   164    2
   176   170   171    2
