@<TRIPOS>MOLECULE
tmp/3s9uA01.pdb
 187 175 0 0 0
SMALL
GASTEIGER

@<TRIPOS>ATOM
      1  N         -3.9950   17.8880   -4.5130 N.3     9  MET9       -0.1230
      2  CA        -3.9220   18.3200   -3.1230 C.3     9  MET9        0.1702
      3  C         -3.1020   17.2840   -2.3540 C.2     9  MET9        0.2592
      4  O         -3.5150   16.1310   -2.2400 O.2     9  MET9       -0.2718
      5  CB        -5.3280   18.4630   -2.5300 C.3     9  MET9        0.0401
      6  CG        -5.3690   18.7300   -1.0230 C.3     9  MET9        0.0596
      7  SD        -4.5560   20.2630   -0.4960 S.3     9  MET9       -0.1393
      8  CE        -5.6720   21.4890   -1.1900 C.3     9  MET9        0.0692
      9  N         -1.9420   17.6980   -1.8430 N.am   10  VAL10      -0.1966
     10  CA        -0.9990   16.7700   -1.1980 C.3    10  VAL10       0.1727
     11  C         -0.1550   17.4410   -0.1080 C.2    10  VAL10       0.2616
     12  O          0.1520   18.6340   -0.1900 O.2    10  VAL10      -0.2715
     13  CB        -0.0770   16.0670   -2.2540 C.3    10  VAL10       0.0290
     14  CG1        0.8640   17.0620   -2.9210 C.3    10  VAL10       0.0023
     15  CG2        0.7070   14.9130   -1.6300 C.3    10  VAL10       0.0023
     16  N          0.1840   16.6700    0.9270 N.am   11  ALA11      -0.1977
     17  CA         1.1720   17.0840    1.9280 C.3    11  ALA11       0.1597
     18  C          2.2980   16.0520    1.9520 C.2    11  ALA11       0.2287
     19  O          2.0400   14.8510    2.0700 O.2    11  ALA11      -0.2864
     20  CB         0.5340   17.2080    3.3000 C.3    11  ALA11       0.0319
     21  N         -1.2530    4.9270    6.4920 N.3    23  ASN23      -0.1225
     22  CA        -1.7370    6.0700    7.2670 C.3    23  ASN23       0.1785
     23  C         -0.8190    7.2800    7.0550 C.2    23  ASN23       0.2597
     24  O          0.1950    7.1730    6.3650 O.2    23  ASN23      -0.2718
     25  CB        -1.7990    5.7030    8.7540 C.3    23  ASN23       0.1169
     26  CG        -2.8990    6.4470    9.5090 C.2    23  ASN23       0.2627
     27  OD1       -3.3590    7.5160    9.0930 O.2    23  ASN23      -0.2716
     28  ND2       -3.3180    5.8790   10.6370 N.am   23  ASN23      -0.0877
     29  N         -1.1800    8.4230    7.6340 N.am   24  LEU24      -0.1980
     30  CA        -0.3270    9.6120    7.5980 C.3    24  LEU24       0.1596
     31  C          0.7630    9.5030    8.6640 C.2    24  LEU24       0.2287
     32  O          0.4910    9.0420    9.7740 O.2    24  LEU24      -0.2864
     33  CB        -1.1530   10.8840    7.8230 C.3    24  LEU24       0.0297
     34  CG        -2.2870   11.2010    6.8400 C.3    24  LEU24       0.0022
     35  CD1       -3.1390   12.3370    7.3740 C.3    24  LEU24       0.0001
     36  CD2       -1.7410   11.5500    5.4550 C.3    24  LEU24       0.0001
     37  N          2.2750   11.9840   10.1500 N.3    26  TRP26      -0.1241
     38  CA         2.2120   13.1400   11.0460 C.3    26  TRP26       0.1605
     39  C          0.7710   13.5010   11.3770 C.2    26  TRP26       0.2264
     40  O         -0.1650   13.0640   10.6930 O.2    26  TRP26      -0.2867
     41  CB         2.8800   14.3570   10.3920 C.3    26  TRP26       0.0550
     42  CG         2.3150   14.6430    9.0290 C.ar   26  TRP26       0.0003
     43  CD1        1.1650   15.3230    8.7360 C.ar   26  TRP26       0.0946
     44  CD2        2.8610   14.2200    7.7770 C.ar   26  TRP26       0.0152
     45  NE1        0.9660   15.3550    7.3750 N.ar   26  TRP26      -0.2442
     46  CE2        1.9900   14.6800    6.7630 C.ar   26  TRP26       0.0810
     47  CE3        4.0050   13.5010    7.4120 C.ar   26  TRP26       0.0012
     48  CZ2        2.2330   14.4480    5.4060 C.ar   26  TRP26       0.0191
     49  CZ3        4.2440   13.2710    6.0630 C.ar   26  TRP26       0.0001
     50  CH2        3.3600   13.7410    5.0790 C.ar   26  TRP26       0.0015
     51  N         -1.2060   17.0790   11.8460 N.3    28  LEU28      -0.1245
     52  CA        -1.2080   18.5370   11.7650 C.3    28  LEU28       0.1561
     53  C         -2.6400   19.0340   11.5850 C.2    28  LEU28       0.2260
     54  O         -3.1040   19.2160   10.4550 O.2    28  LEU28      -0.2867
     55  CB        -0.3140   19.0350   10.6180 C.3    28  LEU28       0.0270
     56  CG         1.2080   18.8600   10.7040 C.3    28  LEU28       0.0019
     57  CD1        1.8540   19.1490    9.3380 C.3    28  LEU28       0.0001
     58  CD2        1.8280   19.7370   11.7930 C.3    28  LEU28       0.0001
     59  N         -3.1160   22.0290    9.2700 N.3    31  GLU31      -0.1231
     60  CA        -2.9460   21.6710    7.8660 C.3    31  GLU31       0.1699
     61  C         -4.2370   21.0590    7.3210 C.2    31  GLU31       0.2592
     62  O         -4.6530   21.3650    6.2060 O.2    31  GLU31      -0.2718
     63  CB        -1.7710   20.6960    7.7170 C.3    31  GLU31       0.0402
     64  CG        -1.0530   20.7580    6.3640 C.3    31  GLU31       0.1161
     65  CD        -1.7490   19.9580    5.2760 C.2    31  GLU31       0.3649
     66  OE1       -2.3290   18.8980    5.5860 O.co2  31  GLU31      -0.2457
     67  OE2       -1.7160   20.3900    4.1040 O.co2  31  GLU31      -0.2457
     68  N         -4.8780   20.2150    8.1290 N.am   32  LEU32      -0.1980
     69  CA        -6.1610   19.6200    7.7670 C.3    32  LEU32       0.1596
     70  C         -7.2160   20.7060    7.5530 C.2    32  LEU32       0.2287
     71  O         -8.0430   20.6030    6.6500 O.2    32  LEU32      -0.2864
     72  CB        -6.6070   18.6230    8.8430 C.3    32  LEU32       0.0297
     73  CG        -7.9840   17.9560    8.7410 C.3    32  LEU32       0.0022
     74  CD1       -8.0780   17.0730    7.5070 C.3    32  LEU32       0.0001
     75  CD2       -8.2710   17.1450    9.9950 C.3    32  LEU32       0.0001
     76  N         -6.7400   22.1680    4.1880 N.3    35  VAL35      -0.1231
     77  CA        -7.2690   21.2190    3.2040 C.3    35  VAL35       0.1692
     78  C         -8.7860   21.3670    3.0680 C.2    35  VAL35       0.2591
     79  O         -9.3040   21.4830    1.9510 O.2    35  VAL35      -0.2718
     80  CB        -6.9080   19.7580    3.5760 C.3    35  VAL35       0.0266
     81  CG1       -7.6670   18.7610    2.7010 C.3    35  VAL35       0.0020
     82  CG2       -5.4050   19.5390    3.4630 C.3    35  VAL35       0.0020
     83  N         -9.4810   21.3740    4.2060 N.am   36  LYS36      -0.1980
     84  CA       -10.9460   21.4890    4.2330 C.3    36  LYS36       0.1596
     85  C        -11.4130   22.7810    3.5700 C.2    36  LYS36       0.2287
     86  O        -12.3040   22.7610    2.7240 O.2    36  LYS36      -0.2864
     87  CB       -11.4750   21.3980    5.6710 C.3    36  LYS36       0.0298
     88  CG       -11.4290   20.0000    6.2750 C.3    36  LYS36       0.0038
     89  CD       -11.8370   20.0190    7.7490 C.3    36  LYS36       0.0206
     90  CE       -11.7800   18.6260    8.3610 C.3    36  LYS36       0.1093
     91  NZ       -12.1350   18.6240    9.8080 N.3    36  LYS36      -0.1314
     92  N        -10.6700   22.7220   -0.3620 N.3    39  THR39      -0.1218
     93  CA       -11.3780   21.7090   -1.1560 C.3    39  THR39       0.1862
     94  C        -12.9080   21.6880   -1.0350 C.2    39  THR39       0.2287
     95  O        -13.5770   21.0390   -1.8490 O.2    39  THR39      -0.2866
     96  CB       -10.8740   20.2790   -0.8530 C.3    39  THR39       0.1770
     97  OG1      -11.1420   19.9500    0.5160 O.3    39  THR39      -0.2211
     98  CG2       -9.3740   20.1490   -1.1370 C.3    39  THR39       0.0375
     99  N        -13.5550   15.3650   -4.6110 N.3    44  LEU44      -0.1245
    100  CA       -12.3040   14.7430   -4.1750 C.3    44  LEU44       0.1561
    101  C        -12.1640   13.3990   -4.8650 C.2    44  LEU44       0.2260
    102  O        -13.0610   12.5560   -4.7760 O.2    44  LEU44      -0.2867
    103  CB       -12.2810   14.5290   -2.6620 C.3    44  LEU44       0.0270
    104  CG       -12.2480   15.7340   -1.7230 C.3    44  LEU44       0.0019
    105  CD1      -12.2020   15.2370   -0.2890 C.3    44  LEU44       0.0001
    106  CD2      -11.0590   16.6490   -2.0140 C.3    44  LEU44       0.0001
    107  N         -6.5000    5.0850   -0.0170 N.3    50  ASN50      -0.1240
    108  CA        -6.7000    6.3770    0.6380 C.3    50  ASN50       0.1653
    109  C         -8.1110    6.4850    1.2120 C.2    50  ASN50       0.2266
    110  O         -8.2760    6.8030    2.3940 O.2    50  ASN50      -0.2867
    111  CB        -6.4340    7.5270   -0.3420 C.3    50  ASN50       0.1155
    112  CG        -6.5650    8.9060    0.3030 C.2    50  ASN50       0.2627
    113  OD1       -6.4370    9.0610    1.5210 O.2    50  ASN50      -0.2716
    114  ND2       -6.8120    9.9160   -0.5210 N.am   50  ASN50      -0.0877
    115  N         -8.6840    4.3290    4.3140 N.3    53  ALA53      -0.1231
    116  CA        -7.9410    4.8900    5.4450 C.3    53  ALA53       0.1694
    117  C         -8.6540    6.1100    6.0380 C.2    53  ALA53       0.2591
    118  O         -8.6450    6.3060    7.2550 O.2    53  ALA53      -0.2718
    119  CB        -6.5190    5.2440    5.0350 C.3    53  ALA53       0.0304
    120  N         -9.2630    6.9270    5.1790 N.am   54  ILE54      -0.1980
    121  CA       -10.0960    8.0440    5.6320 C.3    54  ILE54       0.1595
    122  C        -11.3190    7.4770    6.3680 C.2    54  ILE54       0.2287
    123  O        -11.6370    7.9110    7.4820 O.2    54  ILE54      -0.2864
    124  CB       -10.4960    8.9880    4.4580 C.3    54  ILE54       0.0276
    125  CG1       -9.2470    9.6610    3.8720 C.3    54  ILE54       0.0022
    126  CG2      -11.4970   10.0460    4.9200 C.3    54  ILE54       0.0022
    127  CD1       -9.4480   10.3060    2.5050 C.3    54  ILE54       0.0001
    128  N        -14.6680    7.2980    5.8070 N.3    56  ARG56      -0.1245
    129  CA       -16.0150    7.8590    5.7110 C.3    56  ARG56       0.1563
    130  C        -16.1130    8.8330    4.5300 C.2    56  ARG56       0.2260
    131  O        -15.1040    9.4100    4.1250 O.2    56  ARG56      -0.2867
    132  CB       -16.3860    8.5670    7.0270 C.3    56  ARG56       0.0307
    133  CG       -15.6110    9.8620    7.2780 C.3    56  ARG56       0.0489
    134  CD       -15.5040   10.2080    8.7540 C.3    56  ARG56       0.2205
    135  NE       -14.8890   11.5240    8.9490 N.pl3  56  ARG56      -0.0865
    136  CZ       -13.5780   11.7630    8.9680 C.cat  56  ARG56       0.5346
    137  NH1      -12.7000   10.7800    8.8010 N.pl3  56  ARG56       0.1354
    138  NH2      -13.1400   13.0000    9.1540 N.pl3  56  ARG56       0.1354
    139  N        -16.5870   12.3300    2.9610 N.3    58  LEU58      -0.1245
    140  CA       -16.3850   13.6880    3.4560 C.3    58  LEU58       0.1561
    141  C        -17.5520   14.5780    3.0240 C.2    58  LEU58       0.2260
    142  O        -17.8700   14.6490    1.8330 O.2    58  LEU58      -0.2867
    143  CB       -15.0390   14.2590    2.9870 C.3    58  LEU58       0.0270
    144  CG       -13.7180   13.6620    3.5090 C.3    58  LEU58       0.0019
    145  CD1      -13.8370   13.1190    4.9430 C.3    58  LEU58       0.0001
    146  CD2      -13.1750   12.5840    2.5750 C.3    58  LEU58       0.0001
    147  N        -19.0220   17.5110   -0.3620 N.3    61  ARG61      -0.1245
    148  CA       -18.1740   17.2520   -1.5280 C.3    61  ARG61       0.1563
    149  C        -18.6100   15.9750   -2.2480 C.2    61  ARG61       0.2260
    150  O        -19.1420   15.0530   -1.6240 O.2    61  ARG61      -0.2867
    151  CB       -16.7090   17.1110   -1.1010 C.3    61  ARG61       0.0307
    152  CG       -15.9850   18.4230   -0.8030 C.3    61  ARG61       0.0489
    153  CD       -14.6500   18.1660   -0.1260 C.3    61  ARG61       0.2205
    154  NE       -14.8460   17.6780    1.2360 N.pl3  61  ARG61      -0.0865
    155  CZ       -14.5870   18.3780    2.3370 C.cat  61  ARG61       0.5346
    156  NH1      -14.0850   19.6050    2.2570 N.pl3  61  ARG61       0.1354
    157  NH2      -14.8180   17.8400    3.5270 N.pl3  61  ARG61       0.1354
    158  N         -6.7050   13.6310   -4.6070 N.3    99  PHE99      -0.1241
    159  CA        -6.5090   13.6670   -3.1630 C.3    99  PHE99       0.1605
    160  C         -5.5660   12.5670   -2.6640 C.2    99  PHE99       0.2264
    161  O         -5.3400   12.4430   -1.4610 O.2    99  PHE99      -0.2867
    162  CB        -7.8780   13.5500   -2.4800 C.3    99  PHE99       0.0534
    163  CG        -7.9350   14.1370   -1.0940 C.ar   99  PHE99      -0.0203
    164  CD1       -7.7030   15.4930   -0.8840 C.ar   99  PHE99      -0.0042
    165  CD2       -8.2630   13.3360   -0.0030 C.ar   99  PHE99      -0.0042
    166  CE1       -7.7710   16.0430    0.4010 C.ar   99  PHE99      -0.0003
    167  CE2       -8.3350   13.8750    1.2900 C.ar   99  PHE99      -0.0003
    168  CZ        -8.0860   15.2280    1.4880 C.ar   99  PHE99      -0.0000
    169  N         -2.0420    9.6410   -7.6170 N.3   105  TYR105     -0.1241
    170  CA        -1.2200   10.7580   -8.1010 C.3   105  TYR105      0.1605
    171  C         -0.4810   10.3960   -9.3940 C.2   105  TYR105      0.2264
    172  O         -0.4510   11.1950  -10.3320 O.2   105  TYR105     -0.2867
    173  CB        -0.2100   11.2320   -7.0500 C.3   105  TYR105      0.0534
    174  CG        -0.8120   11.9000   -5.8300 C.ar  105  TYR105     -0.0201
    175  CD1       -1.7660   12.9140   -5.9510 C.ar  105  TYR105     -0.0009
    176  CD2       -0.3980   11.5360   -4.5540 C.ar  105  TYR105     -0.0009
    177  CE1       -2.3070   13.5290   -4.8160 C.ar  105  TYR105      0.0417
    178  CE2       -0.9280   12.1390   -3.4230 C.ar  105  TYR105      0.0417
    179  CZ        -1.8780   13.1360   -3.5610 C.ar  105  TYR105      0.1957
    180  OH        -2.4060   13.7220   -2.4330 O.3   105  TYR105     -0.2866
    181  N          1.6920   20.9880    0.3540 N.3   118  THR118     -0.1218
    182  CA         2.2260   21.3760    1.6440 C.3   118  THR118      0.1862
    183  C          3.5530   20.6480    1.8300 C.2   118  THR118      0.2287
    184  O          3.6250   19.4340    1.6760 O.2   118  THR118     -0.2866
    185  CB         1.2580   21.0360    2.7910 C.3   118  THR118      0.1770
    186  OG1       -0.0050   21.6670    2.5460 O.3   118  THR118     -0.2211
    187  CG2        1.8160   21.5300    4.1340 C.3   118  THR118      0.0375
@<TRIPOS>BOND
     1   172   171    2
     2   171   170    1
     3   170   169    1
     4   170   173    1
     5   173   174    1
     6   175   174   ar
     7   175   177   ar
     8   174   176   ar
     9   101   102    2
    10   101   100    1
    11   177   179   ar
    12    99   100    1
    13   158   159    1
    14   176   178   ar
    15     1     2    1
    16   100   103    1
    17   179   178   ar
    18   179   180    1
    19   159   160    1
    20   159   162    1
    21     2     5    1
    22     2     3    1
    23    14    13    1
    24   160   161    2
    25   103   104    1
    26     5     6    1
    27   162   163    1
    28     3     4    2
    29     3     9   am
    30    13    15    1
    31    13    10    1
    32   149   150    2
    33   149   148    1
    34   106   104    1
    35    95    94    2
    36     9    10    1
    37   104   105    1
    38   148   151    1
    39   148   147    1
    40    10    11    1
    41     8     7    1
    42    93    94    1
    43    93    96    1
    44    93    92    1
    45    98    96    1
    46   151   152    1
    47   163   164   ar
    48   163   165   ar
    49     6     7    1
    50   164   166   ar
    51    96    97    1
    52   152   153    1
    53   114   112   am
    54   111   112    1
    55   111   108    1
    56    12    11    2
    57   153   154    1
    58    11    16   am
    59   107   108    1
    60   165   167   ar
    61   112   113    2
    62   181   182    1
    63   166   168   ar
    64   108   109    1
    65    16    17    1
    66   109   110    2
    67   154   155    2
    68   167   168   ar
    69   182   183    1
    70   182   185    1
    71   184   183    2
    72   142   141    2
    73    17    18    1
    74    17    20    1
    75    79    78    2
    76    18    19    2
    77   156   155    1
    78   155   157    1
    79   127   125    1
    80   186   185    1
    81   146   144    1
    82    81    80    1
    83    86    85    2
    84   185   187    1
    85   139   140    1
    86   143   140    1
    87   143   144    1
    88   141   140    1
    89    78    77    1
    90    78    83   am
    91    77    80    1
    92    77    76    1
    93    82    80    1
    94   144   145    1
    95    85    84    1
    96   125   124    1
    97    67    65   ar
    98   131   130    2
    99    83    84    1
   100    84    87    1
   101   115   116    1
   102   124   126    1
   103   124   121    1
   104   130   129    1
   105   119   116    1
   106    50    48   ar
   107    50    49   ar
   108   120   121    1
   109   120   117   am
   110    65    66   ar
   111    65    64    1
   112    48    46   ar
   113   116   117    1
   114    36    34    1
   115   121   122    1
   116    87    88    1
   117   129   128    1
   118   129   132    1
   119   117   118    2
   120    49    47   ar
   121    62    61    2
   122    88    89    1
   123    64    63    1
   124    24    23    2
   125   122   123    2
   126    21    22    1
   127    71    70    2
   128    46    45   ar
   129    46    44   ar
   130    34    35    1
   131    34    33    1
   132   132   133    1
   133    23    22    1
   134    23    29   am
   135    22    25    1
   136   133   134    1
   137    61    60    1
   138    61    68   am
   139    45    43   ar
   140    47    44   ar
   141    74    73    1
   142    70    69    1
   143    30    29    1
   144    30    33    1
   145    30    31    1
   146    63    60    1
   147    89    90    1
   148    69    68    1
   149    69    72    1
   150    44    42   ar
   151    60    59    1
   152    90    91    1
   153    31    32    2
   154    43    42   ar
   155    73    72    1
   156    73    75    1
   157    25    26    1
   158   134   135    1
   159   137   136    1
   160   135   136    2
   161   136   138    1
   162    42    41    1
   163    27    26    2
   164    57    56    1
   165    26    28   am
   166    37    38    1
   167    41    38    1
   168    54    53    2
   169    55    56    1
   170    55    52    1
   171    40    39    2
   172    56    58    1
   173    38    39    1
   174    53    52    1
   175    52    51    1
