@<TRIPOS>MOLECULE
tmp/3s9yA00.pdb
 183 171 0 0 0
SMALL
GASTEIGER

@<TRIPOS>ATOM
      1  N          7.8860   -2.2040   27.1080 N.3    31  ASP31      -0.1239
      2  CA         8.2060   -1.1750   26.1220 C.3    31  ASP31       0.1674
      3  C          8.8710   -1.8330   24.9100 C.2    31  ASP31       0.2266
      4  O         10.0790   -1.6910   24.7020 O.2    31  ASP31      -0.2867
      5  CB         9.2250   -0.1600   26.6890 C.3    31  ASP31       0.1410
      6  CG         8.6550    0.7290   27.7830 C.2    31  ASP31       0.3668
      7  OD1        9.4520    1.4580   28.3970 O.co2  31  ASP31      -0.2456
      8  OD2        7.4580    0.7260   28.0710 O.co2  31  ASP31      -0.2456
      9  N          3.9430   -1.6270   33.6490 N.3   110  LYS110     -0.1245
     10  CA         3.8300   -0.2710   33.1060 C.3   110  LYS110      0.1561
     11  C          4.1020   -0.3570   31.6050 C.2   110  LYS110      0.2260
     12  O          5.1950   -0.7830   31.1980 O.2   110  LYS110     -0.2867
     13  CB         4.8860    0.6460   33.7360 C.3   110  LYS110      0.0271
     14  CG         4.7200    2.1000   33.2610 C.3   110  LYS110      0.0035
     15  CD         5.5810    3.0740   34.0850 C.3   110  LYS110      0.0206
     16  CE         7.1110    3.0270   33.8420 C.3   110  LYS110      0.1093
     17  NZ         7.5140    3.4640   32.4640 N.3   110  LYS110     -0.1314
     18  N          4.5780    1.8570   28.2210 N.3   112  ASN112     -0.1240
     19  CA         4.7760    3.2300   27.7500 C.3   112  ASN112      0.1653
     20  C          4.1750    3.3390   26.3510 C.2   112  ASN112      0.2266
     21  O          4.5930    2.6240   25.4070 O.2   112  ASN112     -0.2867
     22  CB         6.2620    3.6230   27.7750 C.3   112  ASN112      0.1155
     23  CG         6.4480    5.0810   27.4610 C.2   112  ASN112      0.2627
     24  OD1        5.8150    5.6230   26.5320 O.2   112  ASN112     -0.2716
     25  ND2        7.2730    5.7480   28.2530 N.am  112  ASN112     -0.0877
     26  N          5.7870    3.3230   22.6040 N.3   115  PHE115     -0.1241
     27  CA         6.2580    2.1250   21.8860 C.3   115  PHE115      0.1605
     28  C          5.1320    1.4930   21.0920 C.2   115  PHE115      0.2264
     29  O          5.4050    0.6700   20.1820 O.2   115  PHE115     -0.2867
     30  CB         6.8850    1.1330   22.8610 C.3   115  PHE115      0.0534
     31  CG         8.1570    1.6510   23.4720 C.ar  115  PHE115     -0.0203
     32  CD1        9.3960    1.3200   22.9170 C.ar  115  PHE115     -0.0042
     33  CD2        8.1110    2.5270   24.5610 C.ar  115  PHE115     -0.0042
     34  CE1       10.5770    1.7980   23.4520 C.ar  115  PHE115     -0.0003
     35  CE2        9.3050    3.0320   25.1070 C.ar  115  PHE115     -0.0003
     36  CZ        10.5300    2.6900   24.5530 C.ar  115  PHE115     -0.0000
     37  N          1.8520    4.5870   30.7430 N.3   144  ASP144     -0.1239
     38  CA         2.7900    5.6810   30.8840 C.3   144  ASP144      0.1674
     39  C          2.7330    6.4870   29.6000 C.2   144  ASP144      0.2266
     40  O          3.2230    6.0410   28.5690 O.2   144  ASP144     -0.2867
     41  CB         4.1830    5.1140   31.1770 C.3   144  ASP144      0.1410
     42  CG         5.2430    6.1940   31.3560 C.2   144  ASP144      0.3668
     43  OD1        4.9070    7.4130   31.3390 O.co2 144  ASP144     -0.2456
     44  OD2        6.4280    5.7960   31.4950 O.co2 144  ASP144     -0.2456
     45  N          2.4390   10.2930   30.0620 N.3   146  LYS146     -0.1245
     46  CA         2.8390   11.6410   30.4870 C.3   146  LYS146      0.1561
     47  C          1.9410   12.6890   29.8450 C.2   146  LYS146      0.2260
     48  O          2.4110   13.7350   29.3150 O.2   146  LYS146     -0.2867
     49  CB         4.3240   11.9390   30.1760 C.3   146  LYS146      0.0271
     50  CG         5.2340   10.9390   30.8610 C.3   146  LYS146      0.0035
     51  CD         6.7050   11.1340   30.4860 C.3   146  LYS146      0.0206
     52  CE         7.6060   10.0750   31.1590 C.3   146  LYS146      0.1093
     53  NZ         7.2840    8.6710   30.7600 N.3   146  LYS146     -0.1314
     54  N          0.5110    8.0970   33.8910 N.3   171  THR171     -0.1218
     55  CA         1.4480    9.1520   34.2580 C.3   171  THR171      0.1862
     56  C          0.9750   10.4540   33.5890 C.2   171  THR171      0.2287
     57  O          0.3560   10.4190   32.5170 O.2   171  THR171     -0.2866
     58  CB         2.8930    8.8410   33.7940 C.3   171  THR171      0.1770
     59  OG1        2.8950    8.6050   32.3880 O.3   171  THR171     -0.2211
     60  CG2        3.4130    7.5660   34.4890 C.3   171  THR171      0.0375
     61  N          4.8500   13.6030   37.1170 N.3   199  LEU199     -0.1245
     62  CA         6.3260   13.7170   37.0540 C.3   199  LEU199      0.1561
     63  C          6.8380   14.6630   38.1260 C.2   199  LEU199      0.2260
     64  O          6.3600   15.8120   38.2390 O.2   199  LEU199     -0.2867
     65  CB         6.7590   14.2920   35.7020 C.3   199  LEU199      0.0270
     66  CG         6.2850   13.4790   34.4790 C.3   199  LEU199      0.0019
     67  CD1        6.8940   14.0870   33.2010 C.3   199  LEU199      0.0001
     68  CD2        6.5680   11.9840   34.5890 C.3   199  LEU199      0.0001
     69  N         10.6760   14.1270   39.5790 N.3   201  LYS201     -0.1231
     70  CA        12.1140   14.2170   39.2740 C.3   201  LYS201      0.1693
     71  C         12.3790   13.0930   38.2680 C.2   201  LYS201      0.2593
     72  O         12.0530   11.9350   38.5250 O.2   201  LYS201     -0.2718
     73  CB        12.9450   14.1410   40.5680 C.3   201  LYS201      0.0285
     74  CG        14.4290   14.0920   40.4030 C.3   201  LYS201      0.0035
     75  CD        15.0530   15.3870   39.8280 C.3   201  LYS201      0.0206
     76  CE        16.5750   15.2310   39.7720 C.3   201  LYS201      0.1093
     77  NZ        16.9040   14.2180   38.6920 N.3   201  LYS201     -0.1314
     78  N         12.9100   13.4410   37.1040 N.am  202  THR202     -0.1939
     79  CA        13.0550   12.4580   36.0270 C.3   202  THR202      0.2028
     80  C         14.5170   12.0210   35.7930 C.2   202  THR202      0.2643
     81  O         15.4530   12.6090   36.3370 O.2   202  THR202     -0.2714
     82  CB        12.3460   12.9540   34.7330 C.3   202  THR202      0.1808
     83  OG1       12.8840   14.2160   34.3440 O.3   202  THR202     -0.2208
     84  CG2       10.8300   13.1270   34.9950 C.3   202  THR202      0.0379
     85  N         14.7170   10.9670   35.0170 N.am  203  THR203     -0.1936
     86  CA        16.0370   10.3220   34.9430 C.3   203  THR203      0.2028
     87  C         16.9560   10.8810   33.8610 C.2   203  THR203      0.2642
     88  O         18.1370   10.4900   33.7550 O.2   203  THR203     -0.2714
     89  CB        15.9110    8.8070   34.7190 C.3   203  THR203      0.1808
     90  OG1       15.3010    8.5360   33.4470 O.3   203  THR203     -0.2208
     91  CG2       15.1100    8.1310   35.8560 C.3   203  THR203      0.0379
     92  N         16.4200   11.7230   32.9940 N.am  204  ASN204     -0.1971
     93  CA        17.2430   12.2420   31.9070 C.3   204  ASN204      0.1688
     94  C         18.3470   13.1160   32.4910 C.2   204  ASN204      0.2292
     95  O         18.1790   13.6980   33.5480 O.2   204  ASN204     -0.2864
     96  CB        16.3900   13.0320   30.9450 C.3   204  ASN204      0.1181
     97  CG        15.4940   13.9910   31.6520 C.2   204  ASN204      0.2629
     98  OD1       14.5330   13.6020   32.3570 O.2   204  ASN204     -0.2716
     99  ND2       15.7870   15.2730   31.4740 N.am  204  ASN204     -0.0877
    100  N          6.3220   10.3970   40.1130 N.3   248  VAL248     -0.1245
    101  CA         7.4450    9.7300   39.4410 C.3   248  VAL248      0.1561
    102  C          8.7350   10.3790   39.9590 C.2   248  VAL248      0.2260
    103  O          8.9450   11.5860   39.8000 O.2   248  VAL248     -0.2867
    104  CB         7.3360    9.8980   37.9040 C.3   248  VAL248      0.0252
    105  CG1        8.5050    9.1670   37.2340 C.3   248  VAL248      0.0019
    106  CG2        6.0320    9.2950   37.3970 C.3   248  VAL248      0.0019
    107  N          6.6550    6.0850   41.9990 N.3   270  LEU270     -0.1245
    108  CA         7.0050    5.1770   40.9050 C.3   270  LEU270      0.1561
    109  C          8.4110    5.5620   40.4440 C.2   270  LEU270      0.2260
    110  O          8.6450    6.7270   40.0980 O.2   270  LEU270     -0.2867
    111  CB         6.0350    5.3730   39.7260 C.3   270  LEU270      0.0270
    112  CG         6.4050    4.7810   38.3540 C.3   270  LEU270      0.0019
    113  CD1        6.3870    3.2550   38.4360 C.3   270  LEU270      0.0001
    114  CD2        5.2750    5.2390   37.3690 C.3   270  LEU270      0.0001
    115  N         11.4270    4.7250   37.8350 N.3   272  PRO272     -0.2102
    116  CA        12.1340    4.1210   36.7210 C.3   272  PRO272      0.1504
    117  C         13.6180    4.5320   36.7340 C.2   272  PRO272      0.2576
    118  O         14.0080    5.4860   37.4350 O.2   272  PRO272     -0.2718
    119  CB        11.4350    4.7480   35.4950 C.3   272  PRO272      0.0282
    120  CG        11.0710    6.1570   36.0080 C.3   272  PRO272      0.0208
    121  CD        10.8490    6.0430   37.4940 C.3   272  PRO272      0.0893
    122  N         14.4380    3.7820   35.9940 N.am  273  GLY273     -0.1943
    123  CA        15.8400    4.1340   35.8200 C.3   273  GLY273      0.2014
    124  C         16.8740    3.0880   36.2140 C.2   273  GLY273      0.2638
    125  O         18.0520    3.3240   36.0740 O.2   273  GLY273     -0.2714
    126  N         16.4230    1.9600   36.7270 N.am  274  ILE274     -0.1977
    127  CA        17.3420    0.8730   37.0710 C.3   274  ILE274      0.1596
    128  C         17.3550   -0.1310   35.9240 C.2   274  ILE274      0.2287
    129  O         16.2970   -0.4720   35.3680 O.2   274  ILE274     -0.2864
    130  CB        16.9280    0.2270   38.3790 C.3   274  ILE274      0.0276
    131  CG1       17.2350    1.2050   39.5170 C.3   274  ILE274      0.0022
    132  CG2       17.7080   -1.1100   38.6730 C.3   274  ILE274      0.0022
    133  CD1       16.4270    0.8880   40.7590 C.3   274  ILE274      0.0001
    134  N         18.7270   -0.6390   32.4190 N.3   276  ALA276     -0.1231
    135  CA        19.2750    0.0050   31.2340 C.3   276  ALA276      0.1694
    136  C         19.8860    1.3790   31.5160 C.2   276  ALA276      0.2591
    137  O         20.9050    1.7380   30.9310 O.2   276  ALA276     -0.2718
    138  CB        18.1910    0.1280   30.1860 C.3   276  ALA276      0.0304
    139  N         19.2800    2.1520   32.4120 N.am  277  GLN277     -0.1979
    140  CA        19.7940    3.4800   32.7730 C.3   277  GLN277      0.1601
    141  C         20.6910    3.3720   34.0030 C.2   277  GLN277      0.2287
    142  O         21.0540    2.2690   34.3990 O.2   277  GLN277     -0.2864
    143  CB        18.6330    4.4530   32.9920 C.3   277  GLN277      0.0394
    144  CG        17.7920    4.6160   31.7100 C.3   277  GLN277      0.0908
    145  CD        16.6170    5.5290   31.9760 C.2   277  GLN277      0.2608
    146  OE1       16.8050    6.7280   32.1950 O.2   277  GLN277     -0.2717
    147  NE2       15.4040    4.9710   31.9970 N.am  277  GLN277     -0.0878
    148  N         10.4440    0.3000   38.7230 N.3   299  ASN299     -0.1225
    149  CA        10.2070   -0.1070   37.3440 C.3   299  ASN299      0.1785
    150  C         11.4510   -0.6500   36.6610 C.2   299  ASN299      0.2597
    151  O         12.4620    0.0140   36.6640 O.2   299  ASN299     -0.2718
    152  CB         9.6980    1.0710   36.5210 C.3   299  ASN299      0.1169
    153  CG         9.3820    0.6610   35.0890 C.2   299  ASN299      0.2627
    154  OD1        8.3810    0.0050   34.8320 O.2   299  ASN299     -0.2716
    155  ND2       10.2330    1.0590   34.1450 N.am  299  ASN299     -0.0877
    156  N         11.3450   -1.8210   36.0440 N.am  300  ILE300     -0.1966
    157  CA        12.4350   -2.3740   35.2390 C.3   300  ILE300      0.1727
    158  C         11.8650   -2.8100   33.8920 C.2   300  ILE300      0.2617
    159  O         11.0340   -3.7150   33.8370 O.2   300  ILE300     -0.2715
    160  CB        13.0620   -3.6330   35.9150 C.3   300  ILE300      0.0290
    161  CG1       13.4520   -3.3870   37.3910 C.3   300  ILE300      0.0022
    162  CG2       14.2120   -4.1890   35.0370 C.3   300  ILE300      0.0023
    163  CD1       14.5750   -2.3960   37.6410 C.3   300  ILE300      0.0001
    164  N         12.3110   -2.1570   32.8150 N.am  301  GLY301     -0.1940
    165  CA        11.8410   -2.4580   31.4760 C.3   301  GLY301      0.2014
    166  C         12.8820   -3.2560   30.7030 C.2   301  GLY301      0.2639
    167  O         12.8490   -4.4820   30.7150 O.2   301  GLY301     -0.2714
    168  N         13.7930   -2.5490   30.0520 N.am  302  ARG302     -0.1963
    169  CA        14.7350   -3.1710   29.1330 C.3   302  ARG302      0.1729
    170  C         15.5910   -4.2620   29.7390 C.2   302  ARG302      0.2616
    171  O         15.9470   -5.2130   29.0380 O.2   302  ARG302     -0.2715
    172  CB        15.6140   -2.1080   28.4860 C.3   302  ARG302      0.0348
    173  CG        14.8960   -1.4080   27.3220 C.3   302  ARG302      0.0492
    174  CD        15.6990   -0.1910   26.8840 C.3   302  ARG302      0.2205
    175  NE        15.6690    0.8680   27.8820 N.pl3 302  ARG302     -0.0865
    176  CZ        16.3540    2.0080   27.7860 C.cat 302  ARG302      0.5346
    177  NH1       17.1510    2.2540   26.7380 N.pl3 302  ARG302      0.1354
    178  NH2       16.2540    2.9040   28.7570 N.pl3 302  ARG302      0.1354
    179  N         15.9430   -4.1110   31.0100 N.am  303  ALA303     -0.1977
    180  CA        16.8130   -5.1120   31.6330 C.3   303  ALA303      0.1597
    181  C         16.0820   -6.4550   31.7580 C.2   303  ALA303      0.2287
    182  O         16.7220   -7.4970   31.9290 O.2   303  ALA303     -0.2864
    183  CB        17.3330   -4.6350   32.9590 C.3   303  ALA303      0.0319
@<TRIPOS>BOND
     1    29    28    2
     2    28    27    1
     3    27    26    1
     4    27    30    1
     5    30    31    1
     6    32    34   ar
     7    32    31   ar
     8    34    36   ar
     9    31    33   ar
    10    36    35   ar
    11    33    35   ar
    12     4     3    2
    13     3     2    1
    14    21    20    2
    15     2     5    1
    16     2     1    1
    17    20    19    1
    18    24    23    2
    19     5     6    1
    20   177   176    1
    21   174   173    1
    22   174   175    1
    23   173   172    1
    24    23    22    1
    25    23    25   am
    26    19    22    1
    27    19    18    1
    28     6     8   ar
    29     6     7   ar
    30   176   175    2
    31   176   178    1
    32   172   169    1
    33    40    39    2
    34   171   170    2
    35   169   170    1
    36   169   168    1
    37    48    47    2
    38    39    38    1
    39   170   179   am
    40    47    46    1
    41   168   166   am
    42    45    46    1
    43    49    46    1
    44    49    50    1
    45   138   135    1
    46    51    50    1
    47    51    52    1
    48   166   167    2
    49   166   165    1
    50    37    38    1
    51    53    52    1
    52    38    41    1
    53   137   136    2
    54    96    97    1
    55    96    93    1
    56   179   180    1
    57    41    42    1
    58    12    11    2
    59   135   136    1
    60   135   134    1
    61    43    42   ar
    62    42    44   ar
    63    99    97   am
    64   165   164    1
    65   136   139   am
    66    11    10    1
    67   180   181    1
    68   180   183    1
    69    97    98    2
    70   144   145    1
    71   144   143    1
    72   181   182    2
    73    93    94    1
    74    93    92    1
    75   145   147   am
    76   145   146    2
    77    59    58    1
    78   139   140    1
    79    17    16    1
    80    94    95    2
    81    57    56    2
    82   140   143    1
    83   140   141    1
    84   164   158   am
    85    92    87   am
    86    10     9    1
    87    10    13    1
    88    67    66    1
    89    14    13    1
    90    14    15    1
    91    90    89    1
    92    56    55    1
    93    88    87    2
    94    58    55    1
    95    58    60    1
    96   159   158    2
    97    16    15    1
    98    87    86    1
    99    54    55    1
   100   158   157    1
   101   141   142    2
   102   155   153   am
   103    83    82    1
   104    66    68    1
   105    66    65    1
   106    89    86    1
   107    89    91    1
   108    82    84    1
   109    82    79    1
   110   154   153    2
   111    86    85    1
   112    85    80   am
   113   162   160    1
   114   153   152    1
   115   157   160    1
   116   157   156    1
   117   129   128    2
   118   119   120    1
   119   119   116    1
   120    65    62    1
   121    80    79    1
   122    80    81    2
   123   123   122    1
   124   123   124    1
   125   160   161    1
   126   128   127    1
   127   122   117   am
   128   120   121    1
   129    79    78    1
   130   156   150   am
   131   125   124    2
   132   124   126   am
   133   152   149    1
   134   150   151    2
   135   150   149    1
   136   116   117    1
   137   116   115    1
   138   126   127    1
   139   117   118    2
   140    62    61    1
   141    62    63    1
   142   127   130    1
   143    78    71   am
   144   105   104    1
   145   149   148    1
   146   114   112    1
   147   161   163    1
   148   106   104    1
   149   121   115    1
   150   104   101    1
   151    63    64    2
   152    71    72    2
   153    71    70    1
   154   112   113    1
   155   112   111    1
   156   130   132    1
   157   130   131    1
   158    77    76    1
   159    70    69    1
   160    70    73    1
   161   101   102    1
   162   101   100    1
   163   131   133    1
   164   111   108    1
   165    76    75    1
   166   103   102    2
   167    75    74    1
   168   110   109    2
   169    74    73    1
   170   109   108    1
   171   108   107    1
