@<TRIPOS>MOLECULE
tmp/3sa0A00.pdb
 112 103 0 0 0
SMALL
GASTEIGER

@<TRIPOS>ATOM
      1  N        -20.0460   19.9830   38.6670 N.3    28  ILE28      -0.1231
      2  CA       -19.7500   19.5250   40.0270 C.3    28  ILE28       0.1692
      3  C        -18.5720   20.2770   40.6410 C.2    28  ILE28       0.2593
      4  O        -18.6900   20.8680   41.7160 O.2    28  ILE28      -0.2718
      5  CB       -19.3840   18.0300   40.0830 C.3    28  ILE28       0.0266
      6  CG1      -20.5960   17.1540   39.7790 C.3    28  ILE28       0.0019
      7  CG2      -18.8240   17.6740   41.4640 C.3    28  ILE28       0.0020
      8  CD1      -20.2580   15.6690   39.7280 C.3    28  ILE28       0.0001
      9  N        -17.4290   20.2280   39.9650 N.am   29  GLY29      -0.1942
     10  CA       -16.2060   20.8140   40.4860 C.3    29  GLY29       0.2014
     11  C        -15.1030   20.8320   39.4460 C.2    29  GLY29       0.2639
     12  O        -15.3490   20.5550   38.2720 O.2    29  GLY29      -0.2714
     13  N        -13.8890   21.1580   39.8790 N.am   30  GLU30      -0.1963
     14  CA       -12.7430   21.2270   38.9790 C.3    30  GLU30       0.1733
     15  C        -11.7890   20.0910   39.2940 C.2    30  GLU30       0.2616
     16  O        -11.3930   19.9100   40.4450 O.2    30  GLU30      -0.2715
     17  CB       -12.0090   22.5590   39.1360 C.3    30  GLU30       0.0429
     18  CG       -12.8840   23.7870   38.9600 C.3    30  GLU30       0.1163
     19  CD       -13.3530   23.9590   37.5390 C.2    30  GLU30       0.3649
     20  OE1      -12.7610   23.3240   36.6410 O.co2  30  GLU30      -0.2457
     21  OE2      -14.3130   24.7290   37.3220 O.co2  30  GLU30      -0.2457
     22  N        -11.4260   19.3260   38.2680 N.am   31  GLY31      -0.1955
     23  CA       -10.4700   18.2410   38.4190 C.3    31  GLY31       0.1869
     24  C         -9.0660   18.7980   38.5110 C.2    31  GLY31       0.2309
     25  O         -8.8820   19.9760   38.8080 O.2    31  GLY31      -0.2863
     26  N        -15.5420   18.7870   35.9410 N.3    36  VAL36      -0.1245
     27  CA       -16.2710   17.5650   36.2390 C.3    36  VAL36       0.1561
     28  C        -17.7630   17.9070   36.3020 C.2    36  VAL36       0.2260
     29  O        -18.1610   18.9010   36.9100 O.2    36  VAL36      -0.2867
     30  CB       -15.8040   16.9480   37.5770 C.3    36  VAL36       0.0252
     31  CG1      -16.4720   15.5970   37.8130 C.3    36  VAL36       0.0019
     32  CG2      -14.2650   16.7940   37.6080 C.3    36  VAL36       0.0019
     33  N        -20.6700   10.4410   36.7650 N.3    49  ALA49      -0.1245
     34  CA       -19.7620   11.5800   36.7980 C.3    49  ALA49       0.1562
     35  C        -18.9310   11.5300   35.5300 C.2    49  ALA49       0.2260
     36  O        -18.5740   10.4440   35.0560 O.2    49  ALA49      -0.2867
     37  CB       -18.8270   11.4820   37.9990 C.3    49  ALA49       0.0290
     38  N        -15.4130   13.4170   33.8100 N.3    51  LYS51      -0.1245
     39  CA       -14.3150   14.3470   33.9560 C.3    51  LYS51       0.1561
     40  C        -13.8020   14.6750   32.5560 C.2    51  LYS51       0.2260
     41  O        -13.4970   13.7770   31.8030 O.2    51  LYS51      -0.2867
     42  CB       -13.2000   13.7080   34.7760 C.3    51  LYS51       0.0271
     43  CG       -13.6790   13.0010   36.0540 C.3    51  LYS51       0.0035
     44  CD       -12.5370   12.1660   36.6890 C.3    51  LYS51       0.0206
     45  CE       -11.2010   12.9150   36.6780 C.3    51  LYS51       0.1093
     46  NZ       -10.0280   11.9880   36.6550 N.3    51  LYS51      -0.1314
     47  N        -12.1880    3.4530   42.3750 N.3    81  ILE81      -0.1245
     48  CA       -13.0760    3.9910   41.3330 C.3    81  ILE81       0.1561
     49  C        -12.7150    3.3570   39.9920 C.2    81  ILE81       0.2260
     50  O        -11.5310    3.0830   39.6780 O.2    81  ILE81      -0.2867
     51  CB       -12.9340    5.5180   41.2800 C.3    81  ILE81       0.0252
     52  CG1      -14.0780    6.1210   40.4660 C.3    81  ILE81       0.0019
     53  CG2      -11.5780    5.8660   40.6890 C.3    81  ILE81       0.0019
     54  CD1      -15.4540    5.9340   41.1330 C.3    81  ILE81       0.0001
     55  N        -17.3140    7.9270   35.1370 N.3   102  GLN102     -0.1231
     56  CA       -17.1820    7.1270   36.3500 C.3   102  GLN102      0.1698
     57  C        -18.5030    7.0940   37.1200 C.2   102  GLN102      0.2592
     58  O        -19.4270    7.8770   36.8430 O.2   102  GLN102     -0.2718
     59  CB       -16.0850    7.7220   37.2300 C.3   102  GLN102      0.0381
     60  CG       -14.7190    7.7750   36.4860 C.3   102  GLN102      0.0905
     61  CD       -13.5960    8.2650   37.3380 C.2   102  GLN102      0.2608
     62  OE1      -13.7150    9.2720   38.0200 O.2   102  GLN102     -0.2717
     63  NE2      -12.4920    7.5280   37.3320 N.am  102  GLN102     -0.0878
     64  N        -18.6110    6.1720   38.0700 N.am  103  ASP103     -0.1960
     65  CA       -19.7740    6.1420   38.9150 C.3   103  ASP103      0.1840
     66  C        -19.9090    7.4910   39.6100 C.2   103  ASP103      0.2622
     67  O        -18.9170    8.1100   40.0000 O.2   103  ASP103     -0.2715
     68  CB       -19.6300    5.0800   40.0040 C.3   103  ASP103      0.1450
     69  CG       -19.6970    3.6780   39.4740 C.2   103  ASP103      0.3671
     70  OD1      -20.2110    3.4920   38.3450 O.co2 103  ASP103     -0.2456
     71  OD2      -19.2650    2.7610   40.2160 O.co2 103  ASP103     -0.2456
     72  N        -21.1420    7.9170   39.8010 N.am  104  LEU104     -0.1963
     73  CA       -21.4230    9.1770   40.4490 C.3   104  LEU104      0.1728
     74  C        -21.3170    8.9940   41.9600 C.2   104  LEU104      0.2616
     75  O        -21.9790    8.1260   42.5250 O.2   104  LEU104     -0.2715
     76  CB       -22.8390    9.6480   40.0960 C.3   104  LEU104      0.0311
     77  CG       -23.2190   10.9800   40.7350 C.3   104  LEU104      0.0022
     78  CD1      -22.2480   12.0760   40.2970 C.3   104  LEU104      0.0001
     79  CD2      -24.6410   11.3560   40.3570 C.3   104  LEU104      0.0001
     80  N        -20.4970    9.8210   42.6020 N.am  105  MET105     -0.1977
     81  CA       -20.3320    9.7740   44.0360 C.3   105  MET105      0.1605
     82  C        -20.8700   11.0730   44.7130 C.2   105  MET105      0.2287
     83  O        -20.7930   12.1620   44.1550 O.2   105  MET105     -0.2864
     84  CB       -18.8570    9.4130   44.3820 C.3   105  MET105      0.0413
     85  CG       -18.3490    8.1140   43.6910 C.3   105  MET105      0.0598
     86  SD       -19.0760    6.5540   44.3080 S.3   105  MET105     -0.1393
     87  CE       -18.0750    6.2700   45.7250 C.3   105  MET105      0.0692
     88  N        -16.6830   13.4990   48.8960 N.3   108  ASP108     -0.1239
     89  CA       -15.3770   12.8880   49.1830 C.3   108  ASP108      0.1674
     90  C        -15.0990   13.1390   50.6570 C.2   108  ASP108      0.2266
     91  O        -15.8170   13.9250   51.3080 O.2   108  ASP108     -0.2867
     92  CB       -14.2750   13.4280   48.2760 C.3   108  ASP108      0.1410
     93  CG       -14.0720   14.9020   48.4220 C.2   108  ASP108      0.3668
     94  OD1      -13.7020   15.3320   49.5130 O.co2 108  ASP108     -0.2456
     95  OD2      -14.2330   15.6360   47.4270 O.co2 108  ASP108     -0.2456
     96  N        -14.4650   16.8370   51.8670 N.3   111  LYS111     -0.1245
     97  CA       -15.6260   17.6750   52.0300 C.3   111  LYS111      0.1561
     98  C        -16.4430   17.2490   53.2320 C.2   111  LYS111      0.2260
     99  O        -17.0330   18.0920   53.9190 O.2   111  LYS111     -0.2867
    100  CB       -16.5090   17.6450   50.7720 C.3   111  LYS111      0.0271
    101  CG       -15.8280   18.2390   49.5510 C.3   111  LYS111      0.0035
    102  CD       -16.7350   18.2930   48.3030 C.3   111  LYS111      0.0206
    103  CE       -17.0220   16.8860   47.7220 C.3   111  LYS111      0.1093
    104  NZ       -16.7600   16.7810   46.2370 N.3   111  LYS111     -0.1314
    105  N        -13.5830    8.9160   47.5950 N.3   153  LEU153     -0.1245
    106  CA       -14.9400    9.3020   47.2470 C.3   153  LEU153      0.1561
    107  C        -15.9100    8.4530   48.0110 C.2   153  LEU153      0.2260
    108  O        -15.6680    7.2770   48.3200 O.2   153  LEU153     -0.2867
    109  CB       -15.1720    9.0620   45.7750 C.3   153  LEU153      0.0270
    110  CG       -14.1800    9.7260   44.8660 C.3   153  LEU153      0.0019
    111  CD1      -14.4110    9.2560   43.4360 C.3   153  LEU153      0.0001
    112  CD2      -14.3680   11.2100   44.9710 C.3   153  LEU153      0.0001
@<TRIPOS>BOND
     1    41    40    2
     2    40    39    1
     3    38    39    1
     4    39    42    1
     5    42    43    1
     6    36    35    2
     7    55    56    1
     8    35    34    1
     9    26    27    1
    10    43    44    1
    11    27    28    1
    12    27    30    1
    13    28    29    2
    14    56    57    1
    15    56    59    1
    16    60    59    1
    17    60    61    1
    18    20    19   ar
    19    46    45    1
    20    45    44    1
    21    33    34    1
    22    34    37    1
    23    58    57    2
    24    57    64   am
    25    21    19   ar
    26    63    61   am
    27    61    62    2
    28    19    18    1
    29    30    32    1
    30    30    31    1
    31    64    65    1
    32    22    23    1
    33    22    15   am
    34    12    11    2
    35    70    69   ar
    36    23    24    1
    37    24    25    2
    38     1     2    1
    39    65    66    1
    40    65    68    1
    41    18    17    1
    42    14    17    1
    43    14    15    1
    44    14    13    1
    45    15    16    2
    46    11    13   am
    47    11    10    1
    48    69    68    1
    49    69    71   ar
    50    66    72   am
    51    66    67    2
    52    50    49    2
    53     8     6    1
    54     6     5    1
    55    72    73    1
    56     9    10    1
    57     9     3   am
    58    49    48    1
    59     2     5    1
    60     2     3    1
    61     5     7    1
    62    76    73    1
    63    76    77    1
    64    78    77    1
    65    79    77    1
    66    73    74    1
    67    52    54    1
    68    52    51    1
    69     3     4    2
    70    53    51    1
    71    51    48    1
    72    48    47    1
    73    74    75    2
    74    74    80   am
    75    80    81    1
    76   111   110    1
    77    85    86    1
    78    85    84    1
    79    81    84    1
    80    81    82    1
    81    83    82    2
    82    86    87    1
    83   110   112    1
    84   110   109    1
    85   109   106    1
    86   104   103    1
    87   106   105    1
    88   106   107    1
    89    95    93   ar
    90   103   102    1
    91   107   108    2
    92    92    93    1
    93    92    89    1
    94   102   101    1
    95    93    94   ar
    96    88    89    1
    97    89    90    1
    98   101   100    1
    99    90    91    2
   100   100    97    1
   101    96    97    1
   102    97    98    1
   103    98    99    2
