@<TRIPOS>MOLECULE
tmp/3sa2A01.pdb
 196 187 0 0 0
SMALL
GASTEIGER

@<TRIPOS>ATOM
      1  N         43.0680   21.2970   -4.2710 N.3     9  MET9       -0.1230
      2  CA        42.9990   20.8560   -2.8890 C.3     9  MET9        0.1702
      3  C         42.1880   21.8970   -2.1380 C.2     9  MET9        0.2592
      4  O         42.5800   23.0670   -2.0790 O.2     9  MET9       -0.2718
      5  CB        44.4020   20.6950   -2.2990 C.3     9  MET9        0.0401
      6  CG        44.4480   20.4690   -0.7820 C.3     9  MET9        0.0596
      7  SD        43.6820   18.9160   -0.1930 S.3     9  MET9       -0.1393
      8  CE        44.7210   17.6850   -0.9950 C.3     9  MET9        0.0692
      9  N         41.0540   21.4730   -1.5790 N.am   10  VAL10      -0.1966
     10  CA        40.1000   22.3900   -0.9460 C.3    10  VAL10       0.1727
     11  C         39.2560   21.7000    0.1230 C.2    10  VAL10       0.2616
     12  O         38.9220   20.5210    0.0000 O.2    10  VAL10      -0.2715
     13  CB        39.1820   23.0940   -2.0020 C.3    10  VAL10       0.0290
     14  CG1       38.2320   22.1030   -2.6780 C.3    10  VAL10       0.0023
     15  CG2       38.3990   24.2500   -1.3750 C.3    10  VAL10       0.0023
     16  N         38.9370   22.4450    1.1810 N.am   11  ALA11      -0.1977
     17  CA        37.9450   22.0230    2.1710 C.3    11  ALA11       0.1597
     18  C         36.8050   23.0340    2.1520 C.2    11  ALA11       0.2287
     19  O         37.0480   24.2340    2.2270 O.2    11  ALA11      -0.2864
     20  CB        38.5760   21.9570    3.5480 C.3    11  ALA11       0.0319
     21  N         40.2820   34.3110    6.6750 N.3    23  ASN23      -0.1225
     22  CA        40.7880   33.1550    7.4060 C.3    23  ASN23       0.1785
     23  C         39.8690   31.9450    7.1960 C.2    23  ASN23       0.2597
     24  O         38.8750   32.0340    6.4690 O.2    23  ASN23      -0.2718
     25  CB        40.9210   33.4960    8.8960 C.3    23  ASN23       0.1169
     26  CG        42.0750   32.7510    9.5790 C.2    23  ASN23       0.2627
     27  OD1       42.4870   31.6650    9.1470 O.2    23  ASN23      -0.2716
     28  ND2       42.5970   33.3360   10.6610 N.am   23  ASN23      -0.0877
     29  N         40.2100   30.8240    7.8290 N.am   24  LEU24      -0.1980
     30  CA        39.3960   29.6090    7.7960 C.3    24  LEU24       0.1596
     31  C         38.3050   29.6730    8.8590 C.2    24  LEU24       0.2287
     32  O         38.5830   30.0620    9.9850 O.2    24  LEU24      -0.2864
     33  CB        40.2790   28.3840    8.0440 C.3    24  LEU24       0.0297
     34  CG        41.3690   28.1180    7.0030 C.3    24  LEU24       0.0022
     35  CD1       42.2700   26.9920    7.4610 C.3    24  LEU24       0.0001
     36  CD2       40.7380   27.8010    5.6320 C.3    24  LEU24       0.0001
     37  N         36.7680   27.2250   10.3390 N.3    26  TRP26      -0.1241
     38  CA        36.8130   26.0840   11.2580 C.3    26  TRP26       0.1605
     39  C         38.2530   25.7130   11.5850 C.2    26  TRP26       0.2264
     40  O         39.1940   26.1790   10.9210 O.2    26  TRP26      -0.2867
     41  CB        36.1350   24.8610   10.6070 C.3    26  TRP26       0.0550
     42  CG        36.7230   24.5580    9.2410 C.ar   26  TRP26       0.0003
     43  CD1       37.8760   23.8860    8.9800 C.ar   26  TRP26       0.0946
     44  CD2       36.1950   24.9610    7.9660 C.ar   26  TRP26       0.0152
     45  NE1       38.0990   23.8340    7.6170 N.ar   26  TRP26      -0.2442
     46  CE2       37.0820   24.4910    6.9770 C.ar   26  TRP26       0.0810
     47  CE3       35.0530   25.6660    7.5650 C.ar   26  TRP26       0.0012
     48  CZ2       36.8590   24.6970    5.6050 C.ar   26  TRP26       0.0191
     49  CZ3       34.8350   25.8790    6.1980 C.ar   26  TRP26       0.0001
     50  CH2       35.7350   25.3930    5.2400 C.ar   26  TRP26       0.0015
     51  N         40.2830   22.1000   12.0070 N.3    28  LEU28      -0.1245
     52  CA        40.3150   20.6460   11.9550 C.3    28  LEU28       0.1561
     53  C         41.7540   20.1840   11.7560 C.2    28  LEU28       0.2260
     54  O         42.2120   20.0720   10.6230 O.2    28  LEU28      -0.2867
     55  CB        39.3920   20.0950   10.8480 C.3    28  LEU28       0.0270
     56  CG        37.8720   20.3030   10.9490 C.3    28  LEU28       0.0019
     57  CD1       37.1880   20.0770    9.6070 C.3    28  LEU28       0.0001
     58  CD2       37.2420   19.3960   12.0200 C.3    28  LEU28       0.0001
     59  N         42.1780   17.1160    9.4540 N.3    31  GLU31      -0.1231
     60  CA        41.9970   17.4640    8.0530 C.3    31  GLU31       0.1699
     61  C         43.2550   18.1130    7.4840 C.2    31  GLU31       0.2592
     62  O         43.6270   17.8560    6.3380 O.2    31  GLU31      -0.2718
     63  CB        40.7960   18.3950    7.9000 C.3    31  GLU31       0.0402
     64  CG        40.0990   18.3290    6.5490 C.3    31  GLU31       0.1161
     65  CD        40.7890   19.1420    5.4620 C.2    31  GLU31       0.3649
     66  OE1       41.3460   20.2240    5.7730 O.co2  31  GLU31      -0.2457
     67  OE2       40.7590   18.7050    4.2900 O.co2  31  GLU31      -0.2457
     68  N         43.9050   18.9520    8.2900 N.am   32  LEU32      -0.1980
     69  CA        45.1980   19.5450    7.9380 C.3    32  LEU32       0.1596
     70  C         46.2770   18.4940    7.7110 C.2    32  LEU32       0.2287
     71  O         47.0890   18.6260    6.7930 O.2    32  LEU32      -0.2864
     72  CB        45.6460   20.5040    9.0410 C.3    32  LEU32       0.0297
     73  CG        46.8830   21.3720    8.8140 C.3    32  LEU32       0.0022
     74  CD1       46.5720   22.4420    7.7890 C.3    32  LEU32       0.0001
     75  CD2       47.3730   21.9950   10.1370 C.3    32  LEU32       0.0001
     76  N         45.8100   15.3640    6.7370 N.3    34  TYR34      -0.1227
     77  CA        45.4830   14.7830    5.4410 C.3    34  TYR34       0.1736
     78  C         46.0030   15.6660    4.3040 C.2    34  TYR34       0.2595
     79  O         46.5520   15.1640    3.3260 O.2    34  TYR34      -0.2718
     80  CB        43.9750   14.5940    5.3250 C.3    34  TYR34       0.0548
     81  CG        43.4820   14.2360    3.9370 C.ar   34  TYR34      -0.0200
     82  CD1       43.3700   12.9000    3.5370 C.ar   34  TYR34      -0.0009
     83  CD2       43.1100   15.2320    3.0260 C.ar   34  TYR34      -0.0009
     84  CE1       42.9140   12.5690    2.2600 C.ar   34  TYR34       0.0417
     85  CE2       42.6470   14.9080    1.7540 C.ar   34  TYR34       0.0417
     86  CZ        42.5500   13.5800    1.3800 C.ar   34  TYR34       0.1957
     87  OH        42.0840   13.2630    0.1310 O.3    34  TYR34      -0.2866
     88  N         45.8200   16.9770    4.4430 N.am   35  VAL35      -0.1966
     89  CA        46.3640   17.9490    3.4910 C.3    35  VAL35       0.1727
     90  C         47.8850   17.8400    3.3480 C.2    35  VAL35       0.2616
     91  O         48.3910   17.8160    2.2290 O.2    35  VAL35      -0.2715
     92  CB        45.9440   19.3900    3.8580 C.3    35  VAL35       0.0290
     93  CG1       46.7380   20.4210    3.0600 C.3    35  VAL35       0.0023
     94  CG2       44.4510   19.5610    3.6380 C.3    35  VAL35       0.0023
     95  N         48.5970   17.7640    4.4740 N.am   36  LYS36      -0.1977
     96  CA        50.0670   17.6540    4.4670 C.3    36  LYS36       0.1596
     97  C         50.4970   16.3480    3.8140 C.2    36  LYS36       0.2287
     98  O         51.3390   16.3420    2.9140 O.2    36  LYS36      -0.2864
     99  CB        50.6530   17.7780    5.8840 C.3    36  LYS36       0.0298
    100  CG        50.3520   19.1170    6.5610 C.3    36  LYS36       0.0038
    101  CD        51.1090   19.3010    7.8770 C.3    36  LYS36       0.0206
    102  CE        50.6800   20.5930    8.5750 C.3    36  LYS36       0.1093
    103  NZ        51.5300   20.9210    9.7700 N.3    36  LYS36      -0.1314
    104  N         45.6790   34.1620    0.1780 N.3    50  ASN50      -0.1240
    105  CA        45.8600   32.8670    0.8290 C.3    50  ASN50       0.1653
    106  C         47.2580   32.7520    1.4280 C.2    50  ASN50       0.2266
    107  O         47.3960   32.4720    2.6200 O.2    50  ASN50      -0.2867
    108  CB        45.5950   31.7050   -0.1390 C.3    50  ASN50       0.1155
    109  CG        45.6840   30.3330    0.5380 C.2    50  ASN50       0.2627
    110  OD1       45.5460   30.2170    1.7550 O.2    50  ASN50      -0.2716
    111  ND2       45.9080   29.2920   -0.2570 N.am   50  ASN50      -0.0877
    112  N         48.0410   34.9690    4.6150 N.3    53  ALA53      -0.1231
    113  CA        47.3650   34.4630    5.8050 C.3    53  ALA53       0.1694
    114  C         48.1270   33.2660    6.3790 C.2    53  ALA53       0.2591
    115  O         48.2770   33.1400    7.5950 O.2    53  ALA53      -0.2718
    116  CB        45.9250   34.0910    5.4880 C.3    53  ALA53       0.0304
    117  N         48.6200   32.3940    5.5030 N.am   54  ILE54      -0.1980
    118  CA        49.4750   31.2910    5.9280 C.3    54  ILE54       0.1595
    119  C         50.7110   31.8710    6.6290 C.2    54  ILE54       0.2287
    120  O         50.9980   31.5240    7.7810 O.2    54  ILE54      -0.2864
    121  CB        49.8550   30.3590    4.7530 C.3    54  ILE54       0.0276
    122  CG1       48.5940   29.6900    4.1920 C.3    54  ILE54       0.0022
    123  CG2       50.8760   29.3060    5.2130 C.3    54  ILE54       0.0022
    124  CD1       48.7840   28.9590    2.8930 C.3    54  ILE54       0.0001
    125  N         54.0790   31.9720    5.9420 N.3    56  ARG56      -0.1245
    126  CA        55.4030   31.3480    5.8800 C.3    56  ARG56       0.1563
    127  C         55.4440   30.2980    4.7630 C.2    56  ARG56       0.2260
    128  O         54.4110   29.7190    4.4260 O.2    56  ARG56      -0.2867
    129  CB        55.7570   30.6990    7.2350 C.3    56  ARG56       0.0307
    130  CG        54.9490   29.4260    7.5460 C.3    56  ARG56       0.0489
    131  CD        54.9800   29.0230    9.0180 C.3    56  ARG56       0.2205
    132  NE        54.4430   27.6690    9.2160 N.pl3  56  ARG56      -0.0865
    133  CZ        53.1470   27.3520    9.2710 C.cat  56  ARG56       0.5346
    134  NH1       52.2030   28.2810    9.1430 N.pl3  56  ARG56       0.1354
    135  NH2       52.7910   26.0890    9.4590 N.pl3  56  ARG56       0.1354
    136  N         55.6880   26.7350    3.2690 N.3    58  LEU58      -0.1245
    137  CA        55.4310   25.3910    3.7780 C.3    58  LEU58       0.1561
    138  C         56.5650   24.4460    3.3520 C.2    58  LEU58       0.2260
    139  O         56.8970   24.3760    2.1690 O.2    58  LEU58      -0.2867
    140  CB        54.0640   24.8920    3.3090 C.3    58  LEU58       0.0270
    141  CG        52.8610   25.7580    3.7080 C.3    58  LEU58       0.0019
    142  CD1       51.5730   25.1110    3.2640 C.3    58  LEU58       0.0001
    143  CD2       52.8170   26.0430    5.2130 C.3    58  LEU58       0.0001
    144  N         58.0830   21.5610   -0.2270 N.3    61  ARG61      -0.1245
    145  CA        57.2170   21.8180   -1.3850 C.3    61  ARG61       0.1563
    146  C         57.6600   23.1210   -2.0630 C.2    61  ARG61       0.2260
    147  O         58.1390   24.0420   -1.3980 O.2    61  ARG61      -0.2867
    148  CB        55.7490   21.9470   -0.9440 C.3    61  ARG61       0.0307
    149  CG        54.9770   20.6290   -0.8450 C.3    61  ARG61       0.0489
    150  CD        53.8140   20.7010    0.1430 C.3    61  ARG61       0.2205
    151  NE        54.2930   21.1170    1.4580 N.pl3  61  ARG61      -0.0865
    152  CZ        53.7160   20.8150    2.6160 C.cat  61  ARG61       0.5346
    153  NH1       52.6200   20.0620    2.6460 N.pl3  61  ARG61       0.1354
    154  NH2       54.2470   21.2660    3.7500 N.pl3  61  ARG61       0.1354
    155  N         45.8620   25.4280   -4.3470 N.3    99  PHE99      -0.1241
    156  CA        45.6500   25.4480   -2.9060 C.3    99  PHE99       0.1605
    157  C         44.7210   26.5690   -2.4180 C.2    99  PHE99       0.2264
    158  O         44.5330   26.7340   -1.2040 O.2    99  PHE99      -0.2867
    159  CB        47.0250   25.5840   -2.2380 C.3    99  PHE99       0.0534
    160  CG        47.0940   25.0770   -0.8230 C.ar   99  PHE99      -0.0203
    161  CD1       46.7800   23.7400   -0.5210 C.ar   99  PHE99      -0.0042
    162  CD2       47.5450   25.9160    0.2040 C.ar   99  PHE99      -0.0042
    163  CE1       46.8700   23.2650    0.7790 C.ar   99  PHE99      -0.0003
    164  CE2       47.6430   25.4520    1.5190 C.ar   99  PHE99      -0.0003
    165  CZ        47.3050   24.1180    1.8090 C.ar   99  PHE99      -0.0000
    166  N         41.0930   29.5430   -7.3500 N.3   105  TYR105     -0.1241
    167  CA        40.3030   28.3940   -7.8270 C.3   105  TYR105      0.1605
    168  C         39.5610   28.7430   -9.1110 C.2   105  TYR105      0.2264
    169  O         39.4670   27.9090  -10.0050 O.2   105  TYR105     -0.2867
    170  CB        39.2830   27.9030   -6.7900 C.3   105  TYR105      0.0534
    171  CG        39.8760   27.2600   -5.5640 C.ar  105  TYR105     -0.0201
    172  CD1       40.8660   26.2920   -5.6690 C.ar  105  TYR105     -0.0009
    173  CD2       39.4160   27.5980   -4.2970 C.ar  105  TYR105     -0.0009
    174  CE1       41.4030   25.6940   -4.5410 C.ar  105  TYR105      0.0417
    175  CE2       39.9380   27.0050   -3.1630 C.ar  105  TYR105      0.0417
    176  CZ        40.9330   26.0540   -3.2930 C.ar  105  TYR105      0.1957
    177  OH        41.4690   25.4670   -2.1680 O.3   105  TYR105     -0.2866
    178  N         40.5570   17.0650   -5.0470 N.3   116  TYR116     -0.1241
    179  CA        40.5640   16.5830   -3.6690 C.3   116  TYR116      0.1605
    180  C         39.7590   17.5640   -2.8320 C.2   116  TYR116      0.2264
    181  O         40.2420   18.6490   -2.4710 O.2   116  TYR116     -0.2867
    182  CB        41.9760   16.4760   -3.0950 C.3   116  TYR116      0.0534
    183  CG        42.9530   15.6370   -3.8840 C.ar  116  TYR116     -0.0201
    184  CD1       43.4440   16.0730   -5.1120 C.ar  116  TYR116     -0.0009
    185  CD2       43.4300   14.4280   -3.3750 C.ar  116  TYR116     -0.0009
    186  CE1       44.3530   15.3160   -5.8310 C.ar  116  TYR116      0.0417
    187  CE2       44.3440   13.6570   -4.0910 C.ar  116  TYR116      0.0417
    188  CZ        44.8040   14.1160   -5.3150 C.ar  116  TYR116      0.1957
    189  OH        45.7070   13.3730   -6.0310 O.3   116  TYR116     -0.2866
    190  N         37.3680   18.1240    0.5450 N.3   118  THR118     -0.1218
    191  CA        36.8130   17.7390    1.8320 C.3   118  THR118      0.1862
    192  C         35.4730   18.4510    1.9970 C.2   118  THR118      0.2287
    193  O         35.3730   19.6610    1.8060 O.2   118  THR118     -0.2866
    194  CB        37.7640   18.0980    2.9950 C.3   118  THR118      0.1770
    195  OG1       39.0100   17.4250    2.8010 O.3   118  THR118     -0.2211
    196  CG2       37.1730   17.6790    4.3340 C.3   118  THR118      0.0375
@<TRIPOS>BOND
     1   169   168    2
     2   168   167    1
     3   167   166    1
     4   167   170    1
     5   170   171    1
     6   189   188    1
     7   186   188   ar
     8   186   184   ar
     9   172   171   ar
    10   172   174   ar
    11   171   173   ar
    12   188   187   ar
    13   184   183   ar
    14   178   179    1
    15   174   176   ar
    16   155   156    1
    17   173   175   ar
    18     1     2    1
    19   187   185   ar
    20   183   185   ar
    21   183   182    1
    22   179   182    1
    23   179   180    1
    24   176   175   ar
    25   176   177    1
    26   156   157    1
    27   156   159    1
    28     2     5    1
    29     2     3    1
    30   180   181    2
    31    14    13    1
    32   157   158    2
    33     5     6    1
    34   159   160    1
    35     3     4    2
    36     3     9   am
    37   146   147    2
    38   146   145    1
    39    13    15    1
    40    13    10    1
    41     9    10    1
    42   145   148    1
    43   145   144    1
    44     8     7    1
    45    10    11    1
    46   148   149    1
    47   149   150    1
    48   160   161   ar
    49   160   162   ar
    50     6     7    1
    51   161   163   ar
    52   111   109   am
    53   108   109    1
    54   108   105    1
    55    12    11    2
    56    11    16   am
    57    87    86    1
    58   150   151    1
    59   104   105    1
    60   162   164   ar
    61   109   110    2
    62   190   191    1
    63   163   165   ar
    64   105   106    1
    65    16    17    1
    66    86    85   ar
    67    86    84   ar
    68   106   107    2
    69   151   152    2
    70   164   165   ar
    71    85    83   ar
    72   193   192    2
    73   191   192    1
    74   191   194    1
    75    18    17    1
    76    18    19    2
    77   139   138    2
    78    17    20    1
    79    91    90    2
    80    84    82   ar
    81   152   153    1
    82   152   154    1
    83   195   194    1
    84   124   122    1
    85    98    97    2
    86   194   196    1
    87    83    81   ar
    88    93    92    1
    89   142   141    1
    90   136   137    1
    91   140   141    1
    92   140   137    1
    93    79    78    2
    94    90    89    1
    95    90    95   am
    96   138   137    1
    97    89    92    1
    98    89    88    1
    99    82    81   ar
   100    94    92    1
   101   141   143    1
   102    97    96    1
   103    81    80    1
   104   122   121    1
   105    67    65   ar
   106    78    88   am
   107    78    77    1
   108   128   127    2
   109    96    95    1
   110    96    99    1
   111   112   113    1
   112   121   123    1
   113   121   118    1
   114   127   126    1
   115    50    48   ar
   116    50    49   ar
   117    80    77    1
   118    77    76    1
   119    65    66   ar
   120    65    64    1
   121   116   113    1
   122   117   118    1
   123   117   114   am
   124    48    46   ar
   125    36    34    1
   126   113   114    1
   127   126   125    1
   128   126   129    1
   129    99   100    1
   130   118   119    1
   131    49    47   ar
   132    62    61    2
   133   114   115    2
   134    24    23    2
   135    64    63    1
   136   100   101    1
   137   119   120    2
   138    21    22    1
   139    71    70    2
   140    46    45   ar
   141    46    44   ar
   142    34    35    1
   143    34    33    1
   144    23    22    1
   145    23    29   am
   146   129   130    1
   147    22    25    1
   148    61    60    1
   149    61    68   am
   150   130   131    1
   151    47    44   ar
   152    45    43   ar
   153    70    69    1
   154    74    73    1
   155    30    29    1
   156    30    33    1
   157    30    31    1
   158   101   102    1
   159    63    60    1
   160    69    68    1
   161    69    72    1
   162    44    42   ar
   163    60    59    1
   164   102   103    1
   165    73    72    1
   166    73    75    1
   167    31    32    2
   168    25    26    1
   169    43    42   ar
   170   131   132    1
   171   134   133    1
   172    27    26    2
   173   132   133    2
   174    42    41    1
   175   133   135    1
   176    26    28   am
   177    57    56    1
   178    37    38    1
   179    41    38    1
   180    54    53    2
   181    55    56    1
   182    55    52    1
   183    40    39    2
   184    56    58    1
   185    38    39    1
   186    53    52    1
   187    52    51    1
