@<TRIPOS>MOLECULE
tmp/3sa3B00.pdb
 121 113 0 0 0
SMALL
GASTEIGER

@<TRIPOS>ATOM
      1  N         19.2300   16.6350   15.1410 N.3     8  ARG8       -0.1245
      2  CA        18.5090   17.8450   15.5280 C.3     8  ARG8        0.1563
      3  C         17.5210   17.4890   16.6360 C.2     8  ARG8        0.2260
      4  O         16.8060   16.4860   16.5320 O.2     8  ARG8       -0.2867
      5  CB        17.7820   18.4560   14.3530 C.3     8  ARG8        0.0307
      6  CG        18.6950   18.9990   13.2790 C.3     8  ARG8        0.0489
      7  CD        17.9020   19.6710   12.1810 C.3     8  ARG8        0.2205
      8  NE        18.8140   20.1830   11.1700 N.pl3   8  ARG8       -0.0865
      9  CZ        18.4680   20.9920   10.1770 C.cat   8  ARG8        0.5346
     10  NH1       17.2010   21.3800   10.0350 N.pl3   8  ARG8        0.1354
     11  NH2       19.3940   21.3930    9.3100 N.pl3   8  ARG8        0.1354
     12  N         12.2950   22.5070   16.8180 N.3    23  LEU23      -0.1245
     13  CA        13.6660   22.3790   17.2790 C.3    23  LEU23       0.1561
     14  C         13.7480   23.0100   18.6640 C.2    23  LEU23       0.2260
     15  O         13.3370   24.1650   18.8340 O.2    23  LEU23      -0.2867
     16  CB        14.5440   23.1510   16.2880 C.3    23  LEU23       0.0270
     17  CG        16.0110   22.9060   16.0470 C.3    23  LEU23       0.0019
     18  CD1       16.2580   21.4870   15.6270 C.3    23  LEU23       0.0001
     19  CD2       16.4350   23.9000   14.9550 C.3    23  LEU23       0.0001
     20  N         15.8360   24.9310   20.7880 N.3    25  ASP25      -0.1239
     21  CA        16.9470   25.7370   20.3000 C.3    25  ASP25       0.1674
     22  C         17.4730   26.7470   21.3160 C.2    25  ASP25       0.2266
     23  O         16.9430   27.8500   21.4760 O.2    25  ASP25      -0.2867
     24  CB        16.5250   26.4730   19.0380 C.3    25  ASP25       0.1410
     25  CG        17.6900   27.1550   18.3700 C.2    25  ASP25       0.3668
     26  OD1       17.5040   27.6360   17.2350 O.co2  25  ASP25      -0.2456
     27  OD2       18.8030   27.1380   18.9580 O.co2  25  ASP25      -0.2456
     28  N         20.0010   28.5150   21.1140 N.3    27  GLY27      -0.1210
     29  CA        20.5510   29.7020   20.4720 C.3    27  GLY27       0.1956
     30  C         19.5080   30.7130   20.0450 C.2    27  GLY27       0.2612
     31  O         19.8630   31.7900   19.5730 O.2    27  GLY27      -0.2717
     32  N         18.2340   30.3680   20.2230 N.am   28  ALA28      -0.1965
     33  CA        17.1060   31.2120   19.8510 C.3    28  ALA28       0.1728
     34  C         16.5780   31.9600   21.0670 C.2    28  ALA28       0.2616
     35  O         16.0840   31.3300   22.0080 O.2    28  ALA28      -0.2715
     36  CB        15.9960   30.3220   19.2900 C.3    28  ALA28       0.0334
     37  N         16.6400   33.2900   21.0610 N.am   29  ASP29      -0.1957
     38  CA        16.0900   34.0720   22.1790 C.3    29  ASP29       0.1840
     39  C         14.5850   33.8740   22.2290 C.2    29  ASP29       0.2622
     40  O         13.9950   33.7180   23.3040 O.2    29  ASP29      -0.2715
     41  CB        16.3470   35.5720   22.0160 C.3    29  ASP29       0.1450
     42  CG        17.8150   35.9390   22.0100 C.2    29  ASP29       0.3671
     43  OD1       18.6810   35.1590   22.4910 O.co2  29  ASP29      -0.2456
     44  OD2       18.1030   37.0350   21.4790 O.co2  29  ASP29      -0.2456
     45  N         13.9810   33.9010   21.0390 N.am   30  ASP30      -0.1971
     46  CA        12.5440   33.8510   20.8630 C.3    30  ASP30       0.1709
     47  C         12.1310   32.5730   20.1450 C.2    30  ASP30       0.2293
     48  O         12.9490   31.8610   19.5470 O.2    30  ASP30      -0.2864
     49  CB        12.0790   35.0670   20.0730 C.3    30  ASP30       0.1436
     50  CG        12.5240   36.3820   20.6980 C.2    30  ASP30       0.3671
     51  OD1       12.6610   36.4620   21.9400 O.co2  30  ASP30      -0.2456
     52  OD2       12.7310   37.3490   19.9440 O.co2  30  ASP30      -0.2456
     53  N         10.0860   30.8680   17.1710 N.3    32  VAL32      -0.1245
     54  CA         9.7730   31.2650   15.8000 C.3    32  VAL32       0.1561
     55  C          9.1430   30.0870   15.0850 C.2    32  VAL32       0.2260
     56  O          9.7720   29.0340   14.9040 O.2    32  VAL32      -0.2867
     57  CB        11.0150   31.7200   15.0040 C.3    32  VAL32       0.0252
     58  CG1       10.5890   32.3920   13.6870 C.3    32  VAL32       0.0019
     59  CG2       11.8790   32.6470   15.8370 C.3    32  VAL32       0.0019
     60  N          7.6970   42.4700   13.6160 N.3    45  LYS45      -0.1245
     61  CA         9.0290   42.3910   14.1670 C.3    45  LYS45       0.1561
     62  C          9.9630   41.8640   13.0930 C.2    45  LYS45       0.2260
     63  O          9.5410   41.1790   12.1610 O.2    45  LYS45      -0.2867
     64  CB         9.0320   41.4350   15.3590 C.3    45  LYS45       0.0271
     65  CG        10.3310   41.3370   16.1460 C.3    45  LYS45       0.0035
     66  CD        10.1470   40.4810   17.3990 C.3    45  LYS45       0.0206
     67  CE        11.4510   40.3410   18.1680 C.3    45  LYS45       0.1093
     68  NZ        11.7550   41.5070   19.0170 N.3    45  LYS45      -0.1314
     69  N         13.6420   39.7280   12.9110 N.3    47  ILE47      -0.1231
     70  CA        14.6060   38.9460   13.6640 C.3    47  ILE47       0.1692
     71  C         15.7330   38.5260   12.7380 C.2    47  ILE47       0.2593
     72  O         15.5140   38.2570   11.5480 O.2    47  ILE47      -0.2718
     73  CB        13.9570   37.7270   14.3450 C.3    47  ILE47       0.0266
     74  CG1       13.2270   36.8490   13.3380 C.3    47  ILE47       0.0019
     75  CG2       12.9940   38.1880   15.4170 C.3    47  ILE47       0.0020
     76  CD1       12.9450   35.4400   13.8710 C.3    47  ILE47       0.0001
     77  N         16.9280   38.4700   13.3100 N.am   48  GLY48      -0.1942
     78  CA        18.1460   38.2900   12.5560 C.3    48  GLY48       0.2014
     79  C         18.6810   36.8980   12.7410 C.2    48  GLY48       0.2639
     80  O         18.8710   36.4190   13.8630 O.2    48  GLY48      -0.2714
     81  N         18.9150   36.2540   11.6130 N.am   49  GLY49      -0.1939
     82  CA        19.5430   34.9510   11.6130 C.3    49  GLY49       0.2014
     83  C         20.7950   34.9380   10.7700 C.2    49  GLY49       0.2638
     84  O         21.3060   35.9690   10.3250 O.2    49  GLY49      -0.2714
     85  N         21.2700   33.7310   10.5240 N.am   50  ILE50      -0.1977
     86  CA        22.5200   33.5520    9.8310 C.3    50  ILE50       0.1596
     87  C         22.5580   34.3080    8.4960 C.2    50  ILE50       0.2287
     88  O         23.5400   35.0060    8.1950 O.2    50  ILE50      -0.2864
     89  CB        22.8210   32.0480    9.7050 C.3    50  ILE50       0.0276
     90  CG1       24.3100   31.8230    9.4680 C.3    50  ILE50       0.0022
     91  CG2       21.8980   31.4010    8.6910 C.3    50  ILE50       0.0022
     92  CD1       25.1370   32.0940   10.7140 C.3    50  ILE50       0.0001
     93  N         10.3180   31.0880    8.4480 N.3    80  THR80      -0.1204
     94  CA        11.4240   30.2670    8.8860 C.3    80  THR80       0.1979
     95  C         11.2700   28.8850    8.2730 C.2    80  THR80       0.2460
     96  O         10.1560   28.3870    8.1260 O.2    80  THR80      -0.2732
     97  CB        11.4310   30.1490   10.4120 C.3    80  THR80       0.1783
     98  OG1       12.4590   29.2380   10.8150 O.3    80  THR80      -0.2211
     99  CG2       10.0700   29.6610   10.9310 C.3    80  THR80       0.0376
    100  N         12.3930   28.2480    7.9220 N.am   81  PRO81      -0.2717
    101  CA        12.3200   26.8860    7.3940 C.3    81  PRO81       0.1535
    102  C         12.0450   25.8010    8.4360 C.2    81  PRO81       0.2598
    103  O         11.7320   24.6600    8.0640 O.2    81  PRO81      -0.2715
    104  CB        13.7020   26.6820    6.7710 C.3    81  PRO81       0.0310
    105  CG        14.5970   27.5520    7.5800 C.3    81  PRO81       0.0237
    106  CD        13.7760   28.7550    7.9700 C.3    81  PRO81       0.0939
    107  N         12.1940   26.1450    9.7110 N.am   82  VAL82      -0.1978
    108  CA        11.9980   25.2090   10.8010 C.3    82  VAL82       0.1596
    109  C         11.2710   25.9090   11.9320 C.2    82  VAL82       0.2287
    110  O         11.4630   27.1080   12.1720 O.2    82  VAL82      -0.2864
    111  CB        13.3380   24.6900   11.3360 C.3    82  VAL82       0.0276
    112  CG1       14.1090   23.9900   10.2340 C.3    82  VAL82       0.0022
    113  CG2       14.1360   25.8440   11.9220 C.3    82  VAL82       0.0022
    114  N         11.0150   26.7400   15.6400 N.3    84  ILE84      -0.1245
    115  CA        12.0690   26.9460   16.6100 C.3    84  ILE84       0.1561
    116  C         11.4530   27.2880   17.9560 C.2    84  ILE84       0.2260
    117  O         10.7070   28.2640   18.0550 O.2    84  ILE84      -0.2867
    118  CB        12.9890   28.0910   16.1420 C.3    84  ILE84       0.0252
    119  CG1       13.6920   27.6840   14.8460 C.3    84  ILE84       0.0019
    120  CG2       14.0300   28.4370   17.2100 C.3    84  ILE84       0.0019
    121  CD1       14.2450   28.8070   14.0780 C.3    84  ILE84       0.0001
@<TRIPOS>BOND
     1   104   101    1
     2   104   105    1
     3   101   100    1
     4   101   102    1
     5   105   106    1
     6   100   106    1
     7   100    95   am
     8   103   102    2
     9    96    95    2
    10    88    87    2
    11    95    94    1
    12   102   107   am
    13    93    94    1
    14    87    86    1
    15    91    89    1
    16    94    97    1
    17    11     9    1
    18    90    89    1
    19    90    92    1
    20    89    86    1
    21   107   108    1
    22    86    85    1
    23    10     9    1
    24     9     8    2
    25   112   111    1
    26    84    83    2
    27    97    98    1
    28    97    99    1
    29    85    83   am
    30    83    82    1
    31   108   111    1
    32   108   109    1
    33     8     7    1
    34   111   113    1
    35    72    71    2
    36    82    81    1
    37    81    79   am
    38   109   110    2
    39    63    62    2
    40     7     6    1
    41    78    79    1
    42    78    77    1
    43    71    77   am
    44    71    70    1
    45    79    80    2
    46    69    70    1
    47    62    61    1
    48     6     5    1
    49    74    76    1
    50    74    73    1
    51    60    61    1
    52    70    73    1
    53    58    57    1
    54   121   119    1
    55    61    64    1
    56    73    75    1
    57     5     2    1
    58   119   118    1
    59    56    55    2
    60    19    17    1
    61    57    54    1
    62    57    59    1
    63    55    54    1
    64     1     2    1
    65    64    65    1
    66     2     3    1
    67    18    17    1
    68   114   115    1
    69    54    53    1
    70    17    16    1
    71   118   115    1
    72   118   120    1
    73    65    66    1
    74    16    13    1
    75     4     3    2
    76   115   116    1
    77    12    13    1
    78    26    25   ar
    79    13    14    1
    80    66    67    1
    81   116   117    2
    82    67    68    1
    83    25    27   ar
    84    25    24    1
    85    14    15    2
    86    24    21    1
    87    36    33    1
    88    48    47    2
    89    31    30    2
    90    33    32    1
    91    33    34    1
    92    52    50   ar
    93    30    32   am
    94    30    29    1
    95    49    50    1
    96    49    46    1
    97    47    46    1
    98    21    20    1
    99    21    22    1
   100    29    28    1
   101    50    51   ar
   102    46    45    1
   103    45    39   am
   104    37    34   am
   105    37    38    1
   106    34    35    2
   107    22    23    2
   108    44    42   ar
   109    42    41    1
   110    42    43   ar
   111    41    38    1
   112    38    39    1
   113    39    40    2
