@<TRIPOS>MOLECULE
tmp/3sa4B00.pdb
 121 113 0 0 0
SMALL
GASTEIGER

@<TRIPOS>ATOM
      1  N         19.3780   16.9510   15.0790 N.3     8  ARG8       -0.1245
      2  CA        18.6510   18.1630   15.4490 C.3     8  ARG8        0.1563
      3  C         17.6220   17.8320   16.5230 C.2     8  ARG8        0.2260
      4  O         16.8810   16.8550   16.3830 O.2     8  ARG8       -0.2867
      5  CB        17.9640   18.7710   14.2250 C.3     8  ARG8        0.0307
      6  CG        18.9620   19.2780   13.2170 C.3     8  ARG8        0.0489
      7  CD        18.3640   19.8670   11.9470 C.3     8  ARG8        0.2205
      8  NE        19.4830   20.0730   11.0380 N.pl3   8  ARG8       -0.0865
      9  CZ        19.5640   19.6390    9.7850 C.cat   8  ARG8        0.5346
     10  NH1       18.5470   19.0190    9.1910 N.pl3   8  ARG8        0.1354
     11  NH2       20.6760   19.8690    9.1060 N.pl3   8  ARG8        0.1354
     12  N         12.4930   22.9130   16.7550 N.3    23  LEU23      -0.1245
     13  CA        13.7970   22.7680   17.3850 C.3    23  LEU23       0.1561
     14  C         13.7660   23.3170   18.7910 C.2    23  LEU23       0.2260
     15  O         13.3180   24.4350   18.9970 O.2    23  LEU23      -0.2867
     16  CB        14.8670   23.6130   16.6830 C.3    23  LEU23       0.0270
     17  CG        15.4610   23.2560   15.3410 C.3    23  LEU23       0.0019
     18  CD1       16.4170   24.3650   14.8990 C.3    23  LEU23       0.0001
     19  CD2       16.1700   21.9300   15.4520 C.3    23  LEU23       0.0001
     20  N         15.8690   25.1890   20.9450 N.3    25  ASP25      -0.1239
     21  CA        16.9720   26.0050   20.4880 C.3    25  ASP25       0.1674
     22  C         17.4520   27.0040   21.5310 C.2    25  ASP25       0.2266
     23  O         16.8640   28.0740   21.7400 O.2    25  ASP25      -0.2867
     24  CB        16.5850   26.7170   19.1840 C.3    25  ASP25       0.1410
     25  CG        17.7670   27.4140   18.5290 C.2    25  ASP25       0.3668
     26  OD1       17.5840   27.9210   17.4000 O.co2  25  ASP25      -0.2456
     27  OD2       18.8980   27.4030   19.0880 O.co2  25  ASP25      -0.2456
     28  N         20.0370   28.7680   21.3770 N.3    27  GLY27      -0.1210
     29  CA        20.5660   29.9600   20.7060 C.3    27  GLY27       0.1956
     30  C         19.5350   31.0220   20.3520 C.2    27  GLY27       0.2612
     31  O         19.8990   32.1320   19.9480 O.2    27  GLY27      -0.2717
     32  N         18.2590   30.6850   20.5260 N.am   28  ALA28      -0.1965
     33  CA        17.1310   31.5310   20.1580 C.3    28  ALA28       0.1728
     34  C         16.5760   32.2460   21.3880 C.2    28  ALA28       0.2616
     35  O         16.1090   31.5880   22.3290 O.2    28  ALA28      -0.2715
     36  CB        16.0380   30.6700   19.5270 C.3    28  ALA28       0.0334
     37  N         16.6430   33.5750   21.4110 N.am   29  ASP29      -0.1957
     38  CA        16.0610   34.3410   22.5290 C.3    29  ASP29       0.1840
     39  C         14.5500   34.1310   22.5720 C.2    29  ASP29       0.2622
     40  O         13.9530   33.9600   23.6470 O.2    29  ASP29      -0.2715
     41  CB        16.3070   35.8470   22.3770 C.3    29  ASP29       0.1450
     42  CG        17.7650   36.2380   22.4810 C.2    29  ASP29       0.3671
     43  OD1       18.5960   35.4560   22.9750 O.co2  29  ASP29      -0.2456
     44  OD2       18.0810   37.3760   22.0820 O.co2  29  ASP29      -0.2456
     45  N         13.9510   34.1410   21.3850 N.am   30  ASP30      -0.1971
     46  CA        12.5050   34.1310   21.2060 C.3    30  ASP30       0.1709
     47  C         12.0840   32.9050   20.3970 C.2    30  ASP30       0.2293
     48  O         12.9000   32.2560   19.7330 O.2    30  ASP30      -0.2864
     49  CB        12.0480   35.4050   20.4740 C.3    30  ASP30       0.1436
     50  CG        12.4530   36.6900   21.1920 C.2    30  ASP30       0.3671
     51  OD1       12.4530   36.7160   22.4420 O.co2  30  ASP30      -0.2456
     52  OD2       12.7430   37.6970   20.5040 O.co2  30  ASP30      -0.2456
     53  N         10.1240   31.3050   17.3070 N.3    32  VAL32      -0.1245
     54  CA         9.8170   31.6910   15.9280 C.3    32  VAL32       0.1561
     55  C          9.1510   30.5130   15.2230 C.2    32  VAL32       0.2260
     56  O          9.7420   29.4360   15.0650 O.2    32  VAL32      -0.2867
     57  CB        11.0690   32.1580   15.1400 C.3    32  VAL32       0.0252
     58  CG1       10.6420   32.9260   13.8690 C.3    32  VAL32       0.0019
     59  CG2       11.9760   33.0130   16.0300 C.3    32  VAL32       0.0019
     60  N          7.7840   43.0650   13.7840 N.3    45  LYS45      -0.1245
     61  CA         9.1070   42.9880   14.3690 C.3    45  LYS45       0.1561
     62  C         10.0670   42.4660   13.3100 C.2    45  LYS45       0.2260
     63  O          9.6530   41.8160   12.3500 O.2    45  LYS45      -0.2867
     64  CB         9.0770   42.0430   15.5680 C.3    45  LYS45       0.0271
     65  CG        10.2700   42.1070   16.4830 C.3    45  LYS45       0.0035
     66  CD        10.1220   41.0490   17.5790 C.3    45  LYS45       0.0206
     67  CE        11.4000   40.8970   18.3640 C.3    45  LYS45       0.1093
     68  NZ        11.4330   41.8360   19.5090 N.3    45  LYS45      -0.1314
     69  N         13.7730   40.2990   13.2050 N.3    47  ILE47      -0.1231
     70  CA        14.7380   39.5270   13.9670 C.3    47  ILE47       0.1692
     71  C         15.8750   39.0910   13.0640 C.2    47  ILE47       0.2593
     72  O         15.6790   38.7880   11.8760 O.2    47  ILE47      -0.2718
     73  CB        14.1120   38.3190   14.6800 C.3    47  ILE47       0.0266
     74  CG1       13.3730   37.4080   13.6950 C.3    47  ILE47       0.0019
     75  CG2       13.1930   38.8080   15.7980 C.3    47  ILE47       0.0020
     76  CD1       13.0000   36.0340   14.2980 C.3    47  ILE47       0.0001
     77  N         17.0660   39.0970   13.6520 N.am   48  GLY48      -0.1942
     78  CA        18.2790   38.8360   12.9130 C.3    48  GLY48       0.2014
     79  C         18.9520   37.5280   13.2920 C.2    48  GLY48       0.2639
     80  O         18.9070   37.0980   14.4460 O.2    48  GLY48      -0.2714
     81  N         19.5920   36.9200   12.2990 N.am   49  GLY49      -0.1939
     82  CA        20.4940   35.7940   12.5040 C.3    49  GLY49       0.2014
     83  C         21.4580   35.6570   11.3390 C.2    49  GLY49       0.2638
     84  O         21.7540   36.6330   10.6590 O.2    49  GLY49      -0.2714
     85  N         21.9620   34.4480   11.1130 N.am   50  ILE50      -0.1977
     86  CA        22.8820   34.2080   10.0130 C.3    50  ILE50       0.1596
     87  C         22.1440   34.5080    8.7050 C.2    50  ILE50       0.2287
     88  O         21.0240   34.0410    8.5120 O.2    50  ILE50      -0.2864
     89  CB        23.4370   32.7640   10.0570 C.3    50  ILE50       0.0276
     90  CG1       24.5430   32.6760   11.1220 C.3    50  ILE50       0.0022
     91  CG2       23.9970   32.3610    8.6940 C.3    50  ILE50       0.0022
     92  CD1       24.9440   31.2570   11.4580 C.3    50  ILE50       0.0001
     93  N         10.3950   31.7790    8.6290 N.3    80  THR80      -0.1204
     94  CA        11.5050   30.9570    9.0750 C.3    80  THR80       0.1979
     95  C         11.4260   29.5910    8.3720 C.2    80  THR80       0.2460
     96  O         10.3320   29.0710    8.1210 O.2    80  THR80      -0.2732
     97  CB        11.5260   30.8100   10.6130 C.3    80  THR80       0.1783
     98  OG1       12.5730   29.9080   10.9760 O.3    80  THR80      -0.2211
     99  CG2       10.1930   30.2690   11.1460 C.3    80  THR80       0.0376
    100  N         12.5870   29.0090    8.0210 N.am   81  PRO81      -0.2717
    101  CA        12.5900   27.6730    7.4110 C.3    81  PRO81       0.1535
    102  C         12.3500   26.5260    8.3790 C.2    81  PRO81       0.2598
    103  O         12.1460   25.3840    7.9540 O.2    81  PRO81      -0.2715
    104  CB        14.0030   27.5530    6.8240 C.3    81  PRO81       0.0310
    105  CG        14.8270   28.5300    7.5630 C.3    81  PRO81       0.0237
    106  CD        13.9210   29.6310    8.0140 C.3    81  PRO81       0.0939
    107  N         12.4290   26.8260    9.6710 N.am   82  VAL82      -0.1978
    108  CA        12.2620   25.8360   10.7250 C.3    82  VAL82       0.1596
    109  C         11.5320   26.4790   11.9000 C.2    82  VAL82       0.2287
    110  O         11.7620   27.6510   12.2200 O.2    82  VAL82      -0.2864
    111  CB        13.6350   25.2970   11.1860 C.3    82  VAL82       0.0276
    112  CG1       14.5350   26.4400   11.6460 C.3    82  VAL82       0.0022
    113  CG2       13.4700   24.2600   12.2930 C.3    82  VAL82       0.0022
    114  N         11.1100   27.1310   15.7000 N.3    84  ILE84      -0.1245
    115  CA        12.1620   27.3350   16.6900 C.3    84  ILE84       0.1561
    116  C         11.5250   27.6220   18.0440 C.2    84  ILE84       0.2260
    117  O         10.8050   28.6210   18.2020 O.2    84  ILE84      -0.2867
    118  CB        13.0840   28.5080   16.2900 C.3    84  ILE84       0.0252
    119  CG1       13.8170   28.1860   14.9840 C.3    84  ILE84       0.0019
    120  CG2       14.0900   28.8590   17.4030 C.3    84  ILE84       0.0019
    121  CD1       14.4740   29.3840   14.3380 C.3    84  ILE84       0.0001
@<TRIPOS>BOND
     1   104   101    1
     2   104   105    1
     3   101   100    1
     4   101   102    1
     5   105   106    1
     6   103   102    2
     7   106   100    1
     8   100    95   am
     9    96    95    2
    10    95    94    1
    11   102   107   am
    12    88    87    2
    13    93    94    1
    14    91    89    1
    15    87    86    1
    16    94    97    1
    17    11     9    1
    18    10     9    1
    19   107   108    1
    20     9     8    2
    21    86    89    1
    22    86    85    1
    23    89    90    1
    24    97    98    1
    25    97    99    1
    26    84    83    2
    27   108   111    1
    28   108   109    1
    29     8     7    1
    30    85    83   am
    31    90    92    1
    32   111   112    1
    33   111   113    1
    34    83    82    1
    35    72    71    2
    36   109   110    2
    37     7     6    1
    38    81    82    1
    39    81    79   am
    40    63    62    2
    41    78    79    1
    42    78    77    1
    43    71    77   am
    44    71    70    1
    45    69    70    1
    46     6     5    1
    47    79    80    2
    48    62    61    1
    49    74    76    1
    50    74    73    1
    51    60    61    1
    52    58    57    1
    53    70    73    1
    54     5     2    1
    55   121   119    1
    56    61    64    1
    57    73    75    1
    58    18    17    1
    59   119   118    1
    60    56    55    2
    61     1     2    1
    62    57    54    1
    63    57    59    1
    64    55    54    1
    65    17    19    1
    66    17    16    1
    67     2     3    1
    68    64    65    1
    69   114   115    1
    70    54    53    1
    71   118   115    1
    72   118   120    1
    73     4     3    2
    74    65    66    1
    75    16    13    1
    76   115   116    1
    77    12    13    1
    78    13    14    1
    79    26    25   ar
    80    66    67    1
    81   116   117    2
    82    67    68    1
    83    25    27   ar
    84    25    24    1
    85    14    15    2
    86    24    21    1
    87    36    33    1
    88    48    47    2
    89    31    30    2
    90    33    32    1
    91    33    34    1
    92    30    32   am
    93    30    29    1
    94    47    46    1
    95    49    50    1
    96    49    46    1
    97    21    20    1
    98    21    22    1
    99    52    50   ar
   100    29    28    1
   101    50    51   ar
   102    46    45    1
   103    45    39   am
   104    34    37   am
   105    34    35    2
   106    37    38    1
   107    22    23    2
   108    44    42   ar
   109    41    42    1
   110    41    38    1
   111    42    43   ar
   112    38    39    1
   113    39    40    2
