@<TRIPOS>MOLECULE
tmp/3sa5B00.pdb
 105 98 0 0 0
SMALL
GASTEIGER

@<TRIPOS>ATOM
      1  N         21.3840   34.1230   27.7730 N.3     8  ARG8       -0.1245
      2  CA        22.0660   33.4020   26.6900 C.3     8  ARG8        0.1563
      3  C         23.1680   32.5050   27.2700 C.2     8  ARG8        0.2260
      4  O         23.9450   32.9480   28.1100 O.2     8  ARG8       -0.2867
      5  CB        22.6860   34.3680   25.6900 C.3     8  ARG8        0.0307
      6  CG        21.6920   35.1640   24.8870 C.3     8  ARG8        0.0489
      7  CD        22.4140   36.0130   23.8480 C.3     8  ARG8        0.2205
      8  NE        21.4720   36.7230   22.9750 N.pl3   8  ARG8       -0.0865
      9  CZ        21.3960   38.0490   22.8250 C.cat   8  ARG8        0.5346
     10  NH1       22.2110   38.8790   23.4800 N.pl3   8  ARG8        0.1354
     11  NH2       20.4910   38.5620   21.9980 N.pl3   8  ARG8        0.1354
     12  N         28.3280   31.0060   22.0000 N.3    23  LEU23      -0.1245
     13  CA        26.9900   30.6050   22.3960 C.3    23  LEU23       0.1561
     14  C         26.8290   29.1060   22.2300 C.2    23  LEU23       0.2260
     15  O         27.0620   28.5680   21.1480 O.2    23  LEU23      -0.2867
     16  CB        25.9970   31.3510   21.4990 C.3    23  LEU23       0.0270
     17  CG        24.5090   31.2200   21.7380 C.3    23  LEU23       0.0019
     18  CD1       24.1440   31.8640   23.0500 C.3    23  LEU23       0.0001
     19  CD2       23.7940   31.8920   20.5660 C.3    23  LEU23       0.0001
     20  N         24.6910   26.3520   21.2980 N.3    25  ASP25      -0.1239
     21  CA        23.5400   26.4840   20.4300 C.3    25  ASP25       0.1674
     22  C         23.0510   25.1440   19.9150 C.2    25  ASP25       0.2266
     23  O         23.5310   24.6370   18.9010 O.2    25  ASP25      -0.2867
     24  CB        23.8970   27.4090   19.2510 C.3    25  ASP25       0.1410
     25  CG        22.7050   27.7650   18.4040 C.2    25  ASP25       0.3668
     26  OD1       21.6180   27.1660   18.5750 O.co2  25  ASP25      -0.2456
     27  OD2       22.8420   28.6780   17.5770 O.co2  25  ASP25      -0.2456
     28  N         20.3760   24.4820   18.4050 N.3    27  GLY27      -0.1210
     29  CA        19.7620   24.6570   17.0830 C.3    27  GLY27       0.1956
     30  C         20.7290   24.6850   15.9100 C.2    27  GLY27       0.2612
     31  O         20.2940   24.6300   14.7540 O.2    27  GLY27      -0.2717
     32  N         22.0300   24.7190   16.2030 N.am   28  ALA28      -0.1965
     33  CA        23.0700   24.8180   15.1840 C.3    28  ALA28       0.1728
     34  C         23.6920   23.4380   14.9150 C.2    28  ALA28       0.2616
     35  O         24.2410   22.8080   15.8150 O.2    28  ALA28      -0.2715
     36  CB        24.1290   25.7840   15.6470 C.3    28  ALA28       0.0334
     37  N         23.6480   22.9860   13.6650 N.am   29  ASP29      -0.1957
     38  CA        24.2380   21.7120   13.3120 C.3    29  ASP29       0.1840
     39  C         25.7470   21.7880   13.4480 C.2    29  ASP29       0.2622
     40  O         26.3970   20.8420   13.9080 O.2    29  ASP29      -0.2715
     41  CB        23.9360   21.3610   11.8570 C.3    29  ASP29       0.1450
     42  CG        22.4590   21.1330   11.5750 C.2    29  ASP29       0.3671
     43  OD1       21.6690   20.8610   12.5120 O.co2  29  ASP29      -0.2456
     44  OD2       22.0860   21.1900   10.3770 O.co2  29  ASP29      -0.2456
     45  N         26.2840   22.9130   12.9910 N.am   30  ASP30      -0.1971
     46  CA        27.7140   23.1370   12.9130 C.3    30  ASP30       0.1709
     47  C         28.1680   24.2700   13.8220 C.2    30  ASP30       0.2293
     48  O         27.3800   25.0950   14.2670 O.2    30  ASP30      -0.2864
     49  CB        28.0860   23.5100   11.4760 C.3    30  ASP30       0.1436
     50  CG        27.6220   22.4780   10.4590 C.2    30  ASP30       0.3671
     51  OD1       27.6920   21.2600   10.7410 O.co2  30  ASP30      -0.2456
     52  OD2       27.1900   22.8980    9.3710 O.co2  30  ASP30      -0.2456
     53  N         30.1240   27.7340   14.1640 N.3    32  VAL32      -0.1245
     54  CA        30.3580   28.8840   13.2810 C.3    32  VAL32       0.1561
     55  C         30.9160   30.0390   14.1040 C.2    32  VAL32       0.2260
     56  O         30.2390   30.5700   14.9800 O.2    32  VAL32      -0.2867
     57  CB        29.0410   29.3570   12.5690 C.3    32  VAL32       0.0252
     58  CG1       29.3700   30.3210   11.4270 C.3    32  VAL32       0.0019
     59  CG2       28.2530   28.1780   12.0590 C.3    32  VAL32       0.0019
     60  N         26.4290   27.7610    4.2890 N.3    47  ILE47      -0.1231
     61  CA        25.4440   27.2680    5.2590 C.3    47  ILE47       0.1692
     62  C         24.2650   28.2120    5.3360 C.2    47  ILE47       0.2593
     63  O         24.3900   29.3980    5.0420 O.2    47  ILE47      -0.2718
     64  CB        26.0470   27.0490    6.6740 C.3    47  ILE47       0.0266
     65  CG1       26.6240   28.3520    7.2550 C.3    47  ILE47       0.0019
     66  CG2       27.0740   25.9000    6.6360 C.3    47  ILE47       0.0020
     67  CD1       27.0050   28.2390    8.7540 C.3    47  ILE47       0.0001
     68  N         23.1210   27.6740    5.7340 N.am   48  GLY48      -0.1942
     69  CA        21.8770   28.4290    5.7460 C.3    48  GLY48       0.2014
     70  C         21.2650   28.4830    7.1230 C.2    48  GLY48       0.2639
     71  O         21.3360   27.5270    7.8910 O.2    48  GLY48      -0.2714
     72  N         20.6660   29.6240    7.4290 N.am   49  GLY49      -0.1939
     73  CA        19.9540   29.7990    8.6730 C.3    49  GLY49       0.2014
     74  C         18.6720   30.5350    8.4070 C.2    49  GLY49       0.2638
     75  O         18.1540   30.5380    7.2840 O.2    49  GLY49      -0.2714
     76  N         18.2000   31.2160    9.4440 N.am   50  ILE50      -0.1977
     77  CA        16.8820   31.7780    9.4330 C.3    50  ILE50       0.1596
     78  C         16.7280   32.8280    8.3560 C.2    50  ILE50       0.2287
     79  O         15.6540   32.9250    7.7550 O.2    50  ILE50      -0.2864
     80  CB        16.4890   32.3310   10.8310 C.3    50  ILE50       0.0276
     81  CG1       15.0370   31.9600   11.1470 C.3    50  ILE50       0.0022
     82  CG2       16.7500   33.8310   10.9210 C.3    50  ILE50       0.0022
     83  CD1       14.5670   32.4110   12.5160 C.3    50  ILE50       0.0001
     84  N         26.4520   36.2190   12.9650 N.3    81  PRO81      -0.2102
     85  CA        26.3010   37.3430   13.8860 C.3    81  PRO81       0.1504
     86  C         26.9150   37.1980   15.2770 C.2    81  PRO81       0.2575
     87  O         27.1670   38.2060   15.9200 O.2    81  PRO81      -0.2718
     88  CB        24.7860   37.4690   14.0050 C.3    81  PRO81       0.0282
     89  CG        24.2940   36.9250   12.6830 C.3    81  PRO81       0.0208
     90  CD        25.1380   35.7220   12.5210 C.3    81  PRO81       0.0893
     91  N         27.1370   35.9540   15.7140 N.am   82  VAL82      -0.1980
     92  CA        27.6550   35.6220   17.0460 C.3    82  VAL82       0.1595
     93  C         28.4830   34.3320   16.9160 C.2    82  VAL82       0.2287
     94  O         28.1970   33.5120   16.0460 O.2    82  VAL82      -0.2864
     95  CB        26.4930   35.3480   18.0420 C.3    82  VAL82       0.0276
     96  CG1       27.0250   34.8790   19.3910 C.3    82  VAL82       0.0022
     97  CG2       25.6100   36.5830   18.2110 C.3    82  VAL82       0.0022
     98  N         29.1780   30.6800   17.5260 N.3    84  ILE84      -0.1245
     99  CA        28.1990   29.6140   17.7980 C.3    84  ILE84       0.1561
    100  C         28.8860   28.2720   17.9590 C.2    84  ILE84       0.2260
    101  O         29.6230   27.8370   17.0750 O.2    84  ILE84      -0.2867
    102  CB        27.1730   29.5270   16.6180 C.3    84  ILE84       0.0252
    103  CG1       26.2260   30.7230   16.6680 C.3    84  ILE84       0.0019
    104  CG2       26.4110   28.2240   16.6200 C.3    84  ILE84       0.0019
    105  CD1       25.6740   31.0840   15.2980 C.3    84  ILE84       0.0001
@<TRIPOS>BOND
     1    60    61    1
     2    63    62    2
     3    61    62    1
     4    61    64    1
     5    62    68   am
     6    68    69    1
     7    69    70    1
     8    66    64    1
     9    64    65    1
    10    70    72   am
    11    70    71    2
    12    65    67    1
    13    75    74    2
    14    72    73    1
    15    79    78    2
    16    78    77    1
    17    74    73    1
    18    74    76   am
    19    52    50   ar
    20    77    76    1
    21    77    80    1
    22    44    42   ar
    23    50    51   ar
    24    50    49    1
    25    80    82    1
    26    80    81    1
    27    81    83    1
    28    58    57    1
    29    49    46    1
    30    42    41    1
    31    42    43   ar
    32    41    38    1
    33    59    57    1
    34    90    89    1
    35    90    84    1
    36    57    54    1
    37    89    88    1
    38    46    45    1
    39    46    47    1
    40    84    85    1
    41    45    39   am
    42    54    55    1
    43    54    53    1
    44    38    39    1
    45    38    37    1
    46    39    40    2
    47    37    34   am
    48    47    48    2
    49    85    88    1
    50    85    86    1
    51    55    56    2
    52    31    30    2
    53    34    33    1
    54    34    35    2
    55    33    36    1
    56    33    32    1
    57    86    91   am
    58    86    87    2
    59   105   103    1
    60    91    92    1
    61    30    32   am
    62    30    29    1
    63    94    93    2
    64   102   104    1
    65   102   103    1
    66   102    99    1
    67    93    92    1
    68    92    95    1
    69   101   100    2
    70    29    28    1
    71    98    99    1
    72    27    25   ar
    73    99   100    1
    74    95    97    1
    75    95    96    1
    76    25    26   ar
    77    25    24    1
    78    23    22    2
    79    24    21    1
    80    22    21    1
    81    21    20    1
    82    19    17    1
    83    15    14    2
    84    16    17    1
    85    16    13    1
    86    17    18    1
    87    11     9    1
    88    12    13    1
    89    14    13    1
    90     9     8    2
    91     9    10    1
    92     8     7    1
    93     7     6    1
    94     6     5    1
    95     5     2    1
    96     2     3    1
    97     2     1    1
    98     3     4    2
