@<TRIPOS>MOLECULE
tmp/3sa8B00.pdb
 121 113 0 0 0
SMALL
GASTEIGER

@<TRIPOS>ATOM
      1  N         19.3030   16.8100   15.1420 N.3     8  ARG8       -0.1245
      2  CA        18.6130   18.0490   15.5270 C.3     8  ARG8        0.1563
      3  C         17.5910   17.7360   16.6060 C.2     8  ARG8        0.2260
      4  O         16.8770   16.7440   16.4980 O.2     8  ARG8       -0.2867
      5  CB        17.9030   18.6850   14.3400 C.3     8  ARG8        0.0307
      6  CG        18.8700   19.2220   13.2850 C.3     8  ARG8        0.0489
      7  CD        18.1550   19.8870   12.1250 C.3     8  ARG8        0.2205
      8  NE        17.2960   18.9440   11.4210 N.pl3   8  ARG8       -0.0865
      9  CZ        16.2830   19.2820   10.6240 C.cat   8  ARG8        0.5346
     10  NH1       15.9380   20.5530   10.4180 N.pl3   8  ARG8        0.1354
     11  NH2       15.5800   18.3220   10.0450 N.pl3   8  ARG8        0.1354
     12  N         12.4550   22.8600   16.7870 N.3    23  LEU23      -0.1245
     13  CA        13.7720   22.6910   17.4080 C.3    23  LEU23       0.1561
     14  C         13.7680   23.2500   18.8120 C.2    23  LEU23       0.2260
     15  O         13.3590   24.3750   19.0260 O.2    23  LEU23      -0.2867
     16  CB        14.8810   23.4920   16.7210 C.3    23  LEU23       0.0270
     17  CG        15.3600   23.1390   15.3440 C.3    23  LEU23       0.0019
     18  CD1       16.2200   24.2860   14.8110 C.3    23  LEU23       0.0001
     19  CD2       16.1570   21.8640   15.4310 C.3    23  LEU23       0.0001
     20  N         15.8500   25.1270   20.9320 N.3    25  ASP25      -0.1239
     21  CA        16.9890   25.9420   20.4860 C.3    25  ASP25       0.1674
     22  C         17.4940   26.9380   21.5200 C.2    25  ASP25       0.2266
     23  O         16.9510   28.0380   21.7020 O.2    25  ASP25      -0.2867
     24  CB        16.6120   26.6950   19.2050 C.3    25  ASP25       0.1410
     25  CG        17.7960   27.3350   18.5510 C.2    25  ASP25       0.3668
     26  OD1       17.6360   27.8140   17.4140 O.co2  25  ASP25      -0.2456
     27  OD2       18.8960   27.3110   19.1410 O.co2  25  ASP25      -0.2456
     28  N         20.0820   28.6320   21.3640 N.3    27  GLY27      -0.1210
     29  CA        20.6360   29.8310   20.7350 C.3    27  GLY27       0.1956
     30  C         19.6230   30.8930   20.3370 C.2    27  GLY27       0.2612
     31  O         19.9880   31.9290   19.7980 O.2    27  GLY27      -0.2717
     32  N         18.3480   30.6040   20.5670 N.am   28  ALA28      -0.1965
     33  CA        17.2340   31.4720   20.1620 C.3    28  ALA28       0.1728
     34  C         16.6470   32.1770   21.3750 C.2    28  ALA28       0.2616
     35  O         16.1600   31.5190   22.2840 O.2    28  ALA28      -0.2715
     36  CB        16.1550   30.6520   19.5110 C.3    28  ALA28       0.0334
     37  N         16.6840   33.5060   21.4070 N.am   29  ASP29      -0.1957
     38  CA        16.0920   34.2340   22.5270 C.3    29  ASP29       0.1840
     39  C         14.5850   34.0440   22.5770 C.2    29  ASP29       0.2622
     40  O         13.9930   33.9050   23.6510 O.2    29  ASP29      -0.2715
     41  CB        16.3380   35.7350   22.3900 C.3    29  ASP29       0.1450
     42  CG        17.7960   36.1260   22.4790 C.2    29  ASP29       0.3671
     43  OD1       18.6080   35.3720   23.0490 O.co2  29  ASP29      -0.2456
     44  OD2       18.1250   37.2120   21.9640 O.co2  29  ASP29      -0.2456
     45  N         14.0100   34.0750   21.3870 N.am   30  ASP30      -0.1971
     46  CA        12.5740   34.0470   21.1650 C.3    30  ASP30       0.1709
     47  C         12.1670   32.8130   20.3600 C.2    30  ASP30       0.2293
     48  O         12.9710   32.1810   19.6720 O.2    30  ASP30      -0.2864
     49  CB        12.1220   35.3160   20.4240 C.3    30  ASP30       0.1436
     50  CG        12.4320   36.6270   21.1740 C.2    30  ASP30       0.3671
     51  OD1       12.6980   36.6320   22.3880 O.co2  30  ASP30      -0.2456
     52  OD2       12.3510   37.6930   20.5250 O.co2  30  ASP30      -0.2456
     53  N         10.1320   31.1830   17.3220 N.3    32  VAL32      -0.1245
     54  CA         9.8530   31.5820   15.9370 C.3    32  VAL32       0.1561
     55  C          9.1810   30.4360   15.2030 C.2    32  VAL32       0.2260
     56  O          9.7630   29.3650   15.0600 O.2    32  VAL32      -0.2867
     57  CB        11.1110   32.0500   15.1710 C.3    32  VAL32       0.0252
     58  CG1       10.6790   32.7480   13.8800 C.3    32  VAL32       0.0019
     59  CG2       11.9850   32.9630   16.0270 C.3    32  VAL32       0.0019
     60  N          7.8070   42.8880   13.8430 N.3    45  LYS45      -0.1245
     61  CA         9.1360   42.8310   14.4100 C.3    45  LYS45       0.1561
     62  C         10.0700   42.3030   13.3260 C.2    45  LYS45       0.2260
     63  O          9.6660   41.5990   12.4100 O.2    45  LYS45      -0.2867
     64  CB         9.1420   41.9000   15.6330 C.3    45  LYS45       0.0271
     65  CG        10.4050   41.8850   16.4550 C.3    45  LYS45       0.0035
     66  CD        10.2810   40.9260   17.6380 C.3    45  LYS45       0.0206
     67  CE        11.5520   40.8760   18.4510 C.3    45  LYS45       0.1093
     68  NZ        11.5570   41.9430   19.4760 N.3    45  LYS45      -0.1314
     69  N         13.6940   40.1470   13.1260 N.3    47  ILE47      -0.1231
     70  CA        14.7000   39.3650   13.8580 C.3    47  ILE47       0.1692
     71  C         15.7860   38.8890   12.9070 C.2    47  ILE47       0.2593
     72  O         15.5540   38.6820   11.7220 O.2    47  ILE47      -0.2718
     73  CB        14.1170   38.2060   14.6670 C.3    47  ILE47       0.0266
     74  CG1       13.4610   37.1890   13.7390 C.3    47  ILE47       0.0019
     75  CG2       13.1280   38.7420   15.7100 C.3    47  ILE47       0.0020
     76  CD1       13.0350   35.9050   14.4440 C.3    47  ILE47       0.0001
     77  N         16.9840   38.7940   13.4590 N.am   48  GLY48      -0.1942
     78  CA        18.1680   38.5480   12.6580 C.3    48  GLY48       0.2014
     79  C         18.9770   37.3630   13.1180 C.2    48  GLY48       0.2639
     80  O         19.1090   37.0510   14.2930 O.2    48  GLY48      -0.2714
     81  N         19.6080   36.7580   12.1360 N.am   49  GLY49      -0.1939
     82  CA        20.4860   35.6210   12.3820 C.3    49  GLY49       0.2014
     83  C         21.4710   35.4580   11.2400 C.2    49  GLY49       0.2638
     84  O         21.7790   36.4080   10.5210 O.2    49  GLY49      -0.2714
     85  N         21.9340   34.2310   11.0400 N.am   50  ILE50      -0.1977
     86  CA        22.8100   33.9610    9.9050 C.3    50  ILE50       0.1596
     87  C         22.0260   34.2180    8.6270 C.2    50  ILE50       0.2287
     88  O         20.9090   33.7360    8.4420 O.2    50  ILE50      -0.2864
     89  CB        23.3570   32.5290    9.9530 C.3    50  ILE50       0.0276
     90  CG1       24.4260   32.4110   11.0540 C.3    50  ILE50       0.0022
     91  CG2       23.9520   32.1210    8.6030 C.3    50  ILE50       0.0022
     92  CD1       24.7870   30.9870   11.4730 C.3    50  ILE50       0.0001
     93  N         10.2860   31.6780    8.6370 N.3    80  THR80      -0.1204
     94  CA        11.4010   30.8670    9.0950 C.3    80  THR80       0.1979
     95  C         11.3910   29.5150    8.3940 C.2    80  THR80       0.2460
     96  O         10.3340   28.9520    8.1360 O.2    80  THR80      -0.2732
     97  CB        11.4090   30.7160   10.6270 C.3    80  THR80       0.1783
     98  OG1       12.5040   29.8800   10.9940 O.3    80  THR80      -0.2211
     99  CG2       10.1140   30.1120   11.1610 C.3    80  THR80       0.0376
    100  N         12.5760   28.9730    8.0730 N.am   81  PRO81      -0.2717
    101  CA        12.6260   27.6370    7.4770 C.3    81  PRO81       0.1535
    102  C         12.3580   26.4790    8.4250 C.2    81  PRO81       0.2598
    103  O         12.1470   25.3470    8.0030 O.2    81  PRO81      -0.2715
    104  CB        14.0610   27.5460    6.9400 C.3    81  PRO81       0.0310
    105  CG        14.8430   28.5220    7.7120 C.3    81  PRO81       0.0237
    106  CD        13.8960   29.6220    8.1120 C.3    81  PRO81       0.0939
    107  N         12.4040   26.7740    9.7160 N.am   82  VAL82      -0.1978
    108  CA        12.2030   25.7630   10.7400 C.3    82  VAL82       0.1596
    109  C         11.5000   26.3860   11.9350 C.2    82  VAL82       0.2287
    110  O         11.6990   27.5590   12.2370 O.2    82  VAL82      -0.2864
    111  CB        13.5520   25.1510   11.1690 C.3    82  VAL82       0.0276
    112  CG1       14.4600   26.2240   11.7830 C.3    82  VAL82       0.0022
    113  CG2       13.3400   23.9800   12.1080 C.3    82  VAL82       0.0022
    114  N         11.1660   27.0510   15.7140 N.3    84  ILE84      -0.1245
    115  CA        12.2110   27.2650   16.7080 C.3    84  ILE84       0.1561
    116  C         11.5730   27.5560   18.0720 C.2    84  ILE84       0.2260
    117  O         10.8510   28.5650   18.1980 O.2    84  ILE84      -0.2867
    118  CB        13.1220   28.4340   16.3170 C.3    84  ILE84       0.0252
    119  CG1       13.8500   28.1410   14.9950 C.3    84  ILE84       0.0019
    120  CG2       14.1080   28.7710   17.4350 C.3    84  ILE84       0.0019
    121  CD1       14.4190   29.3380   14.3170 C.3    84  ILE84       0.0001
@<TRIPOS>BOND
     1   104   101    1
     2   104   105    1
     3   101   100    1
     4   101   102    1
     5   105   106    1
     6   103   102    2
     7   100   106    1
     8   100    95   am
     9    96    95    2
    10    95    94    1
    11   102   107   am
    12    88    87    2
    13    91    89    1
    14    87    86    1
    15    93    94    1
    16    94    97    1
    17   107   108    1
    18    86    89    1
    19    86    85    1
    20    89    90    1
    21    11     9    1
    22    10     9    1
    23    84    83    2
    24     9     8    2
    25    97    98    1
    26    97    99    1
    27   108   111    1
    28   108   109    1
    29    85    83   am
    30    90    92    1
    31   111   112    1
    32   111   113    1
    33    83    82    1
    34     8     7    1
    35    72    71    2
    36   109   110    2
    37     7     6    1
    38    81    82    1
    39    81    79   am
    40    63    62    2
    41    78    79    1
    42    78    77    1
    43    71    77   am
    44    71    70    1
    45    79    80    2
    46    69    70    1
    47     6     5    1
    48    62    61    1
    49    74    76    1
    50    74    73    1
    51    60    61    1
    52    70    73    1
    53    58    57    1
    54   121   119    1
    55     5     2    1
    56    61    64    1
    57    73    75    1
    58    18    17    1
    59   119   118    1
    60    56    55    2
    61     1     2    1
    62    57    54    1
    63    57    59    1
    64    55    54    1
    65    17    19    1
    66    17    16    1
    67     2     3    1
    68    64    65    1
    69   114   115    1
    70    54    53    1
    71   118   115    1
    72   118   120    1
    73    65    66    1
    74     4     3    2
    75   115   116    1
    76    16    13    1
    77    12    13    1
    78    13    14    1
    79    26    25   ar
    80    66    67    1
    81   116   117    2
    82    67    68    1
    83    25    27   ar
    84    25    24    1
    85    14    15    2
    86    24    21    1
    87    36    33    1
    88    48    47    2
    89    31    30    2
    90    33    32    1
    91    33    34    1
    92    30    32   am
    93    30    29    1
    94    47    46    1
    95    49    46    1
    96    49    50    1
    97    21    20    1
    98    21    22    1
    99    52    50   ar
   100    29    28    1
   101    46    45    1
   102    50    51   ar
   103    34    37   am
   104    34    35    2
   105    45    39   am
   106    37    38    1
   107    22    23    2
   108    44    42   ar
   109    41    42    1
   110    41    38    1
   111    42    43   ar
   112    38    39    1
   113    39    40    2
