@<TRIPOS>MOLECULE
tmp/3sa9B00.pdb
 121 113 0 0 0
SMALL
GASTEIGER

@<TRIPOS>ATOM
      1  N         19.4190   16.7560   15.1470 N.3     8  ARG8       -0.1245
      2  CA        18.6930   17.9530   15.5490 C.3     8  ARG8        0.1563
      3  C         17.6910   17.5910   16.6480 C.2     8  ARG8        0.2260
      4  O         16.9630   16.5910   16.5310 O.2     8  ARG8       -0.2867
      5  CB        17.9640   18.5550   14.3630 C.3     8  ARG8        0.0307
      6  CG        18.8850   19.1470   13.2950 C.3     8  ARG8        0.0489
      7  CD        18.0630   19.5880   12.0870 C.3     8  ARG8        0.2205
      8  NE        18.7830   20.4980   11.1930 N.pl3   8  ARG8       -0.0865
      9  CZ        19.0950   20.2640    9.9160 C.cat   8  ARG8        0.5346
     10  NH1       18.7840   19.1070    9.3160 N.pl3   8  ARG8        0.1354
     11  NH2       19.7240   21.2060    9.2150 N.pl3   8  ARG8        0.1354
     12  N         12.4770   22.6120   16.8380 N.3    23  LEU23      -0.1245
     13  CA        13.8260   22.5040   17.4020 C.3    23  LEU23       0.1561
     14  C         13.8620   23.1130   18.7950 C.2    23  LEU23       0.2260
     15  O         13.4430   24.2650   18.9740 O.2    23  LEU23      -0.2867
     16  CB        14.8210   23.3280   16.5890 C.3    23  LEU23       0.0270
     17  CG        15.5200   22.8740   15.3400 C.3    23  LEU23       0.0019
     18  CD1       16.3960   24.0440   14.8640 C.3    23  LEU23       0.0001
     19  CD2       16.3700   21.6750   15.6170 C.3    23  LEU23       0.0001
     20  N         15.9480   25.0140   20.8850 N.3    25  ASP25      -0.1239
     21  CA        17.0460   25.8410   20.4050 C.3    25  ASP25       0.1674
     22  C         17.5540   26.8530   21.4310 C.2    25  ASP25       0.2266
     23  O         17.0020   27.9520   21.5950 O.2    25  ASP25      -0.2867
     24  CB        16.6320   26.5750   19.1230 C.3    25  ASP25       0.1410
     25  CG        17.8010   27.2600   18.4440 C.2    25  ASP25       0.3668
     26  OD1       17.5950   27.7600   17.3260 O.co2  25  ASP25      -0.2456
     27  OD2       18.9190   27.2850   19.0260 O.co2  25  ASP25      -0.2456
     28  N         20.1180   28.6140   21.1970 N.3    27  GLY27      -0.1210
     29  CA        20.6930   29.7650   20.5130 C.3    27  GLY27       0.1956
     30  C         19.6670   30.8250   20.1190 C.2    27  GLY27       0.2612
     31  O         20.0450   31.9000   19.6520 O.2    27  GLY27      -0.2717
     32  N         18.3930   30.4960   20.3010 N.am   28  ALA28      -0.1965
     33  CA        17.2610   31.3610   19.9540 C.3    28  ALA28       0.1728
     34  C         16.7240   32.0920   21.1750 C.2    28  ALA28       0.2616
     35  O         16.2450   31.4470   22.1050 O.2    28  ALA28      -0.2715
     36  CB        16.1390   30.4910   19.3430 C.3    28  ALA28       0.0334
     37  N         16.7610   33.4240   21.1800 N.am   29  ASP29      -0.1957
     38  CA        16.1760   34.1730   22.3120 C.3    29  ASP29       0.1840
     39  C         14.6630   33.9670   22.3760 C.2    29  ASP29       0.2622
     40  O         14.0760   33.8340   23.4710 O.2    29  ASP29      -0.2715
     41  CB        16.4200   35.6790   22.1920 C.3    29  ASP29       0.1450
     42  CG        17.8890   36.0580   22.1630 C.2    29  ASP29       0.3671
     43  OD1       18.7580   35.2700   22.5940 O.co2  29  ASP29      -0.2456
     44  OD2       18.1720   37.1840   21.6940 O.co2  29  ASP29      -0.2456
     45  N         14.0460   33.9950   21.1960 N.am   30  ASP30      -0.1971
     46  CA        12.6070   33.9370   21.0450 C.3    30  ASP30       0.1709
     47  C         12.2070   32.6900   20.2590 C.2    30  ASP30       0.2293
     48  O         13.0460   32.0490   19.5890 O.2    30  ASP30      -0.2864
     49  CB        12.1120   35.1970   20.3160 C.3    30  ASP30       0.1436
     50  CG        12.4480   36.4960   21.0530 C.2    30  ASP30       0.3671
     51  OD1       12.8450   36.4620   22.2320 O.co2  30  ASP30      -0.2456
     52  OD2       12.2850   37.5770   20.4450 O.co2  30  ASP30      -0.2456
     53  N         10.1510   30.9960   17.2480 N.3    32  VAL32      -0.1245
     54  CA         9.8170   31.4120   15.8770 C.3    32  VAL32       0.1561
     55  C          9.1620   30.2490   15.1500 C.2    32  VAL32       0.2260
     56  O          9.7730   29.1960   14.9650 O.2    32  VAL32      -0.2867
     57  CB        11.0500   31.8670   15.0800 C.3    32  VAL32       0.0252
     58  CG1       10.6090   32.6190   13.7970 C.3    32  VAL32       0.0019
     59  CG2       11.9460   32.7310   15.9510 C.3    32  VAL32       0.0019
     60  N          7.7710   42.6600   13.7370 N.3    45  LYS45      -0.1245
     61  CA         9.1070   42.5630   14.2810 C.3    45  LYS45       0.1561
     62  C         10.0420   42.0520   13.1890 C.2    45  LYS45       0.2260
     63  O          9.6030   41.3960   12.2410 O.2    45  LYS45      -0.2867
     64  CB         9.1180   41.6030   15.4700 C.3    45  LYS45       0.0271
     65  CG        10.3800   41.6540   16.3350 C.3    45  LYS45       0.0035
     66  CD        10.2810   40.6530   17.4730 C.3    45  LYS45       0.0206
     67  CE        11.5450   40.5760   18.2770 C.3    45  LYS45       0.1093
     68  NZ        11.6560   41.7450   19.1720 N.3    45  LYS45      -0.1314
     69  N         13.7030   39.8820   12.9800 N.3    47  ILE47      -0.1231
     70  CA        14.6780   39.1000   13.7400 C.3    47  ILE47       0.1692
     71  C         15.7820   38.6660   12.7840 C.2    47  ILE47       0.2593
     72  O         15.5450   38.5070   11.5800 O.2    47  ILE47      -0.2718
     73  CB        14.0580   37.8900   14.4840 C.3    47  ILE47       0.0266
     74  CG1       13.3220   36.9490   13.5240 C.3    47  ILE47       0.0019
     75  CG2       13.1420   38.3770   15.5950 C.3    47  ILE47       0.0020
     76  CD1       13.0750   35.5450   14.0980 C.3    47  ILE47       0.0001
     77  N         16.9850   38.5170   13.3300 N.am   48  GLY48      -0.1942
     78  CA        18.1690   38.3490   12.5160 C.3    48  GLY48       0.2014
     79  C         18.9280   37.0990   12.8700 C.2    48  GLY48       0.2639
     80  O         19.0720   36.7340   14.0390 O.2    48  GLY48      -0.2714
     81  N         19.4120   36.4230   11.8480 N.am   49  GLY49      -0.1939
     82  CA        20.3330   35.3160   12.0710 C.3    49  GLY49       0.2014
     83  C         21.3110   35.1880   10.9280 C.2    49  GLY49       0.2638
     84  O         21.6680   36.1680   10.2810 O.2    49  GLY49      -0.2714
     85  N         21.7620   33.9640   10.6950 N.am   50  ILE50      -0.1977
     86  CA        22.6490   33.6980    9.5870 C.3    50  ILE50       0.1596
     87  C         21.9130   34.0960    8.3130 C.2    50  ILE50       0.2287
     88  O         20.7680   33.6970    8.1070 O.2    50  ILE50      -0.2864
     89  CB        23.0330   32.2140    9.5250 C.3    50  ILE50       0.0276
     90  CG1       23.9000   31.8210   10.7310 C.3    50  ILE50       0.0022
     91  CG2       23.7570   31.9110    8.2370 C.3    50  ILE50       0.0022
     92  CD1       25.2830   32.4080   10.7530 C.3    50  ILE50       0.0001
     93  N         10.3410   31.3320    8.4820 N.3    80  THR80      -0.1204
     94  CA        11.4360   30.4930    8.9230 C.3    80  THR80       0.1979
     95  C         11.3160   29.1180    8.2640 C.2    80  THR80       0.2460
     96  O         10.2050   28.6100    8.0660 O.2    80  THR80      -0.2732
     97  CB        11.4400   30.3390   10.4600 C.3    80  THR80       0.1783
     98  OG1       12.4720   29.4180   10.8420 O.3    80  THR80      -0.2211
     99  CG2       10.0910   29.8010   10.9790 C.3    80  THR80       0.0376
    100  N         12.4560   28.5050    7.9260 N.am   81  PRO81      -0.2717
    101  CA        12.4590   27.1330    7.4040 C.3    81  PRO81       0.1535
    102  C         12.1740   26.0320    8.4220 C.2    81  PRO81       0.2598
    103  O         11.9060   24.8910    8.0290 O.2    81  PRO81      -0.2715
    104  CB        13.8930   26.9720    6.8750 C.3    81  PRO81       0.0310
    105  CG        14.6970   27.8820    7.7110 C.3    81  PRO81       0.0237
    106  CD        13.8160   29.0740    7.9710 C.3    81  PRO81       0.0939
    107  N         12.2710   26.3600    9.7080 N.am   82  VAL82      -0.1978
    108  CA        12.0650   25.3910   10.7750 C.3    82  VAL82       0.1596
    109  C         11.3580   26.0700   11.9320 C.2    82  VAL82       0.2287
    110  O         11.5310   27.2700   12.1610 O.2    82  VAL82      -0.2864
    111  CB        13.4080   24.8050   11.2800 C.3    82  VAL82       0.0276
    112  CG1       14.1440   24.0980   10.1570 C.3    82  VAL82       0.0022
    113  CG2       14.2750   25.9050   11.8970 C.3    82  VAL82       0.0022
    114  N         11.1020   26.8670   15.7040 N.3    84  ILE84      -0.1245
    115  CA        12.1720   27.0920   16.6600 C.3    84  ILE84       0.1561
    116  C         11.5750   27.4070   18.0420 C.2    84  ILE84       0.2260
    117  O         10.8640   28.4060   18.1970 O.2    84  ILE84      -0.2867
    118  CB        13.0810   28.2700   16.2100 C.3    84  ILE84       0.0252
    119  CG1       13.8360   27.9100   14.9260 C.3    84  ILE84       0.0019
    120  CG2       14.0670   28.6510   17.3140 C.3    84  ILE84       0.0019
    121  CD1       14.4520   29.0690   14.2110 C.3    84  ILE84       0.0001
@<TRIPOS>BOND
     1   104   101    1
     2   104   105    1
     3   101   100    1
     4   101   102    1
     5   105   106    1
     6   100   106    1
     7   100    95   am
     8   103   102    2
     9    96    95    2
    10    88    87    2
    11    91    89    1
    12    95    94    1
    13    87    86    1
    14   102   107   am
    15    93    94    1
    16    94    97    1
    17    11     9    1
    18    10     9    1
    19    89    86    1
    20    89    90    1
    21    86    85    1
    22   107   108    1
    23     9     8    2
    24   112   111    1
    25    84    83    2
    26    97    98    1
    27    97    99    1
    28    85    83   am
    29    90    92    1
    30   108   111    1
    31   108   109    1
    32    83    82    1
    33     8     7    1
    34   111   113    1
    35    72    71    2
    36    81    82    1
    37    81    79   am
    38   109   110    2
    39     7     6    1
    40    63    62    2
    41    78    79    1
    42    78    77    1
    43    71    77   am
    44    71    70    1
    45    79    80    2
    46    69    70    1
    47    62    61    1
    48     6     5    1
    49    74    76    1
    50    74    73    1
    51    60    61    1
    52    70    73    1
    53    58    57    1
    54   121   119    1
    55    61    64    1
    56     5     2    1
    57    73    75    1
    58    18    17    1
    59   119   118    1
    60    56    55    2
    61    57    54    1
    62    57    59    1
    63     1     2    1
    64    55    54    1
    65    17    19    1
    66    17    16    1
    67    64    65    1
    68     2     3    1
    69   114   115    1
    70    54    53    1
    71   118   115    1
    72   118   120    1
    73    65    66    1
    74     4     3    2
    75    16    13    1
    76   115   116    1
    77    12    13    1
    78    26    25   ar
    79    13    14    1
    80    66    67    1
    81   116   117    2
    82    67    68    1
    83    25    27   ar
    84    25    24    1
    85    14    15    2
    86    24    21    1
    87    36    33    1
    88    48    47    2
    89    31    30    2
    90    33    32    1
    91    33    34    1
    92    30    32   am
    93    30    29    1
    94    47    46    1
    95    49    46    1
    96    49    50    1
    97    21    20    1
    98    21    22    1
    99    52    50   ar
   100    29    28    1
   101    46    45    1
   102    50    51   ar
   103    34    37   am
   104    34    35    2
   105    37    38    1
   106    45    39   am
   107    22    23    2
   108    44    42   ar
   109    42    41    1
   110    42    43   ar
   111    41    38    1
   112    38    39    1
   113    39    40    2
