@<TRIPOS>MOLECULE
tmp/3saaB00.pdb
 129 120 0 0 0
SMALL
GASTEIGER

@<TRIPOS>ATOM
      1  N         -6.0690   12.1020  -15.0520 N.3     8  ARG8       -0.1245
      2  CA        -6.7650   10.8770  -15.4540 C.3     8  ARG8        0.1563
      3  C         -7.7990   11.1970  -16.5420 C.2     8  ARG8        0.2260
      4  O         -8.5570   12.1590  -16.4040 O.2     8  ARG8       -0.2867
      5  CB        -7.3960   10.2140  -14.2270 C.3     8  ARG8        0.0307
      6  CG        -6.3580    9.8420  -13.1630 C.3     8  ARG8        0.0489
      7  CD        -6.7900    8.8460  -12.0820 C.3     8  ARG8        0.2205
      8  NE        -8.2240    8.8510  -11.8270 N.pl3   8  ARG8       -0.0865
      9  CZ        -8.8900    7.8800  -11.1950 C.cat   8  ARG8        0.5346
     10  NH1       -8.2690    6.7890  -10.7250 N.pl3   8  ARG8        0.1354
     11  NH2      -10.2080    8.0090  -11.0380 N.pl3   8  ARG8        0.1354
     12  N        -13.0160    6.2070  -16.7780 N.3    23  LEU23      -0.1245
     13  CA       -11.6700    6.2870  -17.3520 C.3    23  LEU23       0.1561
     14  C        -11.6260    5.7090  -18.7650 C.2    23  LEU23       0.2260
     15  O        -12.0710    4.5780  -19.0000 O.2    23  LEU23      -0.2867
     16  CB       -10.7550    5.4540  -16.4540 C.3    23  LEU23       0.0270
     17  CG        -9.3450    5.7820  -16.0100 C.3    23  LEU23       0.0019
     18  CD1       -9.1100    7.2130  -15.5990 C.3    23  LEU23       0.0001
     19  CD2       -9.0620    4.7920  -14.8580 C.3    23  LEU23       0.0001
     20  N         -9.5610    3.8360  -20.8950 N.3    25  ASP25      -0.1239
     21  CA        -8.4580    3.0130  -20.4230 C.3    25  ASP25       0.1674
     22  C         -7.9980    2.0090  -21.4910 C.2    25  ASP25       0.2266
     23  O         -8.5800    0.9240  -21.6590 O.2    25  ASP25      -0.2867
     24  CB        -8.8330    2.3300  -19.1060 C.3    25  ASP25       0.1410
     25  CG        -7.6470    1.6020  -18.4790 C.2    25  ASP25       0.3668
     26  OD1       -7.8230    1.0390  -17.3900 O.co2  25  ASP25      -0.2456
     27  OD2       -6.5240    1.6690  -19.0410 O.co2  25  ASP25      -0.2456
     28  N         -5.4400    0.1950  -21.3560 N.3    27  GLY27      -0.1210
     29  CA        -4.8750   -0.9990  -20.7360 C.3    27  GLY27       0.1956
     30  C         -5.8920   -2.0410  -20.3070 C.2    27  GLY27       0.2612
     31  O         -5.5130   -3.1030  -19.8020 O.2    27  GLY27      -0.2717
     32  N         -7.1710   -1.7180  -20.4750 N.am   28  ALA28      -0.1965
     33  CA        -8.2800   -2.5640  -20.0740 C.3    28  ALA28       0.1728
     34  C         -8.8660   -3.2560  -21.3140 C.2    28  ALA28       0.2616
     35  O         -9.3190   -2.5760  -22.2270 O.2    28  ALA28      -0.2715
     36  CB        -9.3340   -1.7230  -19.3870 C.3    28  ALA28       0.0334
     37  N         -8.8410   -4.5890  -21.3630 N.am   29  ASP29      -0.1957
     38  CA        -9.4180   -5.2980  -22.5250 C.3    29  ASP29       0.1840
     39  C        -10.9260   -5.0480  -22.5910 C.2    29  ASP29       0.2622
     40  O        -11.5170   -4.8810  -23.6680 O.2    29  ASP29      -0.2715
     41  CB        -9.1980   -6.8220  -22.4460 C.3    29  ASP29       0.1450
     42  CG        -7.7290   -7.2370  -22.3890 C.2    29  ASP29       0.3671
     43  OD1       -6.8280   -6.5020  -22.8430 O.co2  29  ASP29      -0.2456
     44  OD2       -7.4720   -8.3540  -21.8870 O.co2  29  ASP29      -0.2456
     45  N        -11.5370   -5.0160  -21.4100 N.am   30  ASP30      -0.1971
     46  CA       -12.9850   -4.9560  -21.2620 C.3    30  ASP30       0.1709
     47  C        -13.4140   -3.8120  -20.3540 C.2    30  ASP30       0.2293
     48  O        -12.6020   -3.1760  -19.6680 O.2    30  ASP30      -0.2864
     49  CB       -13.4920   -6.2930  -20.7100 C.3    30  ASP30       0.1436
     50  CG       -13.4480   -7.4070  -21.7490 C.2    30  ASP30       0.3671
     51  OD1      -13.7880   -7.1640  -22.9350 O.co2  30  ASP30      -0.2456
     52  OD2      -13.1000   -8.5410  -21.3610 O.co2  30  ASP30      -0.2456
     53  N        -15.3670   -2.2230  -17.2770 N.3    32  VAL32      -0.1245
     54  CA       -15.6850   -2.6170  -15.9120 C.3    32  VAL32       0.1561
     55  C        -16.3620   -1.4440  -15.2180 C.2    32  VAL32       0.2260
     56  O        -15.7900   -0.3410  -15.1010 O.2    32  VAL32      -0.2867
     57  CB       -14.4500   -3.0610  -15.1020 C.3    32  VAL32       0.0252
     58  CG1      -14.8910   -3.7890  -13.8160 C.3    32  VAL32       0.0019
     59  CG2      -13.5260   -3.9710  -15.9220 C.3    32  VAL32       0.0019
     60  N        -17.6790  -14.0320  -13.7630 N.3    45  LYS45      -0.1245
     61  CA       -16.3460  -13.9980  -14.3370 C.3    45  LYS45       0.1561
     62  C        -15.3710  -13.4800  -13.2690 C.2    45  LYS45       0.2260
     63  O        -15.7640  -12.8320  -12.3120 O.2    45  LYS45      -0.2867
     64  CB       -16.3620  -13.0580  -15.5420 C.3    45  LYS45       0.0271
     65  CG       -15.0930  -13.0270  -16.3540 C.3    45  LYS45       0.0035
     66  CD       -15.2670  -12.1580  -17.5920 C.3    45  LYS45       0.0206
     67  CE       -14.0850  -12.3550  -18.5260 C.3    45  LYS45       0.1093
     68  NZ       -14.5950  -12.7810  -19.8510 N.3    45  LYS45      -0.1314
     69  N        -11.6860  -11.2700  -13.0950 N.3    47  ILE47      -0.1231
     70  CA       -10.7350  -10.4730  -13.8660 C.3    47  ILE47       0.1692
     71  C         -9.5950  -10.0230  -12.9670 C.2    47  ILE47       0.2593
     72  O         -9.7720   -9.7720  -11.7690 O.2    47  ILE47      -0.2718
     73  CB       -11.3870   -9.2900  -14.6300 C.3    47  ILE47       0.0266
     74  CG1      -12.0070   -8.2590  -13.6700 C.3    47  ILE47       0.0019
     75  CG2      -12.4310   -9.8100  -15.6490 C.3    47  ILE47       0.0020
     76  CD1      -12.4790   -6.9460  -14.3820 C.3    47  ILE47       0.0001
     77  N         -8.4050   -9.9750  -13.5590 N.am   48  GLY48      -0.1942
     78  CA        -7.1940   -9.7540  -12.7970 C.3    48  GLY48       0.2014
     79  C         -6.4750   -8.4730  -13.1810 C.2    48  GLY48       0.2639
     80  O         -6.4320   -8.0980  -14.3390 O.2    48  GLY48      -0.2714
     81  N         -5.8550   -7.8420  -12.1960 N.am   49  GLY49      -0.1939
     82  CA        -4.9790   -6.7130  -12.4430 C.3    49  GLY49       0.2014
     83  C         -3.9970   -6.5790  -11.3040 C.2    49  GLY49       0.2638
     84  O         -3.6990   -7.5640  -10.6470 O.2    49  GLY49      -0.2714
     85  N         -3.5020   -5.3650  -11.0800 N.am   50  ILE50      -0.1977
     86  CA        -2.5870   -5.0950   -9.9840 C.3    50  ILE50       0.1596
     87  C         -3.3310   -5.3940   -8.6800 C.2    50  ILE50       0.2287
     88  O         -4.4690   -4.9500   -8.4860 O.2    50  ILE50      -0.2864
     89  CB        -2.0080   -3.6500  -10.0310 C.3    50  ILE50       0.0276
     90  CG1       -0.8600   -3.5760  -11.0510 C.3    50  ILE50       0.0022
     91  CG2       -1.4830   -3.2180   -8.6600 C.3    50  ILE50       0.0022
     92  CD1       -0.5590   -2.1820  -11.5530 C.3    50  ILE50       0.0001
     93  N        -18.8040   -5.3940  -17.6870 N.3    76  LEU76      -0.1245
     94  CA       -18.4980   -6.2040  -16.5240 C.3    76  LEU76       0.1561
     95  C        -18.8120   -5.3670  -15.3020 C.2    76  LEU76       0.2260
     96  O        -18.3930   -4.2180  -15.2140 O.2    76  LEU76      -0.2867
     97  CB       -17.0240   -6.6470  -16.5240 C.3    76  LEU76       0.0270
     98  CG       -16.5610   -7.4080  -17.7730 C.3    76  LEU76       0.0019
     99  CD1      -15.0620   -7.7550  -17.6920 C.3    76  LEU76       0.0001
    100  CD2      -17.3820   -8.6960  -17.9610 C.3    76  LEU76       0.0001
    101  N        -15.0960   -2.7280   -8.5130 N.3    80  THR80      -0.1204
    102  CA       -13.9780   -1.9250   -8.9670 C.3    80  THR80       0.1979
    103  C        -13.9840   -0.5570   -8.2670 C.2    80  THR80       0.2460
    104  O        -15.0340    0.0050   -7.9830 O.2    80  THR80      -0.2732
    105  CB       -14.0290   -1.7670  -10.4950 C.3    80  THR80       0.1783
    106  OG1      -12.9460   -0.9350  -10.9240 O.3    80  THR80      -0.2211
    107  CG2      -15.3930   -1.1450  -10.9270 C.3    80  THR80       0.0376
    108  N        -12.7940   -0.0080   -7.9680 N.am   81  PRO81      -0.2717
    109  CA       -12.7700    1.3330   -7.3740 C.3    81  PRO81       0.1535
    110  C        -13.0890    2.4700   -8.3450 C.2    81  PRO81       0.2598
    111  O        -13.3520    3.5980   -7.9200 O.2    81  PRO81      -0.2715
    112  CB       -11.3280    1.4810   -6.8440 C.3    81  PRO81       0.0310
    113  CG       -10.5310    0.3810   -7.4620 C.3    81  PRO81       0.0237
    114  CD       -11.4820   -0.6740   -7.9540 C.3    81  PRO81       0.0939
    115  N        -13.0350    2.1790   -9.6390 N.am   82  VAL82      -0.1978
    116  CA       -13.2080    3.1920  -10.6610 C.3    82  VAL82       0.1596
    117  C        -13.9250    2.5860  -11.8650 C.2    82  VAL82       0.2287
    118  O        -13.6990    1.4230  -12.2150 O.2    82  VAL82      -0.2864
    119  CB       -11.8270    3.7510  -11.0830 C.3    82  VAL82       0.0276
    120  CG1      -10.9600    2.6460  -11.6960 C.3    82  VAL82       0.0022
    121  CG2      -11.9930    4.9190  -12.0350 C.3    82  VAL82       0.0022
    122  N        -14.3490    1.9460  -15.6720 N.3    84  ILE84      -0.1245
    123  CA       -13.2800    1.7200  -16.6460 C.3    84  ILE84       0.1561
    124  C        -13.9050    1.4380  -18.0150 C.2    84  ILE84       0.2260
    125  O        -14.6190    0.4370  -18.1880 O.2    84  ILE84      -0.2867
    126  CB       -12.3820    0.5320  -16.2380 C.3    84  ILE84       0.0252
    127  CG1      -11.5430    0.8350  -14.9940 C.3    84  ILE84       0.0019
    128  CG2      -11.4150    0.1180  -17.3620 C.3    84  ILE84       0.0019
    129  CD1      -11.0530   -0.4300  -14.3020 C.3    84  ILE84       0.0001
@<TRIPOS>BOND
     1    40    39    2
     2    51    50   ar
     3    43    42   ar
     4    39    38    1
     5    39    45   am
     6    38    41    1
     7    38    37    1
     8    41    42    1
     9    42    44   ar
    10    35    34    2
    11    50    52   ar
    12    50    49    1
    13    23    22    2
    14    22    21    1
    15    45    46    1
    16    37    34   am
    17    28    29    1
    18    34    33    1
    19    46    49    1
    20    46    47    1
    21    20    21    1
    22    29    30    1
    23    32    30   am
    24    32    33    1
    25    21    24    1
    26    47    48    2
    27    30    31    2
    28    33    36    1
    29    68    67    1
    30    24    25    1
    31    27    25   ar
    32    15    14    2
    33    14    13    1
    34    67    66    1
    35    25    26   ar
    36   125   124    2
    37   124   123    1
    38   100    98    1
    39    98    99    1
    40    98    97    1
    41    93    94    1
    42    66    65    1
    43   128   126    1
    44    13    12    1
    45    13    16    1
    46    53    54    1
    47   123   126    1
    48   123   122    1
    49     3     4    2
    50     3     2    1
    51    94    97    1
    52    94    95    1
    53    16    17    1
    54    65    64    1
    55   126   127    1
    56    17    18    1
    57    17    19    1
    58    59    57    1
    59    54    55    1
    60    54    57    1
    61    75    73    1
    62    64    61    1
    63     2     1    1
    64     2     5    1
    65    95    96    2
    66    55    56    2
    67    57    58    1
    68   127   129    1
    69    73    70    1
    70    73    74    1
    71    76    74    1
    72    80    79    2
    73    61    60    1
    74    61    62    1
    75     5     6    1
    76    70    69    1
    77    70    71    1
    78    77    71   am
    79    77    78    1
    80    62    63    2
    81    79    78    1
    82    79    81   am
    83     6     7    1
    84    71    72    2
    85    82    81    1
    86    82    83    1
    87   118   117    2
    88     7     8    1
    89   121   119    1
    90   117   116    1
    91     8     9    2
    92   120   119    1
    93    92    90    1
    94    83    85   am
    95    83    84    2
    96     9    11    1
    97     9    10    1
    98   119   116    1
    99    85    86    1
   100    90    89    1
   101   107   105    1
   102   106   105    1
   103   116   115    1
   104   105   102    1
   105    89    86    1
   106    89    91    1
   107    86    87    1
   108   115   110   am
   109   102   101    1
   110   102   103    1
   111    87    88    2
   112   110   111    2
   113   110   109    1
   114   103   104    2
   115   103   108   am
   116   108   114    1
   117   108   109    1
   118   114   113    1
   119   113   112    1
   120   109   112    1
