@<TRIPOS>MOLECULE
tmp/3sabB00.pdb
 121 113 0 0 0
SMALL
GASTEIGER

@<TRIPOS>ATOM
      1  N         19.3920   16.9300   15.1510 N.3     8  ARG8       -0.1245
      2  CA        18.6540   18.1330   15.5370 C.3     8  ARG8        0.1563
      3  C         17.6320   17.7940   16.6270 C.2     8  ARG8        0.2260
      4  O         16.9130   16.8010   16.5000 O.2     8  ARG8       -0.2867
      5  CB        17.9410   18.7320   14.3340 C.3     8  ARG8        0.0307
      6  CG        18.8880   19.3640   13.3320 C.3     8  ARG8        0.0489
      7  CD        18.2330   19.6960   12.0180 C.3     8  ARG8        0.2205
      8  NE        19.2680   20.0620   11.0470 N.pl3   8  ARG8       -0.0865
      9  CZ        19.2410   19.8110    9.7410 C.cat   8  ARG8        0.5346
     10  NH1       18.2190   19.1760    9.1720 N.pl3   8  ARG8        0.1354
     11  NH2       20.2660   20.1950    8.9900 N.pl3   8  ARG8        0.1354
     12  N         12.3590   22.9320   16.7270 N.3    23  LEU23      -0.1245
     13  CA        13.7260   22.7630   17.1880 C.3    23  LEU23       0.1561
     14  C         13.8530   23.3720   18.5860 C.2    23  LEU23       0.2260
     15  O         13.5130   24.5420   18.7800 O.2    23  LEU23      -0.2867
     16  CB        14.6350   23.5110   16.2080 C.3    23  LEU23       0.0270
     17  CG        16.1260   23.3160   16.0780 C.3    23  LEU23       0.0019
     18  CD1       16.4130   21.9180   15.6940 C.3    23  LEU23       0.0001
     19  CD2       16.6210   24.2640   14.9930 C.3    23  LEU23       0.0001
     20  N         15.9040   25.2670   20.7790 N.3    25  ASP25      -0.1239
     21  CA        17.0160   26.0760   20.3160 C.3    25  ASP25       0.1674
     22  C         17.5050   27.0560   21.3670 C.2    25  ASP25       0.2266
     23  O         16.9610   28.1650   21.5520 O.2    25  ASP25      -0.2867
     24  CB        16.6040   26.8050   19.0440 C.3    25  ASP25       0.1410
     25  CG        17.7400   27.5000   18.3830 C.2    25  ASP25       0.3668
     26  OD1       17.5220   27.9260   17.2330 O.co2  25  ASP25      -0.2456
     27  OD2       18.8420   27.5670   18.9800 O.co2  25  ASP25      -0.2456
     28  N         20.0650   28.8440   21.2880 N.3    27  GLY27      -0.1210
     29  CA        20.6360   30.0570   20.7070 C.3    27  GLY27       0.1956
     30  C         19.6070   31.0750   20.2310 C.2    27  GLY27       0.2612
     31  O         19.9830   32.1200   19.6720 O.2    27  GLY27      -0.2717
     32  N         18.3280   30.7520   20.4250 N.am   28  ALA28      -0.1965
     33  CA        17.2190   31.6290   20.0290 C.3    28  ALA28       0.1728
     34  C         16.6270   32.3100   21.2590 C.2    28  ALA28       0.2616
     35  O         16.1680   31.6470   22.1940 O.2    28  ALA28      -0.2715
     36  CB        16.1480   30.8120   19.3420 C.3    28  ALA28       0.0334
     37  N         16.6530   33.6400   21.2920 N.am   29  ASP29      -0.1957
     38  CA        16.0440   34.3640   22.4060 C.3    29  ASP29       0.1840
     39  C         14.5300   34.1210   22.4020 C.2    29  ASP29       0.2622
     40  O         13.9010   34.0070   23.4650 O.2    29  ASP29      -0.2715
     41  CB        16.2740   35.8680   22.2850 C.3    29  ASP29       0.1450
     42  CG        17.7340   36.2620   22.2860 C.2    29  ASP29       0.3671
     43  OD1       18.5910   35.5290   22.8470 O.co2  29  ASP29      -0.2456
     44  OD2       18.0210   37.3580   21.7480 O.co2  29  ASP29      -0.2456
     45  N         13.9630   34.1160   21.1970 N.am   30  ASP30      -0.1971
     46  CA        12.5240   34.1330   20.9640 C.3    30  ASP30       0.1709
     47  C         12.1100   32.8720   20.1990 C.2    30  ASP30       0.2293
     48  O         12.9310   32.1980   19.5890 O.2    30  ASP30      -0.2864
     49  CB        12.1410   35.4220   20.1960 C.3    30  ASP30       0.1436
     50  CG        12.4560   36.7180   20.9740 C.2    30  ASP30       0.3671
     51  OD1       12.5840   36.6920   22.2130 O.co2  30  ASP30      -0.2456
     52  OD2       12.5710   37.7810   20.3390 O.co2  30  ASP30      -0.2456
     53  N         10.1450   31.2770   17.1200 N.3    32  VAL32      -0.1245
     54  CA         9.8450   31.7190   15.7570 C.3    32  VAL32       0.1561
     55  C          9.2210   30.5510   14.9980 C.2    32  VAL32       0.2260
     56  O          9.8330   29.4850   14.8410 O.2    32  VAL32      -0.2867
     57  CB        11.0920   32.2360   14.9800 C.3    32  VAL32       0.0252
     58  CG1       10.6420   32.9670   13.7090 C.3    32  VAL32       0.0019
     59  CG2       11.9680   33.1470   15.8510 C.3    32  VAL32       0.0019
     60  N          7.7690   43.0730   13.6350 N.3    45  LYS45      -0.1245
     61  CA         9.0800   43.0230   14.2330 C.3    45  LYS45       0.1561
     62  C         10.0600   42.4980   13.1880 C.2    45  LYS45       0.2260
     63  O          9.6890   41.7450   12.3000 O.2    45  LYS45      -0.2867
     64  CB         9.0370   42.0470   15.4180 C.3    45  LYS45       0.0271
     65  CG        10.2420   42.0600   16.3010 C.3    45  LYS45       0.0035
     66  CD        10.1150   41.0280   17.4180 C.3    45  LYS45       0.0206
     67  CE        11.3210   41.0600   18.3360 C.3    45  LYS45       0.1093
     68  NZ        11.0620   41.9780   19.4750 N.3    45  LYS45      -0.1314
     69  N         13.6990   40.3190   13.0930 N.3    47  ILE47      -0.1231
     70  CA        14.6590   39.5530   13.8730 C.3    47  ILE47       0.1692
     71  C         15.8120   39.1240   12.9910 C.2    47  ILE47       0.2593
     72  O         15.6350   38.8270   11.8050 O.2    47  ILE47      -0.2718
     73  CB        14.0300   38.3440   14.5730 C.3    47  ILE47       0.0266
     74  CG1       13.3910   37.3960   13.5570 C.3    47  ILE47       0.0019
     75  CG2       13.0100   38.8200   15.6040 C.3    47  ILE47       0.0020
     76  CD1       12.9470   36.0710   14.1830 C.3    47  ILE47       0.0001
     77  N         16.9860   39.1300   13.5990 N.am   48  GLY48      -0.1942
     78  CA        18.2230   38.9030   12.8970 C.3    48  GLY48       0.2014
     79  C         18.8300   37.5590   13.2450 C.2    48  GLY48       0.2639
     80  O         18.8340   37.1250   14.4060 O.2    48  GLY48      -0.2714
     81  N         19.3520   36.9070   12.2160 N.am   49  GLY49      -0.1939
     82  CA        20.0260   35.6280   12.3660 C.3    49  GLY49       0.2014
     83  C         21.2220   35.5990   11.4410 C.2    49  GLY49       0.2638
     84  O         21.6560   36.6380   10.9290 O.2    49  GLY49      -0.2714
     85  N         21.7690   34.4100   11.2260 N.am   50  ILE50      -0.1977
     86  CA        22.7810   34.2410   10.2070 C.3    50  ILE50       0.1596
     87  C         22.1120   34.5380    8.8710 C.2    50  ILE50       0.2287
     88  O         21.0030   34.0700    8.6000 O.2    50  ILE50      -0.2864
     89  CB        23.3710   32.8130   10.2310 C.3    50  ILE50       0.0276
     90  CG1       24.4410   32.7130   11.3170 C.3    50  ILE50       0.0022
     91  CG2       24.0340   32.4610    8.8930 C.3    50  ILE50       0.0022
     92  CD1       25.0450   31.3210   11.4730 C.3    50  ILE50       0.0001
     93  N         10.4190   31.6530    8.5020 N.3    80  THR80      -0.1204
     94  CA        11.5440   30.8490    8.9570 C.3    80  THR80       0.1979
     95  C         11.4700   29.4810    8.2700 C.2    80  THR80       0.2460
     96  O         10.3800   28.9540    8.0460 O.2    80  THR80      -0.2732
     97  CB        11.5700   30.6890   10.4890 C.3    80  THR80       0.1783
     98  OG1       12.6130   29.7840   10.8380 O.3    80  THR80      -0.2211
     99  CG2       10.2480   30.1270   11.0370 C.3    80  THR80       0.0376
    100  N         12.6310   28.9020    7.9220 N.am   81  PRO81      -0.2717
    101  CA        12.6240   27.5620    7.3370 C.3    81  PRO81       0.1535
    102  C         12.2890   26.4390    8.3280 C.2    81  PRO81       0.2598
    103  O         11.9260   25.3360    7.9070 O.2    81  PRO81      -0.2715
    104  CB        14.0500   27.3940    6.7980 C.3    81  PRO81       0.0310
    105  CG        14.8740   28.4500    7.4310 C.3    81  PRO81       0.0237
    106  CD        13.9630   29.5340    7.8970 C.3    81  PRO81       0.0939
    107  N         12.4210   26.7250    9.6210 N.am   82  VAL82      -0.1978
    108  CA        12.2270   25.7400   10.6840 C.3    82  VAL82       0.1596
    109  C         11.5320   26.3950   11.8720 C.2    82  VAL82       0.2287
    110  O         11.7930   27.5620   12.1900 O.2    82  VAL82      -0.2864
    111  CB        13.5770   25.1490   11.1360 C.3    82  VAL82       0.0276
    112  CG1       14.2590   24.4280    9.9790 C.3    82  VAL82       0.0022
    113  CG2       14.4740   26.2400   11.7040 C.3    82  VAL82       0.0022
    114  N         11.2180   27.1680   15.5480 N.3    84  ILE84      -0.1245
    115  CA        12.2490   27.3370   16.5510 C.3    84  ILE84       0.1561
    116  C         11.5970   27.6140   17.8940 C.2    84  ILE84       0.2260
    117  O         10.8520   28.6110   18.0230 O.2    84  ILE84      -0.2867
    118  CB        13.1350   28.5310   16.1700 C.3    84  ILE84       0.0252
    119  CG1       13.9030   28.2120   14.8930 C.3    84  ILE84       0.0019
    120  CG2       14.0850   28.9220   17.3090 C.3    84  ILE84       0.0019
    121  CD1       14.5370   29.4190   14.2660 C.3    84  ILE84       0.0001
@<TRIPOS>BOND
     1   104   101    1
     2   104   105    1
     3   101   100    1
     4   101   102    1
     5   105   106    1
     6   106   100    1
     7   103   102    2
     8   100    95   am
     9    96    95    2
    10    95    94    1
    11   102   107   am
    12    93    94    1
    13    88    87    2
    14    87    86    1
    15    91    89    1
    16    94    97    1
    17    11     9    1
    18    10     9    1
    19   107   108    1
    20     9     8    2
    21   112   111    1
    22    86    89    1
    23    86    85    1
    24    89    90    1
    25    97    98    1
    26    97    99    1
    27   108   111    1
    28   108   109    1
    29    84    83    2
    30     8     7    1
    31   111   113    1
    32    85    83   am
    33    90    92    1
    34    83    82    1
    35    72    71    2
    36   109   110    2
    37     7     6    1
    38    81    82    1
    39    81    79   am
    40    63    62    2
    41    78    79    1
    42    78    77    1
    43    71    77   am
    44    71    70    1
    45    69    70    1
    46    62    61    1
    47    79    80    2
    48     6     5    1
    49    74    76    1
    50    74    73    1
    51    60    61    1
    52    58    57    1
    53    70    73    1
    54    61    64    1
    55   121   119    1
    56     5     2    1
    57    73    75    1
    58    56    55    2
    59   119   118    1
    60    57    54    1
    61    57    59    1
    62    19    17    1
    63    55    54    1
    64     1     2    1
    65    64    65    1
    66     2     3    1
    67   114   115    1
    68    18    17    1
    69    54    53    1
    70    17    16    1
    71   118   115    1
    72   118   120    1
    73    16    13    1
    74    65    66    1
    75     4     3    2
    76   115   116    1
    77    12    13    1
    78    13    14    1
    79    26    25   ar
    80    66    67    1
    81   116   117    2
    82    67    68    1
    83    25    27   ar
    84    25    24    1
    85    14    15    2
    86    24    21    1
    87    36    33    1
    88    48    47    2
    89    31    30    2
    90    33    32    1
    91    33    34    1
    92    49    46    1
    93    49    50    1
    94    47    46    1
    95    30    32   am
    96    30    29    1
    97    21    20    1
    98    21    22    1
    99    52    50   ar
   100    29    28    1
   101    46    45    1
   102    50    51   ar
   103    45    39   am
   104    34    37   am
   105    34    35    2
   106    37    38    1
   107    22    23    2
   108    44    42   ar
   109    41    42    1
   110    41    38    1
   111    42    43   ar
   112    39    38    1
   113    39    40    2
