@<TRIPOS>MOLECULE
tmp/3sacA00.pdb
 112 105 0 0 0
SMALL
GASTEIGER

@<TRIPOS>ATOM
      1  N         20.8890   34.1450   27.9700 N.3     8  ARG8       -0.1245
      2  CA        21.6190   33.5100   26.8680 C.3     8  ARG8        0.1563
      3  C         22.7230   32.6180   27.4220 C.2     8  ARG8        0.2260
      4  O         23.4790   33.0360   28.2990 O.2     8  ARG8       -0.2867
      5  CB        22.2440   34.5500   25.9370 C.3     8  ARG8        0.0307
      6  CG        21.2280   35.3000   25.1300 C.3     8  ARG8        0.0489
      7  CD        21.8460   36.4700   24.4090 C.3     8  ARG8        0.2205
      8  NE        20.8800   37.1040   23.5140 N.pl3   8  ARG8       -0.0865
      9  CZ        21.0650   38.2720   22.8990 C.cat   8  ARG8        0.5346
     10  NH1       22.1880   38.9630   23.0730 N.pl3   8  ARG8        0.1354
     11  NH2       20.1200   38.7550   22.1010 N.pl3   8  ARG8        0.1354
     12  N         28.0070   31.4180   22.1470 N.3    23  LEU23      -0.1245
     13  CA        26.6640   31.0170   22.5090 C.3    23  LEU23       0.1561
     14  C         26.4860   29.5240   22.2600 C.2    23  LEU23       0.2260
     15  O         26.6830   29.0530   21.1420 O.2    23  LEU23      -0.2867
     16  CB        25.6690   31.8100   21.6590 C.3    23  LEU23       0.0270
     17  CG        24.1780   31.6070   21.8760 C.3    23  LEU23       0.0019
     18  CD1       23.7530   32.1700   23.1910 C.3    23  LEU23       0.0001
     19  CD2       23.4210   32.2750   20.7320 C.3    23  LEU23       0.0001
     20  N         24.4480   26.7580   21.1460 N.3    25  ASP25      -0.1239
     21  CA        23.3400   26.9090   20.2140 C.3    25  ASP25       0.1674
     22  C         22.8760   25.5640   19.6610 C.2    25  ASP25       0.2266
     23  O         23.3820   25.0770   18.6370 O.2    25  ASP25      -0.2867
     24  CB        23.8060   27.8620   19.0900 C.3    25  ASP25       0.1410
     25  CG        22.7000   28.2700   18.1420 C.2    25  ASP25       0.3668
     26  OD1       21.5920   27.7000   18.2000 O.co2  25  ASP25      -0.2456
     27  OD2       22.9730   29.1600   17.3090 O.co2  25  ASP25      -0.2456
     28  N         20.2980   24.8800   18.0700 N.3    27  GLY27      -0.1210
     29  CA        19.6730   25.0210   16.7590 C.3    27  GLY27       0.1956
     30  C         20.6550   25.1840   15.6190 C.2    27  GLY27       0.2612
     31  O         20.2290   25.3230   14.4690 O.2    27  GLY27      -0.2717
     32  N         21.9530   25.1670   15.9250 N.am   28  ALA28      -0.1965
     33  CA        23.0010   25.3000   14.9200 C.3    28  ALA28       0.1728
     34  C         23.6500   23.9490   14.6690 C.2    28  ALA28       0.2616
     35  O         24.1240   23.3050   15.5950 O.2    28  ALA28      -0.2715
     36  CB        24.0480   26.3020   15.3940 C.3    28  ALA28       0.0334
     37  N         23.6760   23.5140   13.4090 N.am   29  ASP29      -0.1957
     38  CA        24.3730   22.2830   13.0580 C.3    29  ASP29       0.1840
     39  C         25.8820   22.4480   13.2440 C.2    29  ASP29       0.2622
     40  O         26.5720   21.4940   13.6000 O.2    29  ASP29      -0.2715
     41  CB        24.1300   21.9020   11.5910 C.3    29  ASP29       0.1450
     42  CG        22.6630   21.6840   11.2410 C.2    29  ASP29       0.3671
     43  OD1       21.8180   21.4410   12.1270 O.co2  29  ASP29      -0.2456
     44  OD2       22.3680   21.7360   10.0230 O.co2  29  ASP29      -0.2456
     45  N         26.3640   23.6540   12.9460 N.am   30  ASP30      -0.1971
     46  CA        27.7820   23.9720   12.8640 C.3    30  ASP30       0.1709
     47  C         28.2050   24.9910   13.9030 C.2    30  ASP30       0.2293
     48  O         27.3910   25.7580   14.4120 O.2    30  ASP30      -0.2864
     49  CB        28.0870   24.6000   11.4950 C.3    30  ASP30       0.1436
     50  CG        27.4910   23.8310   10.3500 C.2    30  ASP30       0.3671
     51  OD1       27.8770   22.6630   10.1740 O.co2  30  ASP30      -0.2456
     52  OD2       26.6380   24.4070    9.6250 O.co2  30  ASP30      -0.2456
     53  N         30.1860   28.3470   14.3320 N.3    32  VAL32      -0.1245
     54  CA        30.4740   29.4850   13.4690 C.3    32  VAL32       0.1561
     55  C         31.0020   30.6280   14.3300 C.2    32  VAL32       0.2260
     56  O         30.3130   31.0920   15.2370 O.2    32  VAL32      -0.2867
     57  CB        29.2300   29.9690   12.6830 C.3    32  VAL32       0.0252
     58  CG1       29.6700   30.9240   11.5720 C.3    32  VAL32       0.0019
     59  CG2       28.4690   28.7930   12.0860 C.3    32  VAL32       0.0019
     60  N         26.7370   28.4410    4.1590 N.3    47  ILE47      -0.1231
     61  CA        25.7590   27.9520    5.1260 C.3    47  ILE47       0.1692
     62  C         24.5610   28.8790    5.1770 C.2    47  ILE47       0.2593
     63  O         24.6680   30.0680    4.8640 O.2    47  ILE47      -0.2718
     64  CB        26.3310   27.8000    6.5520 C.3    47  ILE47       0.0266
     65  CG1       26.8410   29.1350    7.1030 C.3    47  ILE47       0.0019
     66  CG2       27.4540   26.7660    6.5610 C.3    47  ILE47       0.0020
     67  CD1       27.2720   29.0380    8.5520 C.3    47  ILE47       0.0001
     68  N         23.4330   28.3170    5.6030 N.am   48  GLY48      -0.1942
     69  CA        22.1640   29.0270    5.6520 C.3    48  GLY48       0.2014
     70  C         21.6310   29.1430    7.0660 C.2    48  GLY48       0.2639
     71  O         21.6860   28.1960    7.8520 O.2    48  GLY48      -0.2714
     72  N         21.1020   30.3200    7.3720 N.am   49  GLY49      -0.1939
     73  CA        20.4580   30.5920    8.6460 C.3    49  GLY49       0.2014
     74  C         19.0810   31.1780    8.4130 C.2    49  GLY49       0.2638
     75  O         18.4780   31.0220    7.3530 O.2    49  GLY49      -0.2714
     76  N         18.5720   31.8700    9.4160 N.am   50  ILE50      -0.1977
     77  CA        17.2200   32.3880    9.3490 C.3    50  ILE50       0.1596
     78  C         17.0420   33.4520    8.2680 C.2    50  ILE50       0.2287
     79  O         15.9470   33.5930    7.7150 O.2    50  ILE50      -0.2864
     80  CB        16.7790   32.9400   10.7290 C.3    50  ILE50       0.0276
     81  CG1       15.2570   32.8380   10.8680 C.3    50  ILE50       0.0022
     82  CG2       17.2870   34.3700   10.9420 C.3    50  ILE50       0.0022
     83  CD1       14.7260   33.2380   12.2300 C.3    50  ILE50       0.0001
     84  N         28.7190   35.6220   11.0330 N.3    80  THR80      -0.1204
     85  CA        27.6730   35.2770   11.9750 C.3    80  THR80       0.1979
     86  C         27.4350   36.4670   12.9130 C.2    80  THR80       0.2464
     87  O         28.3850   37.1840   13.2540 O.2    80  THR80      -0.2732
     88  CB        28.0610   34.0380   12.7920 C.3    80  THR80       0.1783
     89  OG1       27.0440   33.7730   13.7580 O.3    80  THR80      -0.2211
     90  CG2       29.4230   34.2120   13.4990 C.3    80  THR80       0.0376
     91  N         26.1770   36.6890   13.3440 N.am   81  PRO81      -0.2642
     92  CA        25.9090   37.7880   14.2960 C.3    81  PRO81       0.1762
     93  C         26.6030   37.6560   15.6620 C.2    81  PRO81       0.2641
     94  O         26.8530   38.6650   16.3330 O.2    81  PRO81      -0.2712
     95  CB        24.3900   37.7510   14.4930 C.2    81  PRO81      -0.0003
     96  CG        23.8630   36.6610   13.6500 C.2    81  PRO81      -0.0071
     97  CD        24.9690   35.8950   13.0390 C.3    81  PRO81       0.1204
     98  N         26.8720   36.4150   16.0750 N.am   82  VAL82      -0.1975
     99  CA        27.5360   36.1130   17.3450 C.3    82  VAL82       0.1596
    100  C         28.3090   34.8040   17.1770 C.2    82  VAL82       0.2287
    101  O         27.9530   33.9810   16.3360 O.2    82  VAL82      -0.2864
    102  CB        26.5230   35.9250   18.5030 C.3    82  VAL82       0.0276
    103  CG1       27.2440   35.9030   19.8520 C.3    82  VAL82       0.0022
    104  CG2       25.4550   37.0020   18.4870 C.3    82  VAL82       0.0022
    105  N         28.9430   31.1700   17.7550 N.3    84  ILE84      -0.1245
    106  CA        28.0220   30.1020   18.1390 C.3    84  ILE84       0.1561
    107  C         28.7400   28.7660   18.1530 C.2    84  ILE84       0.2260
    108  O         29.5180   28.4510   17.2630 O.2    84  ILE84      -0.2867
    109  CB        26.7440   30.0230   17.2630 C.3    84  ILE84       0.0252
    110  CG1       27.0720   29.7400   15.8090 C.3    84  ILE84       0.0019
    111  CG2       25.9220   31.2950   17.3840 C.3    84  ILE84       0.0019
    112  CD1       25.8480   29.6280   14.9230 C.3    84  ILE84       0.0001
@<TRIPOS>BOND
     1    60    61    1
     2    63    62    2
     3    61    62    1
     4    61    64    1
     5    62    68   am
     6    68    69    1
     7    69    70    1
     8    64    66    1
     9    64    65    1
    10    70    72   am
    11    70    71    2
    12    65    67    1
    13    75    74    2
    14    72    73    1
    15    79    78    2
    16    78    77    1
    17    74    73    1
    18    74    76   am
    19    77    76    1
    20    77    80    1
    21    52    50   ar
    22    44    42   ar
    23    51    50   ar
    24    50    49    1
    25    80    81    1
    26    80    82    1
    27    81    83    1
    28    84    85    1
    29    42    41    1
    30    42    43   ar
    31    49    46    1
    32    58    57    1
    33    41    38    1
    34    85    88    1
    35    85    86    1
    36    59    57    1
    37    57    54    1
    38    88    90    1
    39    88    89    1
    40    46    45    1
    41    46    47    1
    42    86    87    2
    43    86    91   am
    44    45    39   am
    45    97    91    1
    46    97    96    1
    47    38    39    1
    48    38    37    1
    49    39    40    2
    50    91    92    1
    51    37    34   am
    52    54    55    1
    53    54    53    1
    54    96    95    2
    55    47    48    2
    56    92    95    1
    57    92    93    1
    58    55    56    2
    59    31    30    2
    60    34    33    1
    61    34    35    2
    62    33    36    1
    63    33    32    1
    64   112   110    1
    65    30    32   am
    66    30    29    1
    67    93    98   am
    68    93    94    2
    69   110   109    1
    70    98    99    1
    71   101   100    2
    72    29    28    1
    73   100    99    1
    74   108   107    2
    75   109   111    1
    76   109   106    1
    77    27    25   ar
    78    99   102    1
    79   105   106    1
    80   106   107    1
    81    25    26   ar
    82    25    24    1
    83   104   102    1
    84   102   103    1
    85    23    22    2
    86    24    21    1
    87    22    21    1
    88    21    20    1
    89    19    17    1
    90    15    14    2
    91    16    17    1
    92    16    13    1
    93    17    18    1
    94    11     9    1
    95    12    13    1
    96    14    13    1
    97     9    10    1
    98     9     8    2
    99     8     7    1
   100     7     6    1
   101     6     5    1
   102     5     2    1
   103     2     3    1
   104     2     1    1
   105     3     4    2
