@<TRIPOS>MOLECULE
tmp/3saeA00.pdb
 178 164 0 0 0
SMALL
GASTEIGER

@<TRIPOS>ATOM
      1  N        112.0890   27.5070   36.6690 N.3   494  ARG494     -0.1245
      2  CA       110.7640   27.1390   36.1490 C.3   494  ARG494      0.1563
      3  C        110.3300   27.9570   34.9270 C.2   494  ARG494      0.2260
      4  O        109.1880   28.4020   34.8570 O.2   494  ARG494     -0.2867
      5  CB       109.7050   27.2780   37.2520 C.3   494  ARG494      0.0307
      6  CG       109.9680   26.4150   38.4730 C.3   494  ARG494      0.0489
      7  CD       108.7000   26.1740   39.2670 C.3   494  ARG494      0.2205
      8  NE       108.1950   27.3900   39.8980 N.pl3 494  ARG494     -0.0865
      9  CZ       108.2050   27.6110   41.2090 C.cat 494  ARG494      0.5346
     10  NH1      108.6940   26.6940   42.0360 N.pl3 494  ARG494      0.1354
     11  NH2      107.7210   28.7470   41.6950 N.pl3 494  ARG494      0.1354
     12  N        106.2500   29.0520   33.8400 N.3   498  PHE498     -0.1241
     13  CA       105.7600   30.4240   33.7540 C.3   498  PHE498      0.1605
     14  C        105.3300   30.7770   32.3370 C.2   498  PHE498      0.2264
     15  O        104.3860   31.5420   32.1360 O.2   498  PHE498     -0.2867
     16  CB       106.8230   31.4010   34.2670 C.3   498  PHE498      0.0534
     17  CG       107.1090   31.2360   35.7270 C.ar  498  PHE498     -0.0203
     18  CD1      106.0680   31.1600   36.6330 C.ar  498  PHE498     -0.0042
     19  CD2      108.4040   31.1060   36.1860 C.ar  498  PHE498     -0.0042
     20  CE1      106.3140   30.9880   37.9840 C.ar  498  PHE498     -0.0003
     21  CE2      108.6580   30.9410   37.5310 C.ar  498  PHE498     -0.0003
     22  CZ       107.6030   30.8730   38.4320 C.ar  498  PHE498     -0.0000
     23  N        101.9570   29.4040   32.0370 N.3   501  LEU501     -0.1245
     24  CA       100.9370   30.1720   32.7670 C.3   501  LEU501      0.1561
     25  C        100.2680   31.2060   31.8590 C.2   501  LEU501      0.2260
     26  O         99.0580   31.4240   31.9360 O.2   501  LEU501     -0.2867
     27  CB       101.5410   30.8570   34.0030 C.3   501  LEU501      0.0270
     28  CG       100.6640   31.8510   34.7720 C.3   501  LEU501      0.0019
     29  CD1       99.4220   31.1860   35.4420 C.3   501  LEU501      0.0001
     30  CD2      101.5100   32.5950   35.8030 C.3   501  LEU501      0.0001
     31  N        108.2210   36.7120   35.5330 N.3   522  ALA522     -0.1245
     32  CA       107.8850   35.6210   36.4530 C.3   522  ALA522      0.1562
     33  C        109.1260   34.8470   36.9180 C.2   522  ALA522      0.2260
     34  O        109.2070   34.4290   38.0740 O.2   522  ALA522     -0.2867
     35  CB       106.8490   34.6790   35.8290 C.3   522  ALA522      0.0290
     36  N        110.7580   37.0310   39.4550 N.3   525  GLN525     -0.1231
     37  CA       109.9440   37.0440   40.6750 C.3   525  GLN525      0.1698
     38  C        110.1340   35.8160   41.5580 C.2   525  GLN525      0.2592
     39  O        110.1470   35.9320   42.7830 O.2   525  GLN525     -0.2718
     40  CB       108.4600   37.2010   40.3310 C.3   525  GLN525      0.0381
     41  CG       108.0820   38.6180   39.9790 C.3   525  GLN525      0.0905
     42  CD       106.6410   38.7430   39.5660 C.2   525  GLN525      0.2608
     43  OE1      106.1880   38.0730   38.6290 O.2   525  GLN525     -0.2717
     44  NE2      105.9090   39.6100   40.2490 N.am  525  GLN525     -0.0878
     45  N        110.2680   34.6380   40.9560 N.am  526  THR526     -0.1953
     46  CA       110.4390   33.4460   41.7780 C.3   526  THR526      0.1897
     47  C        111.7480   33.5250   42.5580 C.2   526  THR526      0.2313
     48  O        111.8400   33.0400   43.6820 O.2   526  THR526     -0.2863
     49  CB       110.3590   32.1340   40.9660 C.3   526  THR526      0.1794
     50  OG1      110.1850   31.0350   41.8680 O.3   526  THR526     -0.2208
     51  CG2      111.6120   31.9070   40.1400 C.3   526  THR526      0.0378
     52  N        111.1020   36.1910   45.2840 N.3   529  ASP529     -0.1239
     53  CA       110.2660   35.5540   46.2940 C.3   529  ASP529      0.1674
     54  C        111.0920   34.6790   47.2520 C.2   529  ASP529      0.2266
     55  O        111.0050   34.8220   48.4730 O.2   529  ASP529     -0.2867
     56  CB       109.1670   34.7230   45.6170 C.3   529  ASP529      0.1410
     57  CG       108.2530   34.0550   46.6220 C.2   529  ASP529      0.3668
     58  OD1      107.6600   34.7780   47.4460 O.co2 529  ASP529     -0.2456
     59  OD2      108.1410   32.8170   46.5950 O.co2 529  ASP529     -0.2456
     60  N        111.4440   35.5710   51.2510 N.3   533  ASP533     -0.1239
     61  CA       110.7220   34.7820   52.2440 C.3   533  ASP533      0.1674
     62  C        111.5130   33.5940   52.7950 C.2   533  ASP533      0.2266
     63  O        111.0390   32.8950   53.6840 O.2   533  ASP533     -0.2867
     64  CB       109.3290   34.3550   51.7400 C.3   533  ASP533      0.1410
     65  CG       109.3910   33.3650   50.5980 C.2   533  ASP533      0.3668
     66  OD1      110.4100   32.6470   50.4880 O.co2 533  ASP533     -0.2456
     67  OD2      108.4130   33.3040   49.8130 O.co2 533  ASP533     -0.2456
     68  N        106.9360   42.5440   50.0840 N.3   604  TYR604     -0.1241
     69  CA       107.8160   41.4470   50.4960 C.3   604  TYR604      0.1605
     70  C        108.5960   41.7940   51.7670 C.2   604  TYR604      0.2264
     71  O        108.7560   40.9590   52.6600 O.2   604  TYR604     -0.2867
     72  CB       108.8440   41.1330   49.4050 C.3   604  TYR604      0.0534
     73  CG       108.3950   40.1610   48.3350 C.ar  604  TYR604     -0.0201
     74  CD1      107.2570   39.3680   48.4980 C.ar  604  TYR604     -0.0009
     75  CD2      109.1280   40.0210   47.1690 C.ar  604  TYR604     -0.0009
     76  CE1      106.8590   38.4750   47.5050 C.ar  604  TYR604      0.0417
     77  CE2      108.7380   39.1380   46.1710 C.ar  604  TYR604      0.0417
     78  CZ       107.6140   38.3710   46.3410 C.ar  604  TYR604      0.1957
     79  OH       107.2550   37.4930   45.3430 O.3   604  TYR604     -0.2866
     80  N        106.5290   41.6540   54.8850 N.3   607  GLU607     -0.1245
     81  CA       106.3660   40.2430   55.2120 C.3   607  GLU607      0.1567
     82  C        107.6410   39.6730   55.8210 C.2   607  GLU607      0.2260
     83  O        107.5910   38.8240   56.7110 O.2   607  GLU607     -0.2867
     84  CB       106.0190   39.4480   53.9520 C.3   607  GLU607      0.0388
     85  CG       105.9300   37.9450   54.1820 C.3   607  GLU607      0.1160
     86  CD       105.7520   37.1560   52.8950 C.2   607  GLU607      0.3649
     87  OE1      105.3310   35.9830   52.9700 O.co2 607  GLU607     -0.2457
     88  OE2      106.0340   37.7020   51.8090 O.co2 607  GLU607     -0.2457
     89  N        101.9390   39.3230   46.6620 N.3   630  ILE630     -0.1231
     90  CA       101.9830   38.0110   46.0300 C.3   630  ILE630      0.1692
     91  C        102.6340   38.0960   44.6320 C.2   630  ILE630      0.2593
     92  O        103.2240   37.1270   44.1560 O.2   630  ILE630     -0.2718
     93  CB       100.6050   37.3090   45.9730 C.3   630  ILE630      0.0266
     94  CG1      100.7980   35.8210   45.6690 C.3   630  ILE630      0.0019
     95  CG2       99.7010   37.9560   44.9340 C.3   630  ILE630      0.0020
     96  CD1       99.5230   35.0380   45.5690 C.3   630  ILE630      0.0001
     97  N        102.5400   39.2600   43.9940 N.am  631  GLY631     -0.1942
     98  CA       103.2970   39.5190   42.7720 C.3   631  GLY631      0.2014
     99  C        102.5530   39.4650   41.4460 C.2   631  GLY631      0.2638
    100  O        103.1140   39.8220   40.3980 O.2   631  GLY631     -0.2714
    101  N        101.3000   39.0200   41.4830 N.am  632  GLN632     -0.1977
    102  CA       100.4850   38.8890   40.2760 C.3   632  GLN632      0.1601
    103  C        100.2330   40.2380   39.6270 C.2   632  GLN632      0.2287
    104  O        100.1950   40.3460   38.4060 O.2   632  GLN632     -0.2864
    105  CB        99.1420   38.2090   40.5850 C.3   632  GLN632      0.0394
    106  CG        99.2160   36.7030   40.8350 C.3   632  GLN632      0.0908
    107  CD        99.1590   35.8920   39.5470 C.2   632  GLN632      0.2608
    108  OE1       99.9090   36.1450   38.6160 O.2   632  GLN632     -0.2717
    109  NE2       98.2680   34.9070   39.4980 N.am  632  GLN632     -0.0878
    110  N        103.2810   41.4320   37.5570 N.3   635  LEU635     -0.1245
    111  CA       103.4640   40.4450   36.4900 C.3   635  LEU635      0.1561
    112  C        102.4300   40.6150   35.3690 C.2   635  LEU635      0.2260
    113  O        102.7670   40.6000   34.1790 O.2   635  LEU635     -0.2867
    114  CB       103.3820   39.0300   37.0680 C.3   635  LEU635      0.0270
    115  CG       103.4140   37.8610   36.0880 C.3   635  LEU635      0.0019
    116  CD1      104.7480   37.8120   35.3720 C.3   635  LEU635      0.0001
    117  CD2      103.1640   36.5640   36.8430 C.3   635  LEU635      0.0001
    118  N         94.4750   34.5670   43.8580 N.3   672  SER672     -0.1202
    119  CA        95.7220   33.8190   43.8400 C.3   672  SER672      0.2020
    120  C         96.2210   33.5230   45.2570 C.2   672  SER672      0.2618
    121  O         96.5360   32.3850   45.5850 O.2   672  SER672     -0.2717
    122  CB        96.7940   34.5810   43.0490 C.3   672  SER672      0.2103
    123  OG        96.4210   34.7210   41.6830 O.3   672  SER672     -0.2182
    124  N         96.3000   34.5540   46.0880 N.am  673  ARG673     -0.1979
    125  CA        96.7510   34.3900   47.4720 C.3   673  ARG673      0.1597
    126  C         95.9130   33.3580   48.2430 C.2   673  ARG673      0.2287
    127  O         96.4480   32.4440   48.8770 O.2   673  ARG673     -0.2864
    128  CB        96.7230   35.7430   48.1960 C.3   673  ARG673      0.0334
    129  CG        97.0470   35.6790   49.6960 C.3   673  ARG673      0.0492
    130  CD        98.5250   35.3650   49.9380 C.3   673  ARG673      0.2205
    131  NE        98.8280   33.9670   49.6460 N.pl3 673  ARG673     -0.0865
    132  CZ       100.0520   33.4810   49.4850 C.cat 673  ARG673      0.5346
    133  NH1      101.1060   34.2840   49.5760 N.pl3 673  ARG673      0.1354
    134  NH2      100.2200   32.1920   49.2180 N.pl3 673  ARG673      0.1354
    135  N         95.8620   29.7600   46.6560 N.3   676  ASP676     -0.1239
    136  CA        97.1110   29.1410   47.0710 C.3   676  ASP676      0.1674
    137  C         97.0110   28.6550   48.5200 C.2   676  ASP676      0.2266
    138  O         97.3390   27.5080   48.8200 O.2   676  ASP676     -0.2867
    139  CB        98.2910   30.1000   46.9140 C.3   676  ASP676      0.1410
    140  CG        99.5650   29.5450   47.5140 C.2   676  ASP676      0.3668
    141  OD1       99.7080   29.6150   48.7520 O.co2 676  ASP676     -0.2456
    142  OD2      100.4240   29.0340   46.7570 O.co2 676  ASP676     -0.2456
    143  N        102.6580   23.7390   54.6300 N.3   684  GLU684     -0.1245
    144  CA       103.4070   24.8620   55.1760 C.3   684  GLU684      0.1567
    145  C        103.3300   24.8980   56.6930 C.2   684  GLU684      0.2260
    146  O        104.3060   25.2270   57.3650 O.2   684  GLU684     -0.2867
    147  CB       102.8780   26.1720   54.5990 C.3   684  GLU684      0.0388
    148  CG       103.0020   26.2560   53.0910 C.3   684  GLU684      0.1160
    149  CD       102.1130   27.3270   52.5050 C.2   684  GLU684      0.3649
    150  OE1      102.1590   27.5180   51.2740 O.co2 684  GLU684     -0.2457
    151  OE2      101.3640   27.9720   53.2740 O.co2 684  GLU684     -0.2457
    152  N        106.2530   26.7910   58.5980 N.3   689  GLU689     -0.1245
    153  CA       106.2450   28.0720   57.8950 C.3   689  GLU689      0.1567
    154  C        105.4060   29.1330   58.6050 C.2   689  GLU689      0.2260
    155  O        104.5520   28.8210   59.4420 O.2   689  GLU689     -0.2867
    156  CB       105.7450   27.9000   56.4560 C.3   689  GLU689      0.0388
    157  CG       106.8300   28.0090   55.3970 C.3   689  GLU689      0.1160
    158  CD       106.2840   27.8860   53.9830 C.2   689  GLU689      0.3649
    159  OE1      105.3550   28.6470   53.6240 O.co2 689  GLU689     -0.2457
    160  OE2      106.7850   27.0220   53.2300 O.co2 689  GLU689     -0.2457
    161  N         95.9510   30.1360   36.7220 N.3   749  THR749     -0.1218
    162  CA        96.3630   30.1310   38.1240 C.3   749  THR749      0.1862
    163  C         95.4130   29.2670   38.9530 C.2   749  THR749      0.2287
    164  O         95.8510   28.4920   39.8110 O.2   749  THR749     -0.2866
    165  CB        96.4020   31.5550   38.7180 C.3   749  THR749      0.1770
    166  OG1       97.2890   32.3760   37.9400 O.3   749  THR749     -0.2211
    167  CG2       96.8810   31.5250   40.1890 C.3   749  THR749      0.0375
    168  N         95.7490   25.6650   41.6150 N.3   753  PHE753     -0.1241
    169  CA        95.3390   25.6290   43.0170 C.3   753  PHE753      0.1605
    170  C         93.9460   25.0330   43.2560 C.2   753  PHE753      0.2264
    171  O         93.3810   25.1740   44.3510 O.2   753  PHE753     -0.2867
    172  CB        95.4200   27.0350   43.6040 C.3   753  PHE753      0.0534
    173  CG        96.7920   27.6310   43.5320 C.ar  753  PHE753     -0.0203
    174  CD1       97.8880   26.9280   44.0070 C.ar  753  PHE753     -0.0042
    175  CD2       96.9940   28.8800   42.9770 C.ar  753  PHE753     -0.0042
    176  CE1       99.1610   27.4660   43.9420 C.ar  753  PHE753     -0.0003
    177  CE2       98.2720   29.4220   42.9060 C.ar  753  PHE753     -0.0003
    178  CZ        99.3530   28.7110   43.3930 C.ar  753  PHE753     -0.0000
@<TRIPOS>BOND
     1    25    26    2
     2    25    24    1
     3    23    24    1
     4    15    14    2
     5    14    13    1
     6    24    27    1
     7    13    12    1
     8    13    16    1
     9    27    28    1
    10   113   112    2
    11    16    17    1
    12    28    29    1
    13    28    30    1
    14     4     3    2
    15     3     2    1
    16   112   111    1
    17   116   115    1
    18    31    32    1
    19    17    19   ar
    20    17    18   ar
    21    35    32    1
    22   115   117    1
    23   115   114    1
    24     2     1    1
    25     2     5    1
    26    19    21   ar
    27    32    33    1
    28   111   114    1
    29   111   110    1
    30    18    20   ar
    31   161   162    1
    32    33    34    2
    33     5     6    1
    34    21    22   ar
    35   166   165    1
    36    20    22   ar
    37   162   165    1
    38   162   163    1
    39   104   103    2
    40     6     7    1
    41   108   107    2
    42    43    42    2
    43   165   167    1
    44   163   164    2
    45     7     8    1
    46    36    37    1
    47   109   107   am
    48   107   106    1
    49    42    41    1
    50    42    44   am
    51   103   102    1
    52     8     9    2
    53    41    40    1
    54    51    49    1
    55   102   105    1
    56   102   101    1
    57    40    37    1
    58   100    99    2
    59   105   106    1
    60    37    38    1
    61    45    38   am
    62    45    46    1
    63    49    46    1
    64    49    50    1
    65     9    11    1
    66     9    10    1
    67    99   101   am
    68    99    98    1
    69    38    39    2
    70   168   169    1
    71   123   122    1
    72    46    47    1
    73    47    48    2
    74    98    97    1
    75   177   175   ar
    76   177   178   ar
    77   175   173   ar
    78   169   170    1
    79   169   172    1
    80   122   119    1
    81   170   171    2
    82   178   176   ar
    83   173   172    1
    84   173   174   ar
    85   119   118    1
    86   119   120    1
    87   176   174   ar
    88    97    91   am
    89    92    91    2
    90    91    90    1
    91    95    93    1
    92   120   121    2
    93   120   124   am
    94    52    53    1
    95    79    78    1
    96    96    94    1
    97    56    53    1
    98    56    57    1
    99    94    93    1
   100    93    90    1
   101    90    89    1
   102   124   125    1
   103    77    78   ar
   104    77    75   ar
   105    53    54    1
   106    78    76   ar
   107    59    57   ar
   108    57    58   ar
   109   135   136    1
   110   142   140   ar
   111   139   136    1
   112   139   140    1
   113   136   137    1
   114    75    73   ar
   115    54    55    2
   116   125   128    1
   117   125   126    1
   118    76    74   ar
   119   140   141   ar
   120   128   129    1
   121   126   127    2
   122    73    74   ar
   123    73    72    1
   124   137   138    2
   125   134   132    1
   126    72    69    1
   127   132   133    1
   128   132   131    2
   129   131   130    1
   130   129   130    1
   131    67    65   ar
   132    68    69    1
   133    66    65   ar
   134    69    70    1
   135    65    64    1
   136    60    61    1
   137   150   149   ar
   138    64    61    1
   139    70    71    2
   140    88    86   ar
   141    61    62    1
   142   149   148    1
   143   149   151   ar
   144    62    63    2
   145    86    87   ar
   146    86    85    1
   147   148   147    1
   148   160   158   ar
   149   159   158   ar
   150    84    85    1
   151    84    81    1
   152   158   157    1
   153   147   144    1
   154   143   144    1
   155    80    81    1
   156   144   145    1
   157    81    82    1
   158   157   156    1
   159    82    83    2
   160   156   153    1
   161   145   146    2
   162   153   152    1
   163   153   154    1
   164   154   155    2
