@<TRIPOS>MOLECULE
tmp/3sajC01.pdb
 100 99 0 0 0
SMALL
GASTEIGER

@<TRIPOS>ATOM
      1  N         23.9580   34.1640  -35.4010 N.3   177  LYS177     -0.1231
      2  CA        24.0620   33.1060  -36.3990 C.3   177  LYS177      0.1693
      3  C         24.4480   31.7640  -35.7930 C.2   177  LYS177      0.2591
      4  O         24.5250   30.7590  -36.5000 O.2   177  LYS177     -0.2718
      5  CB        25.0680   33.4920  -37.4840 C.3   177  LYS177      0.0285
      6  CG        24.7150   34.7650  -38.2300 C.3   177  LYS177      0.0035
      7  CD        23.3960   34.6250  -38.9680 C.3   177  LYS177      0.0206
      8  CE        23.0500   35.9020  -39.7120 C.3   177  LYS177      0.1093
      9  NZ        21.9790   35.6850  -40.7210 N.3   177  LYS177     -0.1314
     10  N         24.6910   31.7500  -34.4870 N.am  178  GLU178     -0.1979
     11  CA        25.1630   30.5380  -33.8270 C.3   178  GLU178      0.1602
     12  C         24.0960   29.7760  -33.0480 C.2   178  GLU178      0.2287
     13  O         23.4050   30.3260  -32.1870 O.2   178  GLU178     -0.2864
     14  CB        26.3770   30.8350  -32.9460 C.3   178  GLU178      0.0415
     15  CG        27.6020   31.2380  -33.7470 C.3   178  GLU178      0.1163
     16  CD        28.7840   31.6020  -32.8760 C.2   178  GLU178      0.3649
     17  OE1       28.6040   31.7260  -31.6460 O.co2 178  GLU178     -0.2457
     18  OE2       29.8950   31.7650  -33.4230 O.co2 178  GLU178     -0.2457
     19  N         21.8800   20.2730  -40.2530 N.3   201  GLU201     -0.1245
     20  CA        22.1140   21.6990  -40.0610 C.3   201  GLU201      0.1567
     21  C         21.9560   22.4580  -41.3720 C.2   201  GLU201      0.2260
     22  O         22.6580   22.1910  -42.3480 O.2   201  GLU201     -0.2867
     23  CB        23.4860   21.9730  -39.4390 C.3   201  GLU201      0.0388
     24  CG        24.5960   21.0540  -39.9030 C.3   201  GLU201      0.1160
     25  CD        25.7340   20.9820  -38.9020 C.2   201  GLU201      0.3649
     26  OE1       26.2280   22.0500  -38.4790 O.co2 201  GLU201     -0.2457
     27  OE2       26.1300   19.8590  -38.5300 O.co2 201  GLU201     -0.2457
     28  N         24.7310   27.2160  -44.0990 N.3   204  GLY204     -0.1210
     29  CA        24.9610   28.6610  -44.0720 C.3   204  GLY204      0.1956
     30  C         25.1430   29.1900  -42.6590 C.2   204  GLY204      0.2612
     31  O         25.3720   30.3830  -42.4700 O.2   204  GLY204     -0.2717
     32  N         25.0500   28.3100  -41.6610 N.am  205  ILE205     -0.1965
     33  CA        25.1040   28.7250  -40.2540 C.3   205  ILE205      0.1727
     34  C         26.1660   27.9960  -39.4180 C.2   205  ILE205      0.2617
     35  O         26.5290   26.8590  -39.7150 O.2   205  ILE205     -0.2715
     36  CB        23.7330   28.5450  -39.5710 C.3   205  ILE205      0.0290
     37  CG1       23.7640   29.0980  -38.1460 C.3   205  ILE205      0.0022
     38  CG2       23.3310   27.0770  -39.5650 C.3   205  ILE205      0.0023
     39  CD1       22.3940   29.2380  -37.5180 C.3   205  ILE205      0.0001
     40  N         26.6490   28.6560  -38.3650 N.am  206  GLY206     -0.1940
     41  CA        27.6900   28.1010  -37.5100 C.3   206  GLY206      0.2014
     42  C         27.1730   27.3380  -36.3010 C.2   206  GLY206      0.2639
     43  O         26.0000   27.4520  -35.9460 O.2   206  GLY206     -0.2714
     44  N         28.0480   26.5630  -35.6590 N.am  207  TYR207     -0.1959
     45  CA        27.6290   25.7090  -34.5450 C.3   207  TYR207      0.1771
     46  C         28.6340   25.5090  -33.4390 C.2   207  TYR207      0.2620
     47  O         29.8220   25.8010  -33.5750 O.2   207  TYR207     -0.2715
     48  CB        27.2050   24.3310  -35.0940 C.3   207  TYR207      0.0574
     49  CG        25.8730   24.3370  -35.8180 C.ar  207  TYR207     -0.0198
     50  CD1       25.7960   24.6160  -37.1780 C.ar  207  TYR207     -0.0009
     51  CD2       24.6940   24.0700  -35.1370 C.ar  207  TYR207     -0.0009
     52  CE1       24.5770   24.6280  -37.8370 C.ar  207  TYR207      0.0417
     53  CE2       23.4730   24.0800  -35.7870 C.ar  207  TYR207      0.0417
     54  CZ        23.4200   24.3590  -37.1360 C.ar  207  TYR207      0.1957
     55  OH        22.2040   24.3690  -37.7810 O.3   207  TYR207     -0.2866
     56  N         28.1120   24.9900  -32.3370 N.am  208  HIS208     -0.1959
     57  CA        28.8980   24.6290  -31.1800 C.3   208  HIS208      0.1787
     58  C         28.1970   23.4610  -30.5150 C.2   208  HIS208      0.2620
     59  O         27.0290   23.5580  -30.1380 O.2   208  HIS208     -0.2715
     60  CB        29.0010   25.8080  -30.2190 C.3   208  HIS208      0.0785
     61  CG        29.9640   26.8620  -30.6660 C.ar  208  HIS208      0.0821
     62  ND1       29.5880   27.9290  -31.4510 N.ar  208  HIS208     -0.2267
     63  CD2       31.2910   27.0040  -30.4460 C.ar  208  HIS208      0.1154
     64  CE1       30.6420   28.6890  -31.6910 C.ar  208  HIS208      0.1986
     65  NE2       31.6880   28.1500  -31.0930 N.ar  208  HIS208     -0.2212
     66  N         28.9060   22.3470  -30.3930 N.am  209  TYR209     -0.1974
     67  CA        28.3430   21.1600  -29.7750 C.3   209  TYR209      0.1639
     68  C         29.1030   20.8150  -28.5110 C.2   209  TYR209      0.2290
     69  O         30.3250   20.6690  -28.5260 O.2   209  TYR209     -0.2864
     70  CB        28.3900   19.9750  -30.7370 C.3   209  TYR209      0.0560
     71  CG        27.6110   20.1860  -32.0120 C.ar  209  TYR209     -0.0198
     72  CD1       26.2880   19.7820  -32.1130 C.ar  209  TYR209     -0.0009
     73  CD2       28.2010   20.7830  -33.1170 C.ar  209  TYR209     -0.0009
     74  CE1       25.5720   19.9700  -33.2790 C.ar  209  TYR209      0.0417
     75  CE2       27.4930   20.9750  -34.2870 C.ar  209  TYR209      0.0417
     76  CZ        26.1780   20.5670  -34.3630 C.ar  209  TYR209      0.1957
     77  OH        25.4700   20.7560  -35.5270 O.3   209  TYR209     -0.2866
     78  N         35.6790   18.2010  -40.9580 N.3   227  SER227     -0.1202
     79  CA        34.5410   19.0610  -41.2230 C.3   227  SER227      0.2020
     80  C         34.7690   20.4820  -40.7420 C.2   227  SER227      0.2619
     81  O         34.1290   21.4190  -41.2230 O.2   227  SER227     -0.2717
     82  CB        33.2800   18.4920  -40.5660 C.3   227  SER227      0.2103
     83  OG        32.9950   17.1900  -41.0510 O.3   227  SER227     -0.2182
     84  N         35.6420   20.6350  -39.7550 N.am  228  GLY228     -0.1942
     85  CA        35.7730   21.9220  -39.0710 C.3   228  GLY228      0.2014
     86  C         34.6770   22.1160  -38.0270 C.2   228  GLY228      0.2639
     87  O         34.4520   23.2320  -37.5560 O.2   228  GLY228     -0.2714
     88  N         33.9940   21.0260  -37.6710 N.am  229  ALA229     -0.1963
     89  CA        33.0210   21.0380  -36.5810 C.3   229  ALA229      0.1728
     90  C         33.6170   21.5920  -35.2850 C.2   229  ALA229      0.2616
     91  O         34.8120   21.4670  -35.0330 O.2   229  ALA229     -0.2715
     92  CB        32.4250   19.6320  -36.3410 C.3   229  ALA229      0.0334
     93  N         32.7670   22.2380  -34.4910 N.am  230  ASN230     -0.1972
     94  CA        33.1290   22.6970  -33.1570 C.3   230  ASN230      0.1688
     95  C         32.5030   21.7480  -32.1240 C.2   230  ASN230      0.2292
     96  O         31.3290   21.9000  -31.7560 O.2   230  ASN230     -0.2864
     97  CB        32.6440   24.1440  -32.9040 C.3   230  ASN230      0.1181
     98  CG        33.1800   25.1650  -33.9210 C.2   230  ASN230      0.2629
     99  OD1       34.3260   25.1060  -34.3680 O.2   230  ASN230     -0.2716
    100  ND2       32.3280   26.1170  -34.2640 N.am  230  ASN230     -0.0877
@<TRIPOS>BOND
     1    28    29    1
     2    29    30    1
     3    30    31    2
     4    30    32   am
     5    22    21    2
     6    32    33    1
     7    21    20    1
     8    81    80    2
     9    79    78    1
    10    79    80    1
    11    79    82    1
    12    83    82    1
    13    80    84   am
    14     9     8    1
    15    33    36    1
    16    33    34    1
    17    19    20    1
    18    20    23    1
    19    24    23    1
    20    24    25    1
    21    84    85    1
    22    35    34    2
    23     8     7    1
    24    36    38    1
    25    36    37    1
    26    34    40   am
    27    85    86    1
    28     7     6    1
    29    25    27   ar
    30    25    26   ar
    31    40    41    1
    32     6     5    1
    33    37    39    1
    34    86    88   am
    35    86    87    2
    36    52    50   ar
    37    52    54   ar
    38    55    54    1
    39    88    89    1
    40    41    42    1
    41     5     2    1
    42    50    49   ar
    43    54    53   ar
    44    89    92    1
    45    89    90    1
    46     4     3    2
    47     2     3    1
    48     2     1    1
    49    42    43    2
    50    42    44   am
    51    49    51   ar
    52    49    48    1
    53     3    10   am
    54    53    51   ar
    55    44    45    1
    56    77    76    1
    57    90    91    2
    58    90    93   am
    59    48    45    1
    60    45    46    1
    61    93    94    1
    62    10    11    1
    63    99    98    2
    64    76    75   ar
    65    76    74   ar
    66    75    73   ar
    67   100    98   am
    68    98    97    1
    69    11    12    1
    70    11    14    1
    71    15    14    1
    72    15    16    1
    73    47    46    2
    74    46    56   am
    75    18    16   ar
    76    74    72   ar
    77    94    97    1
    78    94    95    1
    79    73    71   ar
    80    12    13    2
    81    16    17   ar
    82    56    57    1
    83    95    96    2
    84    72    71   ar
    85    71    70    1
    86    64    62   ar
    87    64    65   ar
    88    62    61   ar
    89    57    58    1
    90    57    60    1
    91    65    63   ar
    92    70    67    1
    93    61    63   ar
    94    61    60    1
    95    58    66   am
    96    58    59    2
    97    66    67    1
    98    67    68    1
    99    69    68    2
