@<TRIPOS>MOLECULE
tmp/3sajD02.pdb
 94 90 0 0 0
SMALL
GASTEIGER

@<TRIPOS>ATOM
      1  N         18.8320  -48.2760  -50.3710 N.3   121  HIS121     -0.1226
      2  CA        17.6110  -48.2150  -51.1890 C.3   121  HIS121      0.1752
      3  C         17.8910  -47.7920  -52.6300 C.2   121  HIS121      0.2596
      4  O         17.6200  -48.5470  -53.5600 O.2   121  HIS121     -0.2718
      5  CB        16.5290  -47.2930  -50.5890 C.3   121  HIS121      0.0759
      6  CG        15.2660  -47.2430  -51.3990 C.ar  121  HIS121      0.0818
      7  ND1       14.6130  -46.0640  -51.6980 N.ar  121  HIS121     -0.2268
      8  CD2       14.5340  -48.2320  -51.9710 C.ar  121  HIS121      0.1154
      9  CE1       13.5360  -46.3330  -52.4190 C.ar  121  HIS121      0.1986
     10  NE2       13.4660  -47.6350  -52.5980 N.ar  121  HIS121     -0.2212
     11  N         18.4300  -46.5890  -52.8040 N.am  122  TYR122     -0.1976
     12  CA        18.7100  -46.0500  -54.1280 C.3   122  TYR122      0.1639
     13  C         19.9430  -46.7010  -54.7530 C.2   122  TYR122      0.2290
     14  O         20.4900  -46.2000  -55.7320 O.2   122  TYR122     -0.2864
     15  CB        18.8780  -44.5290  -54.0590 C.3   122  TYR122      0.0560
     16  CG        17.6270  -43.7910  -53.6150 C.ar  122  TYR122     -0.0198
     17  CD1       16.6580  -43.4180  -54.5330 C.ar  122  TYR122     -0.0009
     18  CD2       17.4240  -43.4590  -52.2790 C.ar  122  TYR122     -0.0009
     19  CE1       15.5180  -42.7420  -54.1360 C.ar  122  TYR122      0.0417
     20  CE2       16.2860  -42.7810  -51.8730 C.ar  122  TYR122      0.0417
     21  CZ        15.3370  -42.4260  -52.8080 C.ar  122  TYR122      0.1957
     22  OH        14.2030  -41.7520  -52.4120 O.3   122  TYR122     -0.2866
     23  N         23.0290  -46.7200  -54.3200 N.3   124  TRP124     -0.1241
     24  CA        24.1980  -45.8800  -54.5930 C.3   124  TRP124      0.1605
     25  C         25.4810  -46.7240  -54.5110 C.2   124  TRP124      0.2264
     26  O         25.5470  -47.6880  -53.7530 O.2   124  TRP124     -0.2867
     27  CB        24.2740  -44.7050  -53.6070 C.3   124  TRP124      0.0550
     28  CG        23.2790  -43.5790  -53.8480 C.ar  124  TRP124      0.0003
     29  CD1       22.1380  -43.6290  -54.5950 C.ar  124  TRP124      0.0946
     30  CD2       23.3510  -42.2450  -53.3190 C.ar  124  TRP124      0.0152
     31  NE1       21.4970  -42.4110  -54.5700 N.ar  124  TRP124     -0.2442
     32  CE2       22.2230  -41.5460  -53.7920 C.ar  124  TRP124      0.0810
     33  CE3       24.2580  -41.5770  -52.4940 C.ar  124  TRP124      0.0012
     34  CZ2       21.9780  -40.2130  -53.4690 C.ar  124  TRP124      0.0191
     35  CZ3       24.0170  -40.2550  -52.1740 C.ar  124  TRP124      0.0001
     36  CH2       22.8870  -39.5880  -52.6600 C.ar  124  TRP124      0.0015
     37  N         21.6640  -35.5300  -56.9300 N.3   209  HIS209     -0.1241
     38  CA        20.7800  -36.1810  -55.9560 C.3   209  HIS209      0.1621
     39  C         21.3320  -36.0480  -54.5380 C.2   209  HIS209      0.2264
     40  O         22.3750  -36.6170  -54.2150 O.2   209  HIS209     -0.2867
     41  CB        20.5880  -37.6610  -56.3070 C.3   209  HIS209      0.0745
     42  CG        19.5650  -38.3600  -55.4660 C.ar  209  HIS209      0.0817
     43  ND1       19.3910  -38.0950  -54.1230 N.ar  209  HIS209     -0.2268
     44  CD2       18.6640  -39.3240  -55.7750 C.ar  209  HIS209      0.1154
     45  CE1       18.4280  -38.8600  -53.6450 C.ar  209  HIS209      0.1986
     46  NE2       17.9690  -39.6160  -54.6260 N.ar  209  HIS209     -0.2212
     47  N         17.4410  -33.3460  -56.8610 N.3   231  ASN231     -0.1240
     48  CA        16.6190  -34.3320  -56.1570 C.3   231  ASN231      0.1653
     49  C         17.0680  -34.3580  -54.7090 C.2   231  ASN231      0.2266
     50  O         18.1730  -34.7920  -54.4130 O.2   231  ASN231     -0.2867
     51  CB        16.7250  -35.7380  -56.7810 C.3   231  ASN231      0.1155
     52  CG        15.5830  -36.6720  -56.3330 C.2   231  ASN231      0.2627
     53  OD1       15.0710  -36.5500  -55.2150 O.2   231  ASN231     -0.2716
     54  ND2       15.1850  -37.6140  -57.2130 N.am  231  ASN231     -0.0877
     55  N         16.5300  -35.5150  -50.7770 N.3   233  THR233     -0.1218
     56  CA        15.9130  -36.4360  -49.8300 C.3   233  THR233      0.1862
     57  C         16.4040  -36.1600  -48.4300 C.2   233  THR233      0.2287
     58  O         17.5850  -35.8730  -48.2210 O.2   233  THR233     -0.2866
     59  CB        16.2470  -37.8920  -50.1410 C.3   233  THR233      0.1770
     60  OG1       15.9780  -38.1530  -51.5180 O.3   233  THR233     -0.2211
     61  CG2       15.4040  -38.8130  -49.2970 C.3   233  THR233      0.0375
     62  N         11.0350  -36.3870  -49.8080 N.3   346  GLU346     -0.1245
     63  CA        11.7560  -36.1310  -51.0460 C.3   346  GLU346      0.1567
     64  C         11.2750  -34.8100  -51.6390 C.2   346  GLU346      0.2260
     65  O         10.1240  -34.4240  -51.4400 O.2   346  GLU346     -0.2867
     66  CB        11.4840  -37.2810  -52.0160 C.3   346  GLU346      0.0388
     67  CG        12.1330  -37.1640  -53.3780 C.3   346  GLU346      0.1160
     68  CD        11.7620  -38.3260  -54.2770 C.2   346  GLU346      0.3649
     69  OE1       10.9190  -39.1510  -53.8630 O.co2 346  GLU346     -0.2457
     70  OE2       12.3090  -38.4180  -55.3950 O.co2 346  GLU346     -0.2457
     71  N         11.6110  -32.1550  -55.2900 N.3   348  LYS348     -0.1245
     72  CA        12.0860  -31.7530  -56.6070 C.3   348  LYS348      0.1561
     73  C         11.1360  -30.6980  -57.1570 C.2   348  LYS348      0.2260
     74  O          9.9210  -30.8960  -57.1640 O.2   348  LYS348     -0.2867
     75  CB        12.1480  -32.9550  -57.5500 C.3   348  LYS348      0.0271
     76  CG        13.5560  -33.3250  -57.9950 C.3   348  LYS348      0.0035
     77  CD        13.5320  -34.2760  -59.1840 C.3   348  LYS348      0.0206
     78  CE        14.1850  -33.6490  -60.4070 C.3   348  LYS348      0.1093
     79  NZ        14.7380  -34.6740  -61.3370 N.3   348  LYS348     -0.1314
     80  N          8.8450  -30.6360  -54.9380 N.3   351  GLY351     -0.1225
     81  CA         8.1590  -31.9060  -54.8540 C.3   351  GLY351      0.1811
     82  C          8.2110  -32.3850  -53.4200 C.2   351  GLY351      0.2280
     83  O          9.1800  -33.0200  -53.0020 O.2   351  GLY351     -0.2866
     84  N          6.9820  -34.9320  -51.4810 N.3   353  ARG353     -0.1245
     85  CA         6.3810  -36.2560  -51.4220 C.3   353  ARG353      0.1563
     86  C          6.9810  -37.0410  -50.2640 C.2   353  ARG353      0.2260
     87  O          8.1250  -36.8070  -49.8720 O.2   353  ARG353     -0.2867
     88  CB         6.6170  -37.0060  -52.7320 C.3   353  ARG353      0.0307
     89  CG         6.1740  -36.2500  -53.9720 C.3   353  ARG353      0.0489
     90  CD         6.1570  -37.1580  -55.1880 C.3   353  ARG353      0.2205
     91  NE         7.4940  -37.6330  -55.5280 N.pl3 353  ARG353     -0.0865
     92  CZ         7.9130  -38.8820  -55.3480 C.cat 353  ARG353      0.5346
     93  NH1        7.0970  -39.7890  -54.8290 N.pl3 353  ARG353      0.1354
     94  NH2        9.1480  -39.2240  -55.6880 N.pl3 353  ARG353      0.1354
@<TRIPOS>BOND
     1    79    78    1
     2    78    77    1
     3    77    76    1
     4    76    75    1
     5    75    72    1
     6    54    52   am
     7    74    73    2
     8    73    72    1
     9    37    38    1
    10    47    48    1
    11    51    52    1
    12    51    48    1
    13    72    71    1
    14    52    53    2
    15    41    38    1
    16    41    42    1
    17    48    49    1
    18    38    39    1
    19    44    42   ar
    20    44    46   ar
    21    14    13    2
    22    94    92    1
    23    91    92    2
    24    91    90    1
    25    42    43   ar
    26    70    68   ar
    27    92    93    1
    28    90    89    1
    29    80    81    1
    30    81    82    1
    31    13    12    1
    32    49    50    2
    33    46    45   ar
    34    29    31   ar
    35    29    28   ar
    36    24    25    1
    37    24    23    1
    38    24    27    1
    39    31    32   ar
    40    39    40    2
    41    17    19   ar
    42    17    16   ar
    43    25    26    2
    44    68    69   ar
    45    68    67    1
    46    19    21   ar
    47    12    15    1
    48    12    11    1
    49    43    45   ar
    50    15    16    1
    51    89    88    1
    52    28    27    1
    53    28    30   ar
    54    32    34   ar
    55    32    30   ar
    56    16    18   ar
    57     4     3    2
    58    34    36   ar
    59    82    83    2
    60    67    66    1
    61    30    33   ar
    62    21    22    1
    63    21    20   ar
    64    11     3   am
    65    88    85    1
    66    36    35   ar
    67     3     2    1
    68    10     9   ar
    69    10     8   ar
    70    33    35   ar
    71     9     7   ar
    72    18    20   ar
    73    66    63    1
    74     8     6   ar
    75     7     6   ar
    76    64    65    2
    77    64    63    1
    78    60    59    1
    79    84    85    1
    80    85    86    1
    81     6     5    1
    82     2     5    1
    83     2     1    1
    84    63    62    1
    85    55    56    1
    86    86    87    2
    87    59    56    1
    88    59    61    1
    89    56    57    1
    90    57    58    2
