@<TRIPOS>MOLECULE
tmp/3sanA01.pdb
 183 172 0 0 0
SMALL
GASTEIGER

@<TRIPOS>ATOM
      1  N        -15.2290   13.5630   53.0860 N.3    37  ARG37      -0.1231
      2  CA       -16.6700   13.7180   52.9080 C.3    37  ARG37       0.1694
      3  C        -16.8860   14.1280   51.4630 C.2    37  ARG37       0.2591
      4  O        -15.9230   14.2580   50.7060 O.2    37  ARG37      -0.2718
      5  CB       -17.3030   14.7160   53.8920 C.3    37  ARG37       0.0321
      6  CG       -18.0210   14.0460   55.0740 C.3    37  ARG37       0.0489
      7  CD       -19.2150   14.8800   55.5470 C.3    37  ARG37       0.2205
      8  NE       -20.2140   14.9840   54.4900 N.pl3  37  ARG37      -0.0865
      9  CZ       -21.0650   15.9950   54.3420 C.cat  37  ARG37       0.5346
     10  NH1      -21.0590   17.0170   55.1930 N.pl3  37  ARG37       0.1354
     11  NH2      -21.9230   15.9820   53.3300 N.pl3  37  ARG37       0.1354
     12  N        -18.1420   14.3030   51.0720 N.am   38  GLU38      -0.1979
     13  CA       -18.4590   14.7030   49.7040 C.3    38  GLU38       0.1602
     14  C        -17.8390   13.7790   48.6410 C.2    38  GLU38       0.2287
     15  O        -17.1620   14.2400   47.7160 O.2    38  GLU38      -0.2864
     16  CB       -18.0440   16.1630   49.4650 C.3    38  GLU38       0.0415
     17  CG       -18.7370   17.1770   50.3860 C.3    38  GLU38       0.1163
     18  CD       -18.0610   17.3570   51.7410 C.2    38  GLU38       0.3649
     19  OE1      -16.8290   17.1700   51.8470 O.co2  38  GLU38      -0.2457
     20  OE2      -18.7670   17.7130   52.7100 O.co2  38  GLU38      -0.2457
     21  N        -13.3660   14.3970   48.8380 N.3    53  LEU53      -0.1245
     22  CA       -12.5950   15.4560   49.4680 C.3    53  LEU53       0.1561
     23  C        -12.0080   14.9480   50.7690 C.2    53  LEU53       0.2260
     24  O        -12.7350   14.7190   51.7340 O.2    53  LEU53      -0.2867
     25  CB       -13.4780   16.6700   49.7520 C.3    53  LEU53       0.0270
     26  CG       -14.1250   17.3300   48.5360 C.3    53  LEU53       0.0019
     27  CD1      -14.9660   18.5210   48.9790 C.3    53  LEU53       0.0001
     28  CD2      -13.0690   17.7580   47.5180 C.3    53  LEU53       0.0001
     29  N        -15.8670   22.2040   57.4570 N.3    70  ASP70      -0.1225
     30  CA       -16.0360   22.0580   56.0140 C.3    70  ASP70       0.1805
     31  C        -14.8330   22.4460   55.1630 C.2    70  ASP70       0.2597
     32  O        -14.6030   21.8520   54.1100 O.2    70  ASP70      -0.2718
     33  CB       -17.2520   22.8520   55.5360 C.3    70  ASP70       0.1424
     34  CG       -18.5530   22.1780   55.8880 C.2    70  ASP70       0.3668
     35  OD1      -18.7160   20.9960   55.5170 O.co2  70  ASP70      -0.2456
     36  OD2      -19.4050   22.8250   56.5330 O.co2  70  ASP70      -0.2456
     37  N        -14.0830   23.4550   55.5900 N.am   71  ARG71      -0.1979
     38  CA       -13.0510   24.0020   54.7200 C.3    71  ARG71       0.1597
     39  C        -11.7430   24.1970   55.4690 C.2    71  ARG71       0.2287
     40  O        -11.7370   24.6400   56.6100 O.2    71  ARG71      -0.2864
     41  CB       -13.5290   25.3200   54.0870 C.3    71  ARG71       0.0334
     42  CG       -14.8630   25.1750   53.3380 C.3    71  ARG71       0.0492
     43  CD       -15.3870   26.5040   52.7930 C.3    71  ARG71       0.2205
     44  NE       -15.6830   27.4670   53.8570 N.pl3  71  ARG71      -0.0865
     45  CZ       -16.7750   27.4390   54.6130 C.cat  71  ARG71       0.5346
     46  NH1      -17.6870   26.4890   54.4320 N.pl3  71  ARG71       0.1354
     47  NH2      -16.9520   28.3560   55.5580 N.pl3  71  ARG71       0.1354
     48  N         -7.5850   20.0740   52.7940 N.3    75  ARG75      -0.1245
     49  CA        -8.4980   19.2430   52.0130 C.3    75  ARG75       0.1563
     50  C         -8.0440   19.1540   50.5570 C.2    75  ARG75       0.2260
     51  O         -7.5830   20.1390   49.9720 O.2    75  ARG75      -0.2867
     52  CB        -9.9370   19.7560   52.1040 C.3    75  ARG75       0.0307
     53  CG       -10.4380   19.8950   53.5330 C.3    75  ARG75       0.0489
     54  CD       -11.9680   19.8270   53.6040 C.3    75  ARG75       0.2205
     55  NE       -12.4680   18.4800   53.3210 N.pl3  75  ARG75      -0.0865
     56  CZ       -13.7490   18.1280   53.3960 C.cat  75  ARG75       0.5346
     57  NH1      -14.6670   19.0240   53.7320 N.pl3  75  ARG75       0.1354
     58  NH2      -14.1180   16.8800   53.1340 N.pl3  75  ARG75       0.1354
     59  N        -11.6330   22.1650   48.7390 N.3    98  TRP98      -0.1227
     60  CA       -12.6850   21.9310   49.7250 C.3    98  TRP98       0.1737
     61  C        -14.0790   21.9410   49.0820 C.2    98  TRP98       0.2596
     62  O        -15.0910   21.7990   49.7620 O.2    98  TRP98      -0.2718
     63  CB       -12.5820   22.8570   50.9540 C.3    98  TRP98       0.0564
     64  CG       -12.2800   24.3230   50.7260 C.ar   98  TRP98       0.0003
     65  CD1      -11.1290   24.9820   51.0690 C.ar   98  TRP98       0.0946
     66  CD2      -13.1570   25.3150   50.1740 C.ar   98  TRP98       0.0152
     67  NE1      -11.2290   26.3190   50.7450 N.ar   98  TRP98      -0.2442
     68  CE2      -12.4630   26.5480   50.1940 C.ar   98  TRP98       0.0810
     69  CE3      -14.4560   25.2800   49.6520 C.ar   98  TRP98       0.0012
     70  CZ2      -13.0240   27.7330   49.7140 C.ar   98  TRP98       0.0191
     71  CZ3      -15.0140   26.4610   49.1770 C.ar   98  TRP98       0.0001
     72  CH2      -14.2970   27.6700   49.2110 C.ar   98  TRP98       0.0015
     73  N        -14.1060   22.0850   47.7580 N.am   99  SER99      -0.1952
     74  CA       -15.3230   21.9130   46.9580 C.3    99  SER99       0.1924
     75  C        -14.8550   21.5450   45.5540 C.2    99  SER99       0.2314
     76  O        -13.8300   22.0510   45.0950 O.2    99  SER99      -0.2863
     77  CB       -16.1520   23.1970   46.9310 C.3    99  SER99       0.2116
     78  OG       -17.3320   23.0310   46.1490 O.3    99  SER99      -0.2180
     79  N        -17.5190   32.3080   49.6410 N.3   142  ILE142     -0.1245
     80  CA       -17.4600   30.8500   49.5390 C.3   142  ILE142      0.1561
     81  C        -17.8740   30.3230   48.1660 C.2   142  ILE142      0.2260
     82  O        -18.8870   29.6370   48.0170 O.2   142  ILE142     -0.2867
     83  CB       -18.2540   30.1510   50.6660 C.3   142  ILE142      0.0252
     84  CG1      -17.9170   30.7960   52.0150 C.3   142  ILE142      0.0019
     85  CG2      -17.9400   28.6460   50.6910 C.3   142  ILE142      0.0019
     86  CD1      -18.6930   30.2310   53.1880 C.3   142  ILE142      0.0001
     87  N        -18.2810   27.9070   45.3920 N.3   144  ARG144     -0.1245
     88  CA       -18.5120   26.4880   45.6190 C.3   144  ARG144      0.1563
     89  C        -19.1720   25.8370   44.4150 C.2   144  ARG144      0.2260
     90  O        -19.7550   26.5190   43.5710 O.2   144  ARG144     -0.2867
     91  CB       -19.3480   26.2880   46.8890 C.3   144  ARG144      0.0307
     92  CG       -20.6510   27.0730   46.9280 C.3   144  ARG144      0.0489
     93  CD       -21.0800   27.2710   48.3770 C.3   144  ARG144      0.2205
     94  NE       -22.3950   27.8930   48.5480 N.pl3 144  ARG144     -0.0865
     95  CZ       -22.6160   29.2040   48.6120 C.cat 144  ARG144      0.5346
     96  NH1      -21.6110   30.0570   48.4820 N.pl3 144  ARG144      0.1354
     97  NH2      -23.8510   29.6610   48.8000 N.pl3 144  ARG144      0.1354
     98  N        -19.8960   19.0880   43.9210 N.3   147  GLU147     -0.1245
     99  CA       -19.5680   17.8900   44.7020 C.3   147  GLU147      0.1567
    100  C        -20.1340   16.6350   44.0270 C.2   147  GLU147      0.2260
    101  O        -20.5350   15.6750   44.6920 O.2   147  GLU147     -0.2867
    102  CB       -20.0570   17.9800   46.1530 C.3   147  GLU147      0.0388
    103  CG       -20.0800   19.3790   46.7480 C.3   147  GLU147      0.1160
    104  CD       -18.7080   20.0100   46.8870 C.2   147  GLU147      0.3649
    105  OE1      -17.7040   19.3790   46.4990 O.co2 147  GLU147     -0.2457
    106  OE2      -18.6340   21.1520   47.3900 O.co2 147  GLU147     -0.2457
    107  N        -25.3380   31.6050   52.1040 N.3   166  ALA166     -0.1245
    108  CA       -25.8350   30.2450   52.2300 C.3   166  ALA166      0.1562
    109  C        -27.3410   30.2240   52.4720 C.2   166  ALA166      0.2260
    110  O        -28.0050   29.2420   52.1430 O.2   166  ALA166     -0.2867
    111  CB       -25.1190   29.5270   53.3680 C.3   166  ALA166      0.0290
    112  N        -27.4470   25.1650   44.8340 N.3   196  GLU196     -0.1231
    113  CA       -26.1690   24.6610   45.3170 C.3   196  GLU196      0.1699
    114  C        -26.0350   23.2010   44.9420 C.2   196  GLU196      0.2592
    115  O        -27.0370   22.5070   44.7530 O.2   196  GLU196     -0.2718
    116  CB       -26.0860   24.7440   46.8410 C.3   196  GLU196      0.0402
    117  CG       -26.1390   26.1430   47.3910 C.3   196  GLU196      0.1161
    118  CD       -25.8510   26.1810   48.8710 C.2   196  GLU196      0.3649
    119  OE1      -26.2970   25.2530   49.5830 O.co2 196  GLU196     -0.2457
    120  OE2      -25.1880   27.1400   49.3200 O.co2 196  GLU196     -0.2457
    121  N        -24.7930   22.7360   44.8600 N.am  197  GLU197     -0.1979
    122  CA       -24.5040   21.3070   44.7900 C.3   197  GLU197      0.1602
    123  C        -25.3440   20.5650   43.7510 C.2   197  GLU197      0.2287
    124  O        -25.9640   19.5370   44.0390 O.2   197  GLU197     -0.2864
    125  CB       -24.6580   20.6910   46.1820 C.3   197  GLU197      0.0415
    126  CG       -23.6280   21.2360   47.1580 C.3   197  GLU197      0.1163
    127  CD       -23.8540   20.8120   48.5920 C.2   197  GLU197      0.3649
    128  OE1      -24.9820   20.3980   48.9370 O.co2 197  GLU197     -0.2457
    129  OE2      -22.8900   20.9090   49.3790 O.co2 197  GLU197     -0.2457
    130  N        -29.7700   21.6990   45.2030 N.3   212  ARG212     -0.1245
    131  CA       -30.1470   21.9380   46.5870 C.3   212  ARG212      0.1563
    132  C        -30.4760   23.4120   46.7750 C.2   212  ARG212      0.2260
    133  O        -29.6880   24.2750   46.4050 O.2   212  ARG212     -0.2867
    134  CB       -28.9860   21.5470   47.5050 C.3   212  ARG212      0.0307
    135  CG       -29.0690   22.0620   48.9430 C.3   212  ARG212      0.0489
    136  CD       -27.7730   21.7040   49.6790 C.3   212  ARG212      0.2205
    137  NE       -27.6980   22.2110   51.0500 N.pl3 212  ARG212     -0.0865
    138  CZ       -26.7680   21.8360   51.9300 C.cat 212  ARG212      0.5346
    139  NH1      -25.8490   20.9370   51.5950 N.pl3 212  ARG212      0.1354
    140  NH2      -26.7610   22.3450   53.1560 N.pl3 212  ARG212      0.1354
    141  N        -30.8680   26.0160   49.6490 N.3   214  ASN214     -0.1240
    142  CA       -30.5040   26.0920   51.0680 C.3   214  ASN214      0.1653
    143  C        -31.1520   27.2940   51.7450 C.2   214  ASN214      0.2266
    144  O        -30.7520   27.7090   52.8430 O.2   214  ASN214     -0.2867
    145  CB       -28.9830   26.1660   51.2180 C.3   214  ASN214      0.1155
    146  CG       -28.4960   25.5790   52.5280 C.2   214  ASN214      0.2627
    147  OD1      -28.7270   24.4040   52.8160 O.2   214  ASN214     -0.2716
    148  ND2      -27.8010   26.3900   53.3210 N.am  214  ASN214     -0.0877
    149  N        -31.7110   25.2130   55.2980 N.3   268  TYR268     -0.1241
    150  CA       -30.8330   24.0530   55.2240 C.3   268  TYR268      0.1605
    151  C        -31.2480   23.2040   54.0470 C.2   268  TYR268      0.2264
    152  O        -32.1200   23.5910   53.2690 O.2   268  TYR268     -0.2867
    153  CB       -30.8470   23.2390   56.5270 C.3   268  TYR268      0.0534
    154  CG       -29.5840   22.4320   56.7730 C.ar  268  TYR268     -0.0201
    155  CD1      -28.3250   23.0110   56.6310 C.ar  268  TYR268     -0.0009
    156  CD2      -29.6510   21.0970   57.1690 C.ar  268  TYR268     -0.0009
    157  CE1      -27.1640   22.2800   56.8660 C.ar  268  TYR268      0.0417
    158  CE2      -28.4970   20.3590   57.4070 C.ar  268  TYR268      0.0417
    159  CZ       -27.2580   20.9580   57.2510 C.ar  268  TYR268      0.1957
    160  OH       -26.1130   20.2380   57.4910 O.3   268  TYR268     -0.2866
    161  N        -30.4600   13.4100   58.2460 N.3   292  ARG292     -0.1245
    162  CA       -29.8220   12.6690   57.1680 C.3   292  ARG292      0.1563
    163  C        -29.7120   11.1960   57.5470 C.2   292  ARG292      0.2260
    164  O        -28.6230   10.6880   57.8340 O.2   292  ARG292     -0.2867
    165  CB       -28.4580   13.2800   56.8380 C.3   292  ARG292      0.0307
    166  CG       -28.5790   14.7100   56.3090 C.3   292  ARG292      0.0489
    167  CD       -27.2690   15.4840   56.3570 C.3   292  ARG292      0.2205
    168  NE       -27.4070   16.7640   55.6620 N.pl3 292  ARG292     -0.0865
    169  CZ       -26.3900   17.5510   55.3260 C.cat 292  ARG292      0.5346
    170  NH1      -25.1460   17.2050   55.6390 N.pl3 292  ARG292      0.1354
    171  NH2      -26.6210   18.6900   54.6780 N.pl3 292  ARG292      0.1354
    172  N        -25.1670   13.0430   51.5640 N.3   326  TYR326     -0.1241
    173  CA       -25.2840   13.4830   50.1730 C.3   326  TYR326      0.1605
    174  C        -25.6240   12.3370   49.2330 C.2   326  TYR326      0.2264
    175  O        -25.3220   11.1830   49.5130 O.2   326  TYR326     -0.2867
    176  CB       -23.9700   14.1170   49.7160 C.3   326  TYR326      0.0534
    177  CG       -23.7950   15.5470   50.1640 C.ar  326  TYR326     -0.0201
    178  CD1      -24.6260   16.0970   51.1300 C.ar  326  TYR326     -0.0009
    179  CD2      -22.8020   16.3490   49.6160 C.ar  326  TYR326     -0.0009
    180  CE1      -24.4840   17.4060   51.5340 C.ar  326  TYR326      0.0417
    181  CE2      -22.6470   17.6620   50.0190 C.ar  326  TYR326      0.0417
    182  CZ       -23.4980   18.1850   50.9760 C.ar  326  TYR326      0.1957
    183  OH       -23.3640   19.4890   51.3890 O.3   326  TYR326     -0.2866
@<TRIPOS>BOND
     1    90    89    2
     2   123   124    2
     3   123   122    1
     4    98    99    1
     5   100   101    2
     6   100    99    1
     7    89    88    1
     8    99   102    1
     9   115   114    2
    10   122   121    1
    11   122   125    1
    12   112   113    1
    13   121   114   am
    14   114   113    1
    15    76    75    2
    16   130   131    1
    17   113   116    1
    18    87    88    1
    19    75    74    1
    20    88    91    1
    21    78    77    1
    22   102   103    1
    23   125   126    1
    24   133   132    2
    25   105   104   ar
    26   131   132    1
    27   131   134    1
    28   103   104    1
    29   116   117    1
    30   104   106   ar
    31    91    92    1
    32    92    93    1
    33    77    74    1
    34    74    73    1
    35   126   127    1
    36   117   118    1
    37   134   135    1
    38    28    26    1
    39    15    14    2
    40    73    61   am
    41    82    81    2
    42    81    80    1
    43    93    94    1
    44    96    95    1
    45    26    27    1
    46    26    25    1
    47    94    95    2
    48   127   128   ar
    49   127   129   ar
    50    95    97    1
    51    14    13    1
    52    59    60    1
    53    21    22    1
    54   118   120   ar
    55   118   119   ar
    56   135   136    1
    57    61    60    1
    58    61    62    2
    59    71    72   ar
    60    71    69   ar
    61    72    70   ar
    62   174   175    2
    63   174   173    1
    64    16    13    1
    65    16    17    1
    66    22    25    1
    67    22    23    1
    68    80    79    1
    69    80    83    1
    70   179   181   ar
    71   179   177   ar
    72   141   142    1
    73    69    66   ar
    74   136   137    1
    75    13    12    1
    76    70    68   ar
    77   176   177    1
    78   176   173    1
    79    60    63    1
    80    51    50    2
    81   181   182   ar
    82   177   178   ar
    83   173   172    1
    84    66    68   ar
    85    66    64   ar
    86    68    67   ar
    87    17    18    1
    88    50    49    1
    89    83    85    1
    90    83    84    1
    91     4     3    2
    92    64    63    1
    93    64    65   ar
    94    67    65   ar
    95    23    24    2
    96   182   183    1
    97   182   180   ar
    98   137   138    2
    99   142   145    1
   100   142   143    1
   101    12     3   am
   102   178   180   ar
   103   145   146    1
   104     3     2    1
   105   139   138    1
   106    18    19   ar
   107    18    20   ar
   108   143   144    2
   109   138   140    1
   110    49    52    1
   111    49    48    1
   112    84    86    1
   113   107   108    1
   114    52    53    1
   115   110   109    2
   116   108   109    1
   117   108   111    1
   118   146   147    2
   119   146   148   am
   120    43    42    1
   121    43    44    1
   122     2     1    1
   123     2     5    1
   124    58    56    1
   125   152   151    2
   126    55    56    2
   127    55    54    1
   128    11     9    1
   129    42    41    1
   130    56    57    1
   131    53    54    1
   132    44    45    2
   133     5     6    1
   134   151   150    1
   135    41    38    1
   136    32    31    2
   137     9     8    2
   138     9    10    1
   139    46    45    1
   140     8     7    1
   141    45    47    1
   142   171   169    1
   143    38    39    1
   144    38    37    1
   145     6     7    1
   146    31    37   am
   147    31    30    1
   148   150   149    1
   149   150   153    1
   150   169   170    1
   151   169   168    2
   152    39    40    2
   153    35    34   ar
   154    33    34    1
   155    33    30    1
   156   168   167    1
   157    34    36   ar
   158    30    29    1
   159   166   167    1
   160   166   165    1
   161   153   154    1
   162   155   154   ar
   163   155   157   ar
   164   154   156   ar
   165   165   162    1
   166   157   159   ar
   167   162   163    1
   168   162   161    1
   169   156   158   ar
   170   159   158   ar
   171   159   160    1
   172   163   164    2
