@<TRIPOS>MOLECULE
tmp/3saoA00.pdb
 173 162 0 0 0
SMALL
GASTEIGER

@<TRIPOS>ATOM
      1  N        -27.2450    6.8450  -14.5180 N.3     3  VAL3       -0.1245
      2  CA       -25.8590    6.3820  -14.5840 C.3     3  VAL3        0.1561
      3  C        -24.9830    6.8520  -13.3860 C.2     3  VAL3        0.2260
      4  O        -23.8460    6.3830  -13.2190 O.2     3  VAL3       -0.2867
      5  CB       -25.2670    6.7700  -15.9750 C.3     3  VAL3        0.0252
      6  CG1      -23.7730    6.9690  -15.9120 C.3     3  VAL3        0.0019
      7  CG2      -25.6170    5.6740  -17.0190 C.3     3  VAL3        0.0019
      8  N        -19.7310    2.0320  -10.2020 N.3     7  TRP7       -0.1241
      9  CA       -19.5590    1.0740  -11.2970 C.3     7  TRP7        0.1605
     10  C        -18.2560    0.2990  -11.0980 C.2     7  TRP7        0.2264
     11  O        -17.3870    0.7190  -10.3320 O.2     7  TRP7       -0.2867
     12  CB       -19.4870    1.8040  -12.6270 C.3     7  TRP7        0.0550
     13  CG       -20.7590    2.4370  -13.0920 C.ar    7  TRP7        0.0003
     14  CD1      -21.2690    3.6730  -12.7230 C.ar    7  TRP7        0.0946
     15  CD2      -21.7430    1.8470  -13.9610 C.ar    7  TRP7        0.0152
     16  NE1      -22.5000    3.8670  -13.3160 N.ar    7  TRP7       -0.2442
     17  CE2      -22.8050    2.7780  -14.0920 C.ar    7  TRP7        0.0810
     18  CE3      -21.8030    0.6470  -14.6870 C.ar    7  TRP7        0.0012
     19  CZ2      -23.9090    2.5460  -14.9300 C.ar    7  TRP7        0.0191
     20  CZ3      -22.9200    0.4060  -15.4970 C.ar    7  TRP7        0.0001
     21  CH2      -23.9530    1.3590  -15.6160 C.ar    7  TRP7        0.0015
     22  N        -19.2630    7.6570  -10.9000 N.3    33  ILE33      -0.1245
     23  CA       -19.6220    8.6920  -11.8640 C.3    33  ILE33       0.1561
     24  C        -20.5030    9.7220  -11.1850 C.2    33  ILE33       0.2260
     25  O        -21.5010    9.3300  -10.5430 O.2    33  ILE33      -0.2867
     26  CB       -20.4190    8.0690  -13.0460 C.3    33  ILE33       0.0252
     27  CG1      -19.5980    6.9980  -13.7600 C.3    33  ILE33       0.0019
     28  CG2      -20.8320    9.1510  -14.0210 C.3    33  ILE33       0.0019
     29  CD1      -20.3230    6.3890  -14.9610 C.3    33  ILE33       0.0001
     30  N        -22.3170   13.7510  -12.0570 N.3    35  PHE35      -0.1241
     31  CA       -22.6680   14.6940  -13.1100 C.3    35  PHE35       0.1605
     32  C        -22.5400   16.1260  -12.5970 C.2    35  PHE35       0.2264
     33  O        -22.8200   16.3990  -11.4320 O.2    35  PHE35      -0.2867
     34  CB       -24.0810   14.4150  -13.6220 C.3    35  PHE35       0.0534
     35  CG       -24.1640   13.1600  -14.4740 C.ar   35  PHE35      -0.0203
     36  CD1      -24.7560   12.0050  -13.9860 C.ar   35  PHE35      -0.0042
     37  CD2      -23.5710   13.1190  -15.7300 C.ar   35  PHE35      -0.0042
     38  CE1      -24.8110   10.8460  -14.7530 C.ar   35  PHE35      -0.0003
     39  CE2      -23.6160   11.9600  -16.5080 C.ar   35  PHE35      -0.0003
     40  CZ       -24.2290   10.8160  -16.0090 C.ar   35  PHE35      -0.0000
     41  N        -19.2490   15.2190  -16.7440 N.3    41  LEU41      -0.1245
     42  CA       -19.2040   14.2320  -15.6570 C.3    41  LEU41       0.1561
     43  C        -17.7910   14.0050  -15.2230 C.2    41  LEU41       0.2260
     44  O        -16.8660   14.0910  -16.0500 O.2    41  LEU41      -0.2867
     45  CB       -19.8290   12.9030  -16.0890 C.3    41  LEU41       0.0270
     46  CG       -19.3400   12.2620  -17.3600 C.3    41  LEU41       0.0019
     47  CD1      -18.2920   11.2450  -17.0010 C.3    41  LEU41       0.0001
     48  CD2      -20.5210   11.5970  -18.0920 C.3    41  LEU41       0.0001
     49  N        -15.3980   11.1350  -13.4690 N.3    43  VAL43      -0.1245
     50  CA       -15.2190    9.7580  -13.0630 C.3    43  VAL43       0.1561
     51  C        -14.0880    9.6540  -12.0340 C.2    43  VAL43       0.2260
     52  O        -12.9620   10.1260  -12.2640 O.2    43  VAL43      -0.2867
     53  CB       -14.9450    8.8310  -14.2590 C.3    43  VAL43       0.0252
     54  CG1      -14.9640    7.3410  -13.7970 C.3    43  VAL43       0.0019
     55  CG2      -15.9030    9.1310  -15.3890 C.3    43  VAL43       0.0019
     56  N        -11.7230    6.9250  -10.0530 N.3    45  TYR45      -0.1241
     57  CA       -11.3130    5.5390  -10.2230 C.3    45  TYR45       0.1605
     58  C        -10.4650    5.1080   -9.0230 C.2    45  TYR45       0.2264
     59  O         -9.8080    5.9510   -8.3970 O.2    45  TYR45      -0.2867
     60  CB       -10.4210    5.4050  -11.4490 C.3    45  TYR45       0.0534
     61  CG       -10.9820    5.9410  -12.7340 C.ar   45  TYR45      -0.0201
     62  CD1      -11.7000    5.1190  -13.5840 C.ar   45  TYR45      -0.0009
     63  CD2      -10.7270    7.2410  -13.1380 C.ar   45  TYR45      -0.0009
     64  CE1      -12.1620    5.5820  -14.8270 C.ar   45  TYR45       0.0417
     65  CE2      -11.2000    7.7170  -14.3790 C.ar   45  TYR45       0.0417
     66  CZ       -11.8890    6.8780  -15.2150 C.ar   45  TYR45       0.1957
     67  OH       -12.3810    7.3450  -16.4220 O.3    45  TYR45      -0.2866
     68  N        -15.0000   14.5450  -18.0310 N.3    60  PHE60      -0.1241
     69  CA       -15.3670   14.4930  -19.4300 C.3    60  PHE60       0.1605
     70  C        -16.5040   15.4320  -19.7380 C.2    60  PHE60       0.2264
     71  O        -17.4830   15.5430  -19.0070 O.2    60  PHE60      -0.2867
     72  CB       -15.7950   13.0760  -19.7930 C.3    60  PHE60       0.0534
     73  CG       -14.7190   12.0840  -19.6770 C.ar   60  PHE60      -0.0203
     74  CD1      -13.8890   11.8070  -20.7670 C.ar   60  PHE60      -0.0042
     75  CD2      -14.5300   11.3800  -18.5000 C.ar   60  PHE60      -0.0042
     76  CE1      -12.8630   10.9120  -20.6380 C.ar   60  PHE60      -0.0003
     77  CE2      -13.5490   10.4210  -18.4060 C.ar   60  PHE60      -0.0003
     78  CZ       -12.6880   10.2300  -19.4640 C.ar   60  PHE60      -0.0000
     79  N        -17.6420   11.8940  -25.4220 N.3    65  TYR65      -0.1241
     80  CA       -17.1890   12.8070  -24.3970 C.3    65  TYR65       0.1605
     81  C        -15.6760   12.9300  -24.4720 C.2    65  TYR65       0.2264
     82  O        -15.0040   12.0070  -24.9290 O.2    65  TYR65      -0.2867
     83  CB       -17.5650   12.3170  -23.0100 C.3    65  TYR65       0.0534
     84  CG       -19.0220   12.1770  -22.7280 C.ar   65  TYR65      -0.0201
     85  CD1      -19.6400   13.0030  -21.8210 C.ar   65  TYR65      -0.0009
     86  CD2      -19.7720   11.1580  -23.3200 C.ar   65  TYR65      -0.0009
     87  CE1      -20.9660   12.8750  -21.5330 C.ar   65  TYR65       0.0417
     88  CE2      -21.1050   11.0320  -23.0570 C.ar   65  TYR65       0.0417
     89  CZ       -21.6960   11.8870  -22.1530 C.ar   65  TYR65       0.1957
     90  OH       -23.0290   11.7640  -21.8470 O.3    65  TYR65      -0.2866
     91  N         -8.1850   12.6110  -24.0190 N.3    72  LYS72      -0.1245
     92  CA        -8.8500   11.3290  -24.0730 C.3    72  LYS72       0.1561
     93  C        -10.2670   11.5580  -24.5400 C.2    72  LYS72       0.2260
     94  O        -10.9780   12.4460  -24.0420 O.2    72  LYS72      -0.2867
     95  CB        -8.7860   10.6350  -22.7050 C.3    72  LYS72       0.0271
     96  CG        -9.4890    9.3060  -22.6290 C.3    72  LYS72       0.0035
     97  CD        -9.4370    8.7980  -21.1840 C.3    72  LYS72       0.0206
     98  CE        -9.6730    7.3230  -21.0880 C.3    72  LYS72       0.1093
     99  NZ        -9.6110    6.8650  -19.6660 N.3    72  LYS72      -0.1314
    100  N        -13.8820    9.4920  -25.3050 N.3    74  VAL74      -0.1245
    101  CA       -14.6190    8.2760  -24.9930 C.3    74  VAL74       0.1561
    102  C        -15.9610    8.2310  -25.6970 C.2    74  VAL74       0.2260
    103  O        -16.6540    9.2290  -25.7820 O.2    74  VAL74      -0.2867
    104  CB       -14.8380    8.1030  -23.4760 C.3    74  VAL74       0.0252
    105  CG1      -13.5210    7.9190  -22.7790 C.3    74  VAL74       0.0019
    106  CG2      -15.5520    9.3110  -22.8950 C.3    74  VAL74       0.0019
    107  N        -19.5520    5.9230  -26.1440 N.3    76  VAL76      -0.1245
    108  CA       -20.4120    4.9040  -25.6050 C.3    76  VAL76       0.1561
    109  C        -20.9070    4.1310  -26.8190 C.2    76  VAL76       0.2260
    110  O        -21.5990    4.6750  -27.6930 O.2    76  VAL76      -0.2867
    111  CB       -21.6070    5.4930  -24.8130 C.3    76  VAL76       0.0252
    112  CG1      -22.4280    4.3710  -24.1960 C.3    76  VAL76       0.0019
    113  CG2      -21.1380    6.4670  -23.7250 C.3    76  VAL76       0.0019
    114  N        -25.1350    0.6220  -24.2520 N.3    79  THR79      -0.1218
    115  CA       -25.4940    0.6550  -22.8400 C.3    79  THR79       0.1862
    116  C        -27.0020    0.5810  -22.5920 C.2    79  THR79       0.2287
    117  O        -27.8100    1.0360  -23.4150 O.2    79  THR79      -0.2866
    118  CB       -24.9510    1.9380  -22.1350 C.3    79  THR79       0.1770
    119  OG1      -25.2930    1.8850  -20.7570 O.3    79  THR79      -0.2211
    120  CG2      -25.5230    3.1870  -22.7340 C.3    79  THR79       0.0375
    121  N        -27.9490    1.8780  -19.6780 N.3    81  TYR81      -0.1241
    122  CA       -28.0060    3.0420  -18.7670 C.3    81  TYR81       0.1605
    123  C        -28.3130    2.6500  -17.3390 C.2    81  TYR81       0.2264
    124  O        -28.6710    3.5120  -16.5480 O.2    81  TYR81      -0.2867
    125  CB       -29.0180    4.1110  -19.2290 C.3    81  TYR81       0.0534
    126  CG       -28.5810    4.8660  -20.4510 C.ar   81  TYR81      -0.0201
    127  CD1      -27.5450    5.7920  -20.3880 C.ar   81  TYR81      -0.0009
    128  CD2      -29.1650    4.6160  -21.6870 C.ar   81  TYR81      -0.0009
    129  CE1      -27.1120    6.4530  -21.5260 C.ar   81  TYR81       0.0417
    130  CE2      -28.7470    5.2780  -22.8250 C.ar   81  TYR81       0.0417
    131  CZ       -27.7160    6.1860  -22.7430 C.ar   81  TYR81       0.1957
    132  OH       -27.3060    6.8520  -23.8820 O.3    81  TYR81      -0.2866
    133  N        -22.1950   -0.8440  -19.6220 N.3    85  ALA85      -0.1245
    134  CA       -21.9100    0.0140  -20.7590 C.3    85  ALA85       0.1562
    135  C        -20.5950   -0.4380  -21.4110 C.2    85  ALA85       0.2260
    136  O        -19.6420   -0.7770  -20.7170 O.2    85  ALA85      -0.2867
    137  CB       -21.7840    1.4550  -20.3520 C.3    85  ALA85       0.0290
    138  N        -17.5640    1.0170  -23.6620 N.3    87  ILE87      -0.1245
    139  CA       -16.9420    2.3180  -23.8930 C.3    87  ILE87       0.1561
    140  C        -15.7200    2.1020  -24.7460 C.2    87  ILE87       0.2260
    141  O        -14.8980    1.2090  -24.4800 O.2    87  ILE87      -0.2867
    142  CB       -16.4410    2.9770  -22.5630 C.3    87  ILE87       0.0252
    143  CG1      -17.5760    3.1100  -21.5720 C.3    87  ILE87       0.0019
    144  CG2      -15.7840    4.3520  -22.8400 C.3    87  ILE87       0.0019
    145  CD1      -18.6930    3.9060  -22.0670 C.3    87  ILE87       0.0001
    146  N        -12.3230    4.0180  -25.8690 N.3    89  ALA89      -0.1245
    147  CA       -11.4710    5.1470  -25.5040 C.3    89  ALA89       0.1562
    148  C        -10.3100    5.3200  -26.4600 C.2    89  ALA89       0.2260
    149  O         -9.6660    4.3530  -26.8410 O.2    89  ALA89      -0.2867
    150  CB       -10.9400    4.9530  -24.1020 C.3    89  ALA89       0.0290
    151  N        -13.4620   -0.7430  -22.9090 N.3   102  ARG102     -0.1245
    152  CA       -13.7490   -1.1060  -21.5280 C.3   102  ARG102      0.1563
    153  C        -15.2310   -1.5210  -21.3170 C.2   102  ARG102      0.2260
    154  O        -16.1300   -0.9960  -21.9320 O.2   102  ARG102     -0.2867
    155  CB       -13.4040    0.0530  -20.6030 C.3   102  ARG102      0.0307
    156  CG       -11.9980    0.5510  -20.6870 C.3   102  ARG102      0.0489
    157  CD       -11.7470    1.6340  -19.6540 C.3   102  ARG102      0.2205
    158  NE       -10.3150    1.8340  -19.4990 N.pl3 102  ARG102     -0.0865
    159  CZ        -9.5760    2.6350  -20.2550 C.cat 102  ARG102      0.5346
    160  NH1      -10.1400    3.3790  -21.1930 N.pl3 102  ARG102      0.1354
    161  NH2       -8.2650    2.6810  -20.0740 N.pl3 102  ARG102      0.1354
    162  N        -17.9950   -1.4740  -18.4730 N.3   104  TYR104     -0.1241
    163  CA       -18.5250   -1.0690  -17.1840 C.3   104  TYR104      0.1605
    164  C        -19.6920   -1.9890  -16.7830 C.2   104  TYR104      0.2264
    165  O        -20.5660   -2.2800  -17.5980 O.2   104  TYR104     -0.2867
    166  CB       -19.0010    0.3890  -17.2440 C.3   104  TYR104      0.0534
    167  CG       -17.8960    1.4100  -17.1290 C.ar  104  TYR104     -0.0201
    168  CD1      -17.8250    2.2620  -16.0220 C.ar  104  TYR104     -0.0009
    169  CD2      -16.9460    1.5540  -18.1140 C.ar  104  TYR104     -0.0009
    170  CE1      -16.8100    3.1910  -15.8880 C.ar  104  TYR104      0.0417
    171  CE2      -15.8980    2.5060  -17.9770 C.ar  104  TYR104      0.0417
    172  CZ       -15.8540    3.3040  -16.8570 C.ar  104  TYR104      0.1957
    173  OH       -14.8520    4.2110  -16.6660 O.3   104  TYR104     -0.2866
@<TRIPOS>BOND
     1   110   109    2
     2   149   148    2
     3   109   108    1
     4   148   147    1
     5   107   108    1
     6   146   147    1
     7   103   102    2
     8   102   101    1
     9   108   111    1
    10   147   150    1
    11    79    80    1
    12   100   101    1
    13   101   104    1
    14    82    81    2
    15   111   112    1
    16   111   113    1
    17   140   141    2
    18   140   139    1
    19    93    92    1
    20    93    94    2
    21    81    80    1
    22    80    83    1
    23   114   115    1
    24    92    91    1
    25    92    95    1
    26   139   138    1
    27   139   142    1
    28   132   131    1
    29   104   106    1
    30   104   105    1
    31   117   116    2
    32    86    88   ar
    33    86    84   ar
    34    88    89   ar
    35    83    84    1
    36   151   152    1
    37   144   142    1
    38   115   116    1
    39   115   118    1
    40   130   131   ar
    41   130   128   ar
    42   131   129   ar
    43   120   118    1
    44    84    85   ar
    45    95    96    1
    46    96    97    1
    47   142   143    1
    48    89    90    1
    49    89    87   ar
    50   118   119    1
    51   145   143    1
    52   154   153    2
    53    85    87   ar
    54   128   126   ar
    55   152   153    1
    56   152   155    1
    57   129   127   ar
    58   135   134    1
    59   135   136    2
    60   160   159    1
    61    97    98    1
    62    98    99    1
    63    74    76   ar
    64    74    73   ar
    65   134   137    1
    66   134   133    1
    67   156   155    1
    68   156   157    1
    69    76    78   ar
    70   126   127   ar
    71   126   125    1
    72   159   161    1
    73   159   158    2
    74    72    73    1
    75    72    69    1
    76    70    69    1
    77    70    71    2
    78   121   122    1
    79    73    75   ar
    80   157   158    1
    81    78    77   ar
    82    69    68    1
    83   125   122    1
    84   122   123    1
    85    75    77   ar
    86   162   163    1
    87   169   171   ar
    88   169   167   ar
    89    48    46    1
    90   171   172   ar
    91   165   164    2
    92    46    47    1
    93    46    45    1
    94   123   124    2
    95   166   163    1
    96   166   167    1
    97   163   164    1
    98   167   168   ar
    99     7     5    1
   100   172   173    1
   101   172   170   ar
   102    41    42    1
   103    39    40   ar
   104    39    37   ar
   105    67    66    1
   106    45    42    1
   107    44    43    2
   108   168   170   ar
   109    40    38   ar
   110     5     6    1
   111     5     2    1
   112    37    35   ar
   113    42    43    1
   114    21    20   ar
   115    21    19   ar
   116    20    18   ar
   117    55    53    1
   118    66    64   ar
   119    66    65   ar
   120    29    27    1
   121    19    17   ar
   122    64    62   ar
   123    38    36   ar
   124    18    15   ar
   125     2     1    1
   126     2     3    1
   127    35    36   ar
   128    35    34    1
   129    65    63   ar
   130    53    54    1
   131    53    50    1
   132    17    15   ar
   133    17    16   ar
   134    28    26    1
   135    15    13   ar
   136    27    26    1
   137    34    31    1
   138    62    61   ar
   139    49    50    1
   140     3     4    2
   141    16    14   ar
   142    63    61   ar
   143    31    32    1
   144    31    30    1
   145    13    14   ar
   146    13    12    1
   147    50    51    1
   148    26    23    1
   149    61    60    1
   150    12     9    1
   151    32    33    2
   152    52    51    2
   153    23    24    1
   154    23    22    1
   155    60    57    1
   156     9    10    1
   157     9     8    1
   158    24    25    2
   159    10    11    2
   160    57    56    1
   161    57    58    1
   162    58    59    2
