@<TRIPOS>MOLECULE
tmp/3saoB01.pdb
 104 100 0 0 0
SMALL
GASTEIGER

@<TRIPOS>ATOM
      1  N        -32.7840   -0.1470  -38.2120 N.3    14  SER14      -0.1217
      2  CA       -34.1280    0.2980  -38.3560 C.3    14  SER14       0.1889
      3  C        -34.8930   -0.0450  -37.1060 C.2    14  SER14       0.2288
      4  O        -34.5340   -0.9560  -36.3610 O.2    14  SER14      -0.2866
      5  CB       -34.8400   -0.2700  -39.5970 C.3    14  SER14       0.2089
      6  OG       -36.2350    0.1490  -39.6460 O.3    14  SER14      -0.2183
      7  N        -38.3750   -0.2550  -37.5360 N.3    16  THR16      -0.1218
      8  CA       -39.6480   -0.6960  -38.1040 C.3    16  THR16       0.1862
      9  C        -40.0610   -2.0300  -37.4890 C.2    16  THR16       0.2287
     10  O        -39.2690   -2.9620  -37.4450 O.2    16  THR16      -0.2866
     11  CB       -39.5200   -0.8630  -39.6100 C.3    16  THR16       0.1770
     12  OG1      -39.2920    0.4220  -40.2210 O.3    16  THR16      -0.2211
     13  CG2      -40.7920   -1.4820  -40.1960 C.3    16  THR16       0.0375
     14  N        -41.8060   -4.6790  -38.3090 N.3    18  PHE18      -0.1227
     15  CA       -41.5070   -5.8370  -39.1630 C.3    18  PHE18       0.1736
     16  C        -40.0230   -6.1620  -39.2370 C.2    18  PHE18       0.2595
     17  O        -39.6390   -7.3360  -39.1490 O.2    18  PHE18      -0.2718
     18  CB       -42.0260   -5.6250  -40.5970 C.3    18  PHE18       0.0547
     19  CG       -41.7270   -6.7730  -41.5220 C.ar   18  PHE18      -0.0202
     20  CD1      -42.6830   -7.7610  -41.7610 C.ar   18  PHE18      -0.0042
     21  CD2      -40.4910   -6.8840  -42.1370 C.ar   18  PHE18      -0.0042
     22  CE1      -42.4030   -8.8340  -42.6080 C.ar   18  PHE18      -0.0003
     23  CE2      -40.1990   -7.9560  -42.9680 C.ar   18  PHE18      -0.0003
     24  CZ       -41.1590   -8.9240  -43.2110 C.ar   18  PHE18      -0.0000
     25  N        -39.1840   -5.1420  -39.4120 N.am   19  PHE19      -0.1976
     26  CA       -37.7410   -5.3530  -39.4400 C.3    19  PHE19       0.1639
     27  C        -37.2660   -5.9760  -38.1450 C.2    19  PHE19       0.2290
     28  O        -36.4970   -6.9260  -38.1340 O.2    19  PHE19      -0.2864
     29  CB       -36.9830   -4.0330  -39.6850 C.3    19  PHE19       0.0560
     30  CG       -35.5070   -4.1270  -39.4470 C.ar   19  PHE19      -0.0200
     31  CD1      -34.9630   -3.6660  -38.2620 C.ar   19  PHE19      -0.0042
     32  CD2      -34.6510   -4.7060  -40.3950 C.ar   19  PHE19      -0.0042
     33  CE1      -33.6110   -3.7150  -38.0330 C.ar   19  PHE19      -0.0003
     34  CE2      -33.3030   -4.7980  -40.1810 C.ar   19  PHE19      -0.0003
     35  CZ       -32.7590   -4.3140  -38.9790 C.ar   19  PHE19      -0.0000
     36  N        -39.3810    6.5110  -52.6350 N.3    77  LYS77      -0.1245
     37  CA       -38.2250    6.2480  -51.7960 C.3    77  LYS77       0.1561
     38  C        -37.1360    7.2710  -52.0140 C.2    77  LYS77       0.2260
     39  O        -36.7000    7.4630  -53.1580 O.2    77  LYS77      -0.2867
     40  CB       -37.7190    4.8650  -52.1120 C.3    77  LYS77       0.0271
     41  CG       -36.5040    4.4650  -51.2950 C.3    77  LYS77       0.0035
     42  CD       -36.3550    2.9420  -51.3440 C.3    77  LYS77       0.0206
     43  CE       -34.9660    2.4900  -51.0750 C.3    77  LYS77       0.1093
     44  NZ       -34.8580    1.0010  -51.0120 N.3    77  LYS77      -0.1314
     45  N        -32.2630    5.6790  -45.9050 N.3    94  ALA94      -0.1231
     46  CA       -33.4070    5.5890  -46.7940 C.3    94  ALA94       0.1694
     47  C        -34.7330    5.8830  -46.0880 C.2    94  ALA94       0.2593
     48  O        -34.8930    5.5600  -44.9100 O.2    94  ALA94      -0.2718
     49  CB       -33.4290    4.2070  -47.4440 C.3    94  ALA94       0.0304
     50  N        -35.6440    6.5220  -46.8290 N.am   95  THR95      -0.1939
     51  CA       -36.9860    6.8330  -46.3570 C.3    95  THR95       0.2028
     52  C        -37.9360    6.3520  -47.4210 C.2    95  THR95       0.2642
     53  O        -37.6150    6.4560  -48.6020 O.2    95  THR95      -0.2714
     54  CB       -37.1560    8.3370  -46.1870 C.3    95  THR95       0.1808
     55  OG1      -36.1500    8.8380  -45.3060 O.3    95  THR95      -0.2208
     56  CG2      -38.5370    8.6430  -45.6150 C.3    95  THR95       0.0379
     57  N        -38.9960    5.6510  -47.0340 N.am   96  ARG96      -0.1977
     58  CA       -39.9810    5.2050  -48.0090 C.3    96  ARG96       0.1597
     59  C        -41.3470    5.2770  -47.3710 C.2    96  ARG96       0.2287
     60  O        -41.5080    5.0330  -46.1690 O.2    96  ARG96      -0.2864
     61  CB       -39.6840    3.7520  -48.3870 C.3    96  ARG96       0.0334
     62  CG       -40.4730    3.1370  -49.4740 C.3    96  ARG96       0.0492
     63  CD       -39.7910    1.8570  -49.9170 C.3    96  ARG96       0.2205
     64  NE       -39.7100    0.8540  -48.8420 N.pl3  96  ARG96      -0.0865
     65  CZ       -40.5450   -0.1780  -48.7240 C.cat  96  ARG96       0.5346
     66  NH1      -41.5220   -0.3460  -49.6100 N.pl3  96  ARG96       0.1354
     67  NH2      -40.4010   -1.0520  -47.7270 N.pl3  96  ARG96       0.1354
     68  N        -41.3460    4.9810  -43.4330 N.3   103  LEU103     -0.1231
     69  CA       -40.3800    4.0650  -42.8900 C.3   103  LEU103      0.1693
     70  C        -38.9890    4.6170  -43.1420 C.2   103  LEU103      0.2592
     71  O        -38.7500    5.2380  -44.1650 O.2   103  LEU103     -0.2718
     72  CB       -40.5680    2.7050  -43.5690 C.3   103  LEU103      0.0284
     73  CG       -41.9240    2.0150  -43.3770 C.3   103  LEU103      0.0019
     74  CD1      -41.8670    0.6900  -44.0890 C.3   103  LEU103      0.0001
     75  CD2      -42.3140    1.8230  -41.9300 C.3   103  LEU103      0.0001
     76  N        -38.0710    4.3910  -42.2150 N.am  104  HIS104     -0.1962
     77  CA       -36.6850    4.7220  -42.4190 C.3   104  HIS104      0.1787
     78  C        -35.8040    3.4850  -42.1910 C.2   104  HIS104      0.2620
     79  O        -36.0770    2.6600  -41.3340 O.2   104  HIS104     -0.2715
     80  CB       -36.2510    5.7930  -41.4080 C.3   104  HIS104      0.0785
     81  CG       -37.0720    7.0320  -41.4610 C.ar  104  HIS104      0.0821
     82  ND1      -36.9480    7.9660  -42.4680 N.ar  104  HIS104     -0.2267
     83  CD2      -38.0620    7.4760  -40.6480 C.ar  104  HIS104      0.1154
     84  CE1      -37.8170    8.9430  -42.2580 C.ar  104  HIS104      0.1986
     85  NE2      -38.5080    8.6630  -41.1680 N.ar  104  HIS104     -0.2212
     86  N        -34.6910    3.4240  -42.8810 N.am  105  MET105     -0.1977
     87  CA       -33.7050    2.3430  -42.7050 C.3   105  MET105      0.1605
     88  C        -32.3440    2.8310  -43.0970 C.2   105  MET105      0.2287
     89  O        -32.2150    3.5100  -44.1170 O.2   105  MET105     -0.2864
     90  CB       -33.9650    1.1600  -43.6160 C.3   105  MET105      0.0413
     91  CG       -33.0580   -0.0340  -43.1670 C.3   105  MET105      0.0598
     92  SD       -33.5210   -1.5960  -43.8120 S.3   105  MET105     -0.1393
     93  CE       -35.0480   -1.9790  -42.8710 C.3   105  MET105      0.0692
     94  N        -28.5700    1.6020  -44.3450 N.3   107  ARG107     -0.1245
     95  CA       -27.9420    0.4420  -44.9670 C.3   107  ARG107      0.1563
     96  C        -26.4530    0.7360  -45.1060 C.2   107  ARG107      0.2260
     97  O        -26.0890    1.8710  -45.4330 O.2   107  ARG107     -0.2867
     98  CB       -28.5690    0.1710  -46.3250 C.3   107  ARG107      0.0307
     99  CG       -30.0670   -0.1300  -46.2750 C.3   107  ARG107      0.0489
    100  CD       -30.6200   -0.8460  -47.5250 C.3   107  ARG107      0.2205
    101  NE       -31.9640   -1.3950  -47.2780 N.pl3 107  ARG107     -0.0865
    102  CZ       -33.1010   -0.7100  -47.4080 C.cat 107  ARG107      0.5346
    103  NH1      -33.0800    0.5560  -47.7800 N.pl3 107  ARG107      0.1354
    104  NH2      -34.2570   -1.2970  -47.1810 N.pl3 107  ARG107      0.1354
@<TRIPOS>BOND
     1    39    38    2
     2    36    37    1
     3    40    37    1
     4    40    41    1
     5    38    37    1
     6    42    41    1
     7    42    43    1
     8    43    44    1
     9    63    62    1
    10    63    64    1
    11    66    65    1
    12    62    61    1
    13    64    65    2
    14    65    67    1
    15    53    52    2
    16    61    58    1
    17    58    59    1
    18    58    57    1
    19   103   102    1
    20   100   101    1
    21   100    99    1
    22    49    46    1
    23    52    57   am
    24    52    51    1
    25   102   101    2
    26   102   104    1
    27    59    60    2
    28    50    51    1
    29    50    47   am
    30    46    47    1
    31    46    45    1
    32    51    54    1
    33    98    99    1
    34    98    95    1
    35    54    56    1
    36    54    55    1
    37    47    48    2
    38    97    96    2
    39    96    95    1
    40    95    94    1
    41    71    70    2
    42    89    88    2
    43    74    73    1
    44    92    91    1
    45    92    93    1
    46    90    91    1
    47    90    87    1
    48    72    73    1
    49    72    69    1
    50    68    69    1
    51    73    75    1
    52    24    23   ar
    53    24    22   ar
    54    70    69    1
    55    70    76   am
    56    88    87    1
    57    23    21   ar
    58    86    87    1
    59    86    78   am
    60    22    20   ar
    61    82    84   ar
    62    82    81   ar
    63    77    76    1
    64    77    78    1
    65    77    80    1
    66    84    85   ar
    67    78    79    2
    68    21    19   ar
    69    20    19   ar
    70    19    18    1
    71    81    80    1
    72    81    83   ar
    73    85    83   ar
    74    18    15    1
    75    32    34   ar
    76    32    30   ar
    77    12    11    1
    78    13    11    1
    79    34    35   ar
    80    29    30    1
    81    29    26    1
    82     6     5    1
    83    11     8    1
    84     5     2    1
    85    30    31   ar
    86    26    25    1
    87    26    27    1
    88    25    16   am
    89    16    15    1
    90    16    17    2
    91    15    14    1
    92    35    33   ar
    93     2     1    1
    94     2     3    1
    95    31    33   ar
    96    27    28    2
    97     8     7    1
    98     8     9    1
    99     9    10    2
   100     3     4    2
