@<TRIPOS>MOLECULE
tmp/3sapA02.pdb
 153 150 0 0 0
SMALL
GASTEIGER

@<TRIPOS>ATOM
      1  N          9.9530    3.1120   18.7570 N.3    17  PHE17      -0.1241
      2  CA         8.8470    3.6660   19.5640 C.3    17  PHE17       0.1605
      3  C          8.9310    3.1700   20.9990 C.2    17  PHE17       0.2264
      4  O          8.2500    2.1990   21.3710 O.2    17  PHE17      -0.2867
      5  CB         7.5060    3.2610   18.9360 C.3    17  PHE17       0.0534
      6  CG         7.3820    3.6820   17.5140 C.ar   17  PHE17      -0.0203
      7  CD1        6.9730    4.9760   17.1970 C.ar   17  PHE17      -0.0042
      8  CD2        7.7260    2.8020   16.4830 C.ar   17  PHE17      -0.0042
      9  CE1        6.8690    5.3650   15.8710 C.ar   17  PHE17      -0.0003
     10  CE2        7.6460    3.1860   15.1660 C.ar   17  PHE17      -0.0003
     11  CZ         7.2160    4.4810   14.8620 C.ar   17  PHE17      -0.0000
     12  N        -12.3430    6.1450   11.1200 N.3    89  GLN89      -0.1245
     13  CA       -12.0900    5.0010   10.2470 C.3    89  GLN89       0.1566
     14  C        -12.3310    3.7190   11.0460 C.2    89  GLN89       0.2260
     15  O        -12.3540    3.7470   12.2630 O.2    89  GLN89      -0.2867
     16  CB       -10.6300    4.9960    9.7290 C.3    89  GLN89       0.0367
     17  CG        -9.5590    5.1490   10.8470 C.3    89  GLN89       0.0905
     18  CD        -8.8330    3.8350   11.1930 C.2    89  GLN89       0.2608
     19  OE1       -9.3700    2.7510   11.0110 O.2    89  GLN89      -0.2717
     20  NE2       -7.6070    3.9500   11.6880 N.am   89  GLN89      -0.0878
     21  N        -10.9150   -0.6050   10.7670 N.3    91  HIS91      -0.1241
     22  CA       -10.0130   -1.5540   10.1580 C.3    91  HIS91       0.1621
     23  C        -10.1500   -2.8080   11.0120 C.2    91  HIS91       0.2264
     24  O        -10.8440   -2.8000   12.0560 O.2    91  HIS91      -0.2867
     25  CB        -8.5550   -1.0470   10.1860 C.3    91  HIS91       0.0745
     26  CG        -8.0660   -0.7530   11.5660 C.ar   91  HIS91       0.0817
     27  ND1       -8.2400    0.4760   12.1760 N.ar   91  HIS91      -0.2268
     28  CD2       -7.4890   -1.5550   12.4880 C.ar   91  HIS91       0.1154
     29  CE1       -7.7600    0.4220   13.4070 C.ar   91  HIS91       0.1986
     30  NE2       -7.3010   -0.8000   13.6250 N.ar   91  HIS91      -0.2212
     31  N         -7.8750   -6.5750   12.3440 N.3    93  HIS93      -0.1241
     32  CA        -6.6150   -7.3150   12.5570 C.3    93  HIS93       0.1621
     33  C         -7.0180   -8.7550   12.4360 C.2    93  HIS93       0.2264
     34  O         -8.0520   -9.1080   12.9570 O.2    93  HIS93      -0.2867
     35  CB        -6.0610   -7.0670   13.9550 C.3    93  HIS93       0.0745
     36  CG        -5.7490   -5.6280   14.2220 C.ar   93  HIS93       0.0817
     37  ND1       -4.4980   -5.0930   14.0100 N.ar   93  HIS93      -0.2268
     38  CD2       -6.5350   -4.6030   14.6300 C.ar   93  HIS93       0.1154
     39  CE1       -4.5100   -3.8080   14.3330 C.ar   93  HIS93       0.1986
     40  NE2       -5.7460   -3.4800   14.6780 N.ar   93  HIS93      -0.2212
     41  N        -11.7820   -2.6890   14.7510 N.3   116  HIS116     -0.1241
     42  CA       -11.5420   -1.4860   15.5120 C.3   116  HIS116      0.1621
     43  C        -12.2500   -0.3200   14.8330 C.2   116  HIS116      0.2264
     44  O        -11.9020    0.0250   13.7050 O.2   116  HIS116     -0.2867
     45  CB       -10.0280   -1.2520   15.6250 C.3   116  HIS116      0.0745
     46  CG        -9.3750   -2.2080   16.5760 C.ar  116  HIS116      0.0817
     47  ND1       -8.0280   -2.4890   16.5550 N.ar  116  HIS116     -0.2268
     48  CD2       -9.9070   -2.9770   17.5550 C.ar  116  HIS116      0.1154
     49  CE1       -7.7510   -3.3810   17.4910 C.ar  116  HIS116      0.1986
     50  NE2       -8.8750   -3.7010   18.1070 N.ar  116  HIS116     -0.2212
     51  N        -12.5470    3.4330   15.0660 N.3   118  VAL118     -0.1245
     52  CA       -11.6820    4.4500   15.7010 C.3   118  VAL118      0.1561
     53  C        -12.3700    5.8010   15.7510 C.2   118  VAL118      0.2260
     54  O        -12.7940    6.3230   14.7070 O.2   118  VAL118     -0.2867
     55  CB       -10.3170    4.5650   14.9590 C.3   118  VAL118      0.0252
     56  CG1       -9.3870    5.6020   15.6330 C.3   118  VAL118      0.0019
     57  CG2       -9.6310    3.2050   14.8090 C.3   118  VAL118      0.0019
     58  N         -8.2260   14.6000   14.6230 N.3   127  PHE127     -0.1227
     59  CA        -7.5430   13.3600   14.9740 C.3   127  PHE127      0.1736
     60  C         -6.0970   13.5710   15.4250 C.2   127  PHE127      0.2596
     61  O         -5.6890   13.0020   16.4260 O.2   127  PHE127     -0.2718
     62  CB        -7.6050   12.3360   13.8300 C.3   127  PHE127      0.0547
     63  CG        -6.9630   11.0310   14.1520 C.ar  127  PHE127     -0.0202
     64  CD1       -7.6630   10.0600   14.8600 C.ar  127  PHE127     -0.0042
     65  CD2       -5.6350   10.7560   13.7580 C.ar  127  PHE127     -0.0042
     66  CE1       -7.0710    8.8310   15.1810 C.ar  127  PHE127     -0.0003
     67  CE2       -5.0380    9.5380   14.0710 C.ar  127  PHE127     -0.0003
     68  CZ        -5.7640    8.5690   14.7930 C.ar  127  PHE127     -0.0000
     69  N         -5.3300   14.3650   14.6740 N.am  128  GLY128     -0.1957
     70  CA        -3.9060   14.5420   14.9680 C.3   128  GLY128      0.1869
     71  C         -3.6450   15.1830   16.3190 C.2   128  GLY128      0.2309
     72  O         -2.6620   14.8660   16.9830 O.2   128  GLY128     -0.2863
     73  N         -4.7260   12.4930   19.3020 N.3   131  VAL131     -0.1231
     74  CA        -3.8000   11.3760   19.6610 C.3   131  VAL131      0.1692
     75  C         -2.6860   11.7890   20.6280 C.2   131  VAL131      0.2591
     76  O         -1.9680   10.9470   21.1770 O.2   131  VAL131     -0.2718
     77  CB        -3.1910   10.6440   18.4250 C.3   131  VAL131      0.0266
     78  CG1       -4.2830   10.0000   17.6060 C.3   131  VAL131      0.0020
     79  CG2       -2.2970   11.5760   17.5860 C.3   131  VAL131      0.0020
     80  N         -2.5410   13.1000   20.8180 N.am  132  GLN132     -0.1979
     81  CA        -1.5510   13.6370   21.7500 C.3   132  GLN132      0.1601
     82  C         -2.1730   13.9020   23.1290 C.2   132  GLN132      0.2287
     83  O         -1.5700   14.5790   23.9780 O.2   132  GLN132     -0.2864
     84  CB        -0.9190   14.9230   21.1720 C.3   132  GLN132      0.0394
     85  CG        -0.1670   14.7490   19.8330 C.3   132  GLN132      0.0908
     86  CD         1.0900   13.8950   19.9330 C.2   132  GLN132      0.2608
     87  OE1        1.7840   13.9050   20.9480 O.2   132  GLN132     -0.2717
     88  NE2        1.3990   13.1590   18.8600 N.am  132  GLN132     -0.0878
     89  N        -11.7200    3.7320   20.9960 N.3   139  VAL139     -0.1245
     90  CA       -11.7500    2.6890   19.9800 C.3   139  VAL139      0.1561
     91  C        -12.7150    1.6230   20.4560 C.2   139  VAL139      0.2260
     92  O        -12.5710    1.0650   21.5660 O.2   139  VAL139     -0.2867
     93  CB       -10.3420    2.0990   19.6210 C.3   139  VAL139      0.0252
     94  CG1      -10.4420    1.0700   18.4560 C.3   139  VAL139      0.0019
     95  CG2       -9.3900    3.2300   19.2200 C.3   139  VAL139      0.0019
     96  N         -2.8600    3.1180   21.1060 N.3   194  LEU194     -0.1231
     97  CA        -2.9270    2.6010   19.7380 C.3   194  LEU194      0.1693
     98  C         -2.1660    1.2720   19.7460 C.2   194  LEU194      0.2593
     99  O         -1.1570    1.1340   20.4550 O.2   194  LEU194     -0.2718
    100  CB        -2.2840    3.6020   18.7870 C.3   194  LEU194      0.0284
    101  CG        -2.8760    5.0070   18.6330 C.3   194  LEU194      0.0019
    102  CD1       -1.9430    5.8150   17.7250 C.3   194  LEU194      0.0001
    103  CD2       -4.2830    4.9820   18.0560 C.3   194  LEU194      0.0001
    104  N         -2.6200    0.2970   18.9670 N.am  195  THR195     -0.1939
    105  CA        -1.9240   -0.9980   18.9270 C.3   195  THR195      0.2028
    106  C         -0.9060   -1.1180   17.7900 C.2   195  THR195      0.2643
    107  O         -0.3290   -2.2010   17.6090 O.2   195  THR195     -0.2714
    108  CB        -2.9150   -2.1830   18.7860 C.3   195  THR195      0.1808
    109  OG1       -3.5610   -2.1140   17.5180 O.3   195  THR195     -0.2208
    110  CG2       -3.9120   -2.1900   19.9370 C.3   195  THR195      0.0379
    111  N         -0.7490   -0.0480   17.0010 N.am  196  THR196     -0.1937
    112  CA         0.3270    0.0330   16.0070 C.3   196  THR196      0.2013
    113  C          1.1330    1.2770   16.2900 C.2   196  THR196      0.2484
    114  O          0.6100    2.2450   16.8520 O.2   196  THR196     -0.2729
    115  CB        -0.1670    0.1580   14.5370 C.3   196  THR196      0.1807
    116  OG1       -1.0200    1.3090   14.3710 O.3   196  THR196     -0.2208
    117  CG2       -0.9240   -1.0880   14.0930 C.3   196  THR196      0.0379
    118  N          2.3860    1.2830   15.8260 N.am  197  PRO197     -0.2715
    119  CA         3.1090    2.5500   15.9280 C.3   197  PRO197      0.1521
    120  C          2.2600    3.7330   15.3920 C.2   197  PRO197      0.2440
    121  O          1.5930    3.6200   14.3280 O.2   197  PRO197     -0.2731
    122  CB         4.3490    2.3010   15.0530 C.3   197  PRO197      0.0310
    123  CG         4.5930    0.8570   15.1340 C.3   197  PRO197      0.0237
    124  CD         3.1990    0.2150   15.2140 C.3   197  PRO197      0.0939
    125  N          2.3340    4.9040   16.0480 N.am  198  PRO198     -0.2727
    126  CA         3.2270    5.3160   17.1540 C.3   198  PRO198      0.1402
    127  C          2.8870    4.8470   18.5810 C.2   198  PRO198      0.2269
    128  O          3.5510    5.2780   19.5390 O.2   198  PRO198     -0.2865
    129  CB         3.1970    6.8550   17.0640 C.3   198  PRO198      0.0296
    130  CG         1.8580    7.1750   16.5270 C.3   198  PRO198      0.0237
    131  CD         1.4830    6.0280   15.5860 C.3   198  PRO198      0.0939
    132  N          0.6460    5.4570   20.7170 N.3   200  LEU200     -0.1245
    133  CA         0.3740    6.5670   21.6370 C.3   200  LEU200      0.1561
    134  C         -0.6480    6.1500   22.6870 C.2   200  LEU200      0.2260
    135  O         -1.6050    5.4190   22.3820 O.2   200  LEU200     -0.2867
    136  CB        -0.0820    7.8260   20.8680 C.3   200  LEU200      0.0270
    137  CG         1.0070    8.4070   19.9320 C.3   200  LEU200      0.0019
    138  CD1        0.4350    9.4780   19.0420 C.3   200  LEU200      0.0001
    139  CD2        2.2160    8.9550   20.7670 C.3   200  LEU200      0.0001
    140  N        -10.2880    2.2170   25.6030 N.3   205  TRP205     -0.1241
    141  CA       -10.7350    1.0070   24.9060 C.3   205  TRP205      0.1605
    142  C        -12.1290    0.5730   25.3930 C.2   205  TRP205      0.2264
    143  O        -12.3650    0.4860   26.5900 O.2   205  TRP205     -0.2867
    144  CB        -9.7150   -0.1290   25.0920 C.3   205  TRP205      0.0550
    145  CG        -8.6320   -0.0010   24.1030 C.ar  205  TRP205      0.0003
    146  CD1       -7.3820    0.5830   24.2750 C.ar  205  TRP205      0.0946
    147  CD2       -8.7060   -0.4030   22.7300 C.ar  205  TRP205      0.0152
    148  NE1       -6.6850    0.5630   23.0870 N.ar  205  TRP205     -0.2442
    149  CE2       -7.4600   -0.0520   22.1220 C.ar  205  TRP205      0.0810
    150  CE3       -9.7100   -1.0080   21.9480 C.ar  205  TRP205      0.0012
    151  CZ2       -7.1890   -0.3010   20.7870 C.ar  205  TRP205      0.0191
    152  CZ3       -9.4440   -1.2810   20.6270 C.ar  205  TRP205      0.0001
    153  CH2       -8.1750   -0.9450   20.0510 C.ar  205  TRP205      0.0015
@<TRIPOS>BOND
     1    16    13    1
     2    16    17    1
     3    22    25    1
     4    22    21    1
     5    22    23    1
     6    25    26    1
     7    13    14    1
     8    13    12    1
     9    17    18    1
    10    19    18    2
    11    23    24    2
    12    14    15    2
    13    18    20   am
    14    26    27   ar
    15    26    28   ar
    16    27    29   ar
    17    31    32    1
    18    33    32    1
    19    33    34    2
    20    28    30   ar
    21    32    35    1
    22    29    30   ar
    23    44    43    2
    24    65    67   ar
    25    65    63   ar
    26    62    63    1
    27    62    59    1
    28    35    36    1
    29    37    36   ar
    30    37    39   ar
    31    67    68   ar
    32   117   115    1
    33    63    64   ar
    34    36    38   ar
    35   121   120    2
    36    39    40   ar
    37   116   115    1
    38   115   112    1
    39    58    59    1
    40    38    40   ar
    41    69    70    1
    42    69    60   am
    43    54    53    2
    44    41    42    1
    45    68    66   ar
    46    57    55    1
    47    43    42    1
    48    64    66   ar
    49    11    10   ar
    50    11     9   ar
    51    55    56    1
    52    55    52    1
    53    70    71    1
    54    59    60    1
    55   122   123    1
    56   122   119    1
    57    51    52    1
    58   123   124    1
    59    10     8   ar
    60   124   118    1
    61   120   119    1
    62   120   125   am
    63    60    61    2
    64    42    45    1
    65   131   125    1
    66   131   130    1
    67    45    46    1
    68    52    53    1
    69   118   119    1
    70   118   113   am
    71     9     7   ar
    72   112   113    1
    73   112   111    1
    74   125   126    1
    75   113   114    2
    76    71    72    2
    77     8     6   ar
    78   130   129    1
    79    47    46   ar
    80    47    49   ar
    81    46    48   ar
    82   111   106   am
    83   129   126    1
    84   126   127    1
    85     7     6   ar
    86    49    50   ar
    87     6     5    1
    88   109   108    1
    89    48    50   ar
    90    79    77    1
    91    78    77    1
    92   107   106    2
    93   102   101    1
    94   106   105    1
    95   103   101    1
    96    77    74    1
    97    94    93    1
    98   127   128    2
    99   101   100    1
   100     1     2    1
   101   108   105    1
   102   108   110    1
   103   100    97    1
   104    88    86   am
   105   105   104    1
   106     5     2    1
   107   104    98   am
   108   138   137    1
   109    95    93    1
   110    73    74    1
   111     2     3    1
   112    93    90    1
   113    74    75    1
   114    97    98    1
   115    97    96    1
   116    98    99    2
   117    85    86    1
   118    85    84    1
   119   137   139    1
   120   137   136    1
   121    86    87    2
   122    90    91    1
   123    90    89    1
   124   153   152   ar
   125   153   151   ar
   126    91    92    2
   127   152   150   ar
   128    75    80   am
   129    75    76    2
   130   132   133    1
   131   151   149   ar
   132    80    81    1
   133   136   133    1
   134     3     4    2
   135    84    81    1
   136   133   134    1
   137    81    82    1
   138   150   147   ar
   139   149   147   ar
   140   149   148   ar
   141   135   134    2
   142   147   145   ar
   143   148   146   ar
   144    82    83    2
   145   145   146   ar
   146   145   144    1
   147   141   144    1
   148   141   142    1
   149   141   140    1
   150   142   143    2
