@<TRIPOS>MOLECULE
tmp/3saxA00.pdb
 184 178 0 0 0
SMALL
GASTEIGER

@<TRIPOS>ATOM
      1  N          8.4290   -0.4740   10.5320 N.3     3  TRP3       -0.1241
      2  CA         7.6740   -1.4450   11.2840 C.3     3  TRP3        0.1605
      3  C          6.6660   -2.2070   10.4640 C.2     3  TRP3        0.2264
      4  O          6.1760   -1.7450    9.4880 O.2     3  TRP3       -0.2867
      5  CB         7.0120   -0.7210   12.4590 C.3     3  TRP3        0.0550
      6  CG         5.7890    0.0780   12.0950 C.ar    3  TRP3        0.0003
      7  CD1        5.7760    1.3930   11.8280 C.ar    3  TRP3        0.0946
      8  CD2        4.4220   -0.4070   12.0460 C.ar    3  TRP3        0.0152
      9  NE1        4.4720    1.8070   11.5900 N.ar    3  TRP3       -0.2442
     10  CE2        3.6250    0.7060   11.7180 C.ar    3  TRP3        0.0810
     11  CE3        3.8190   -1.6370   12.3190 C.ar    3  TRP3        0.0012
     12  CZ2        2.2430    0.5930   11.6240 C.ar    3  TRP3        0.0191
     13  CZ3        2.4330   -1.7240   12.1650 C.ar    3  TRP3        0.0001
     14  CH2        1.6690   -0.6050   11.8280 C.ar    3  TRP3        0.0015
     15  N         -3.5820    0.4140    3.5310 N.3    60  ASN60      -0.1240
     16  CA        -2.4580    1.2320    4.0160 C.3    60  ASN60       0.1653
     17  C         -1.1870    0.4160    4.2300 C.2    60  ASN60       0.2266
     18  O         -0.1790    0.9470    4.7510 O.2    60  ASN60      -0.2867
     19  CB        -2.8270    2.0010    5.2490 C.3    60  ASN60       0.1155
     20  CG        -3.0950    1.0950    6.4350 C.2    60  ASN60       0.2627
     21  OD1       -2.8380   -0.1000    6.4160 O.2    60  ASN60      -0.2716
     22  ND2       -3.6930    1.6390    7.4300 N.am   60  ASN60      -0.0877
     23  N         -0.6530   -2.3010    6.2330 N.3    62  HIS62      -0.1241
     24  CA        -0.7770   -2.9430    7.5690 C.3    62  HIS62       0.1621
     25  C         -2.1470   -3.5770    7.7540 C.2    62  HIS62       0.2264
     26  O         -2.2380   -4.6240    8.4220 O.2    62  HIS62      -0.2867
     27  CB        -0.5270   -1.9170    8.7190 C.3    62  HIS62       0.0745
     28  CG         0.7630   -1.1240    8.5910 C.ar   62  HIS62       0.0817
     29  ND1        1.9970   -1.7420    8.6600 N.ar   62  HIS62      -0.2268
     30  CD2        0.9990    0.1920    8.3700 C.ar   62  HIS62       0.1154
     31  CE1        2.9510   -0.8260    8.5700 C.ar   62  HIS62       0.1986
     32  NE2        2.3740    0.3510    8.3320 N.ar   62  HIS62      -0.2212
     33  N         -8.2630    0.4660    5.8700 N.3    65  ASN65      -0.1296
     34  CA        -9.1160    1.4120    6.6000 C.3    65  ASN65       0.1339
     35  C        -10.3740    1.8100    5.8190 C.3    65  ASN65       0.2014
     36  O        -10.2550    2.2590    4.6190 O.3    65  ASN65      -0.2188
     37  CB        -8.4010    2.6830    6.9950 C.3    65  ASN65       0.1102
     38  CG        -7.3170    2.4870    7.9820 C.2    65  ASN65       0.2623
     39  OD1       -7.2150    1.4710    8.7020 O.2    65  ASN65      -0.2716
     40  ND2       -6.4310    3.4830    8.0260 N.am   65  ASN65      -0.0877
     41  N        -12.8150    6.1990   11.2080 N.3    90  GLN90      -0.1245
     42  CA       -12.5570    5.0350   10.3560 C.3    90  GLN90       0.1566
     43  C        -12.7660    3.7880   11.1550 C.2    90  GLN90       0.2260
     44  O        -12.8360    3.7990   12.3790 O.2    90  GLN90      -0.2867
     45  CB       -11.1270    5.0210    9.8560 C.3    90  GLN90       0.0367
     46  CG       -10.0340    5.1420   10.9630 C.3    90  GLN90       0.0905
     47  CD        -9.2730    3.8610   11.2340 C.2    90  GLN90       0.2608
     48  OE1       -9.8460    2.7600   11.2200 O.2    90  GLN90      -0.2717
     49  NE2       -8.0000    3.9590   11.4960 N.am   90  GLN90      -0.0878
     50  N        -11.1140   -0.5310   10.8720 N.3    92  HIS92      -0.1241
     51  CA       -10.2680   -1.5100   10.2560 C.3    92  HIS92       0.1621
     52  C        -10.3310   -2.7980   11.0990 C.2    92  HIS92       0.2264
     53  O        -10.9370   -2.8020   12.1680 O.2    92  HIS92      -0.2867
     54  CB        -8.7900   -1.0060   10.2070 C.3    92  HIS92       0.0745
     55  CG        -8.2650   -0.7340   11.5660 C.ar   92  HIS92       0.0817
     56  ND1       -8.3990    0.4670   12.2030 N.ar   92  HIS92      -0.2268
     57  CD2       -7.6410   -1.5730   12.4370 C.ar   92  HIS92       0.1154
     58  CE1       -7.9210    0.3420   13.4260 C.ar   92  HIS92       0.1986
     59  NE2       -7.4510   -0.9040   13.6450 N.ar   92  HIS92      -0.2212
     60  N         -7.9680   -6.5300   12.4060 N.3    94  HIS94      -0.1241
     61  CA        -6.7930   -7.3420   12.5710 C.3    94  HIS94       0.1621
     62  C         -7.2200   -8.7950   12.4560 C.2    94  HIS94       0.2264
     63  O         -8.2950   -9.1570   12.9720 O.2    94  HIS94      -0.2867
     64  CB        -6.1260   -7.1070   13.9670 C.3    94  HIS94       0.0745
     65  CG        -5.8310   -5.6630   14.2350 C.ar   94  HIS94       0.0817
     66  ND1       -4.6110   -5.1140   14.0500 N.ar   94  HIS94      -0.2268
     67  CD2       -6.6510   -4.6600   14.6040 C.ar   94  HIS94       0.1154
     68  CE1       -4.6810   -3.8210   14.3490 C.ar   94  HIS94       0.1986
     69  NE2       -5.9150   -3.4640   14.7000 N.ar   94  HIS94      -0.2212
     70  N        -11.9580   -2.7120   14.8380 N.3   117  HIS117     -0.1241
     71  CA       -11.7170   -1.4700   15.6180 C.3   117  HIS117      0.1621
     72  C        -12.4020   -0.3190   14.9130 C.2   117  HIS117      0.2264
     73  O        -11.9960    0.0510   13.7930 O.2   117  HIS117     -0.2867
     74  CB       -10.2150   -1.2030   15.7160 C.3   117  HIS117      0.0745
     75  CG        -9.4980   -2.1850   16.5930 C.ar  117  HIS117      0.0817
     76  ND1       -8.1330   -2.4140   16.5450 N.ar  117  HIS117     -0.2268
     77  CD2      -10.0170   -3.0060   17.5510 C.ar  117  HIS117      0.1154
     78  CE1       -7.8630   -3.3470   17.4560 C.ar  117  HIS117      0.1986
     79  NE2       -8.9880   -3.7160   18.0700 N.ar  117  HIS117     -0.2212
     80  N        -12.6900    3.5010   15.2520 N.3   119  VAL119     -0.1245
     81  CA       -11.8500    4.5130   15.8710 C.3   119  VAL119      0.1561
     82  C        -12.5750    5.8650   15.8760 C.2   119  VAL119      0.2260
     83  O        -13.0020    6.3310   14.8220 O.2   119  VAL119     -0.2867
     84  CB       -10.5380    4.6510   15.0810 C.3   119  VAL119      0.0252
     85  CG1       -9.6150    5.7230   15.6870 C.3   119  VAL119      0.0019
     86  CG2       -9.7900    3.2750   14.9950 C.3   119  VAL119      0.0019
     87  N         -8.7160   14.6130   14.7620 N.3   128  PHE128     -0.1241
     88  CA        -7.9990   13.3840   15.1580 C.3   128  PHE128      0.1605
     89  C         -6.5230   13.6600   15.5190 C.2   128  PHE128      0.2264
     90  O         -6.0120   13.0850   16.4990 O.2   128  PHE128     -0.2867
     91  CB        -8.0940   12.3560   13.9980 C.3   128  PHE128      0.0534
     92  CG        -7.3450   11.0790   14.2490 C.ar  128  PHE128     -0.0203
     93  CD1       -7.9670   10.0250   14.9040 C.ar  128  PHE128     -0.0042
     94  CD2       -6.0060   10.9160   13.8910 C.ar  128  PHE128     -0.0042
     95  CE1       -7.2910    8.8470   15.1370 C.ar  128  PHE128     -0.0003
     96  CE2       -5.3710    9.7250   14.0980 C.ar  128  PHE128     -0.0003
     97  CZ        -6.0380    8.6720   14.7300 C.ar  128  PHE128     -0.0000
     98  N         -4.8590   12.5670   19.3990 N.3   132  VAL132     -0.1245
     99  CA        -3.9400   11.4880   19.7740 C.3   132  VAL132      0.1561
    100  C         -2.8450   11.9080   20.7140 C.2   132  VAL132      0.2260
    101  O         -2.1500   11.0420   21.2720 O.2   132  VAL132     -0.2867
    102  CB        -3.3250   10.7550   18.5310 C.3   132  VAL132      0.0252
    103  CG1       -4.4360   10.0480   17.7110 C.3   132  VAL132      0.0019
    104  CG2       -2.4430   11.6440   17.7110 C.3   132  VAL132      0.0019
    105  N         -8.9550    9.4500   22.1740 N.3   138  LEU138     -0.1245
    106  CA        -9.6210    8.4850   21.3290 C.3   138  LEU138      0.1561
    107  C        -10.5060    7.5740   22.1260 C.2   138  LEU138      0.2260
    108  O        -10.2220    7.2630   23.2910 O.2   138  LEU138     -0.2867
    109  CB        -8.6690    7.6540   20.5010 C.3   138  LEU138      0.0270
    110  CG        -7.7400    8.3660   19.5220 C.3   138  LEU138      0.0019
    111  CD1       -6.9500    7.2960   18.7120 C.3   138  LEU138      0.0001
    112  CD2       -8.3930    9.3550   18.6010 C.3   138  LEU138      0.0001
    113  N        -12.0930    3.6610   21.1730 N.3   140  VAL140     -0.1245
    114  CA       -12.2020    2.5750   20.1520 C.3   140  VAL140      0.1561
    115  C        -13.2130    1.5740   20.6740 C.2   140  VAL140      0.2260
    116  O        -13.1200    1.1000   21.8150 O.2   140  VAL140     -0.2867
    117  CB       -10.8690    1.9340   19.8300 C.3   140  VAL140      0.0252
    118  CG1      -11.0630    0.8210   18.7660 C.3   140  VAL140      0.0019
    119  CG2       -9.8500    2.9800   19.2940 C.3   140  VAL140      0.0019
    120  N         -2.9570    3.0500   21.2150 N.3   195  LEU195     -0.1231
    121  CA        -3.0360    2.5430   19.8600 C.3   195  LEU195      0.1693
    122  C         -2.2880    1.1870   19.8950 C.2   195  LEU195      0.2593
    123  O         -1.2610    1.0170   20.6280 O.2   195  LEU195     -0.2718
    124  CB        -2.1760    3.4010   18.9430 C.3   195  LEU195      0.0284
    125  CG        -2.8210    4.5460   18.1750 C.3   195  LEU195      0.0019
    126  CD1       -3.7650    5.4210   18.9890 C.3   195  LEU195      0.0001
    127  CD2       -1.8360    5.3550   17.3690 C.3   195  LEU195      0.0001
    128  N         -2.7330    0.1860   19.1360 N.am  196  THR196     -0.1939
    129  CA        -2.0460   -1.1220   19.0480 C.3   196  THR196      0.2028
    130  C         -1.0130   -1.1740   17.9160 C.2   196  THR196      0.2643
    131  O         -0.3840   -2.2280   17.7590 O.2   196  THR196     -0.2714
    132  CB        -3.0500   -2.2490   18.9330 C.3   196  THR196      0.1808
    133  OG1       -3.6450   -2.1590   17.6200 O.3   196  THR196     -0.2208
    134  CG2       -4.0780   -2.2680   20.0400 C.3   196  THR196      0.0379
    135  N         -0.8920   -0.1090   17.1270 N.am  197  THR197     -0.1937
    136  CA         0.0850    0.0470   16.0870 C.3   197  THR197      0.2013
    137  C          0.9770    1.2320   16.4380 C.2   197  THR197      0.2484
    138  O          0.5190    2.1980   17.0600 O.2   197  THR197     -0.2729
    139  CB        -0.5540    0.3370   14.7180 C.3   197  THR197      0.1807
    140  OG1       -1.3700    1.5200   14.8220 O.3   197  THR197     -0.2208
    141  CG2       -1.4200   -0.8050   14.2460 C.3   197  THR197      0.0379
    142  N          2.2480    1.2000   16.0080 N.am  198  PRO198     -0.2715
    143  CA         3.0410    2.4620   16.0320 C.3   198  PRO198      0.1521
    144  C          2.2160    3.5950   15.4970 C.2   198  PRO198      0.2440
    145  O          1.5260    3.4510   14.5000 O.2   198  PRO198     -0.2731
    146  CB         4.2240    2.0700   15.1490 C.3   198  PRO198      0.0310
    147  CG         4.4180    0.6030   15.4080 C.3   198  PRO198      0.0237
    148  CD         2.9940    0.0820   15.3630 C.3   198  PRO198      0.0939
    149  N          2.2550    4.7770   16.1340 N.am  199  PRO199     -0.2727
    150  CA         3.2020    5.1840   17.2260 C.3   199  PRO199      0.1402
    151  C          2.8210    4.7730   18.6380 C.2   199  PRO199      0.2269
    152  O          3.4730    5.2190   19.5870 O.2   199  PRO199     -0.2865
    153  CB         3.2470    6.7070   17.0180 C.3   199  PRO199      0.0296
    154  CG         1.8360    7.0330   16.5700 C.3   199  PRO199      0.0237
    155  CD         1.5090    5.9210   15.5930 C.3   199  PRO199      0.0939
    156  N          0.5810    5.4410   20.7970 N.3   201  LEU201     -0.1245
    157  CA         0.3120    6.5740   21.7070 C.3   201  LEU201      0.1561
    158  C         -0.7580    6.1530   22.7390 C.2   201  LEU201      0.2260
    159  O         -1.7210    5.4300   22.4510 O.2   201  LEU201     -0.2867
    160  CB        -0.2090    7.7710   20.9180 C.3   201  LEU201      0.0270
    161  CG         0.9060    8.3440   19.9810 C.3   201  LEU201      0.0019
    162  CD1        0.2130    9.3950   19.0170 C.3   201  LEU201      0.0001
    163  CD2        2.0910    8.9970   20.8520 C.3   201  LEU201      0.0001
    164  N         -6.0340    6.1710   24.2860 N.3   204  VAL204     -0.1245
    165  CA        -7.2740    5.4520   23.9430 C.3   204  VAL204      0.1561
    166  C         -8.0550    5.0130   25.1850 C.2   204  VAL204      0.2260
    167  O         -7.4940    4.3460   26.0530 O.2   204  VAL204     -0.2867
    168  CB        -7.0000    4.2020   23.0580 C.3   204  VAL204      0.0252
    169  CG1       -8.3220    3.4690   22.7580 C.3   204  VAL204      0.0019
    170  CG2       -6.2490    4.5670   21.8080 C.3   204  VAL204      0.0019
    171  N        -10.4720    2.1780   25.6680 N.3   206  TRP206     -0.1241
    172  CA       -10.9240    0.9740   24.9740 C.3   206  TRP206      0.1605
    173  C        -12.3090    0.5590   25.5040 C.2   206  TRP206      0.2264
    174  O        -12.5190    0.5080   26.7110 O.2   206  TRP206     -0.2867
    175  CB        -9.9050   -0.1670   25.1660 C.3   206  TRP206      0.0550
    176  CG        -8.7870   -0.0670   24.1830 C.ar  206  TRP206      0.0003
    177  CD1       -7.5770    0.5200   24.3660 C.ar  206  TRP206      0.0946
    178  CD2       -8.8500   -0.4520   22.8400 C.ar  206  TRP206      0.0152
    179  NE1       -6.8440    0.5220   23.1850 N.ar  206  TRP206     -0.2442
    180  CE2       -7.6020   -0.0680   22.2190 C.ar  206  TRP206      0.0810
    181  CE3       -9.8070   -1.1110   22.0590 C.ar  206  TRP206      0.0012
    182  CZ2       -7.3470   -0.3160   20.8680 C.ar  206  TRP206      0.0191
    183  CZ3       -9.5460   -1.3970   20.7430 C.ar  206  TRP206      0.0001
    184  CH2       -8.3130   -0.9670   20.1440 C.ar  206  TRP206      0.0015
@<TRIPOS>BOND
     1    15    16    1
     2    16    17    1
     3    16    19    1
     4    17    18    2
     5    36    35    1
     6    19    20    1
     7    35    34    1
     8    33    34    1
     9    23    24    1
    10    21    20    2
    11    20    22   am
    12    34    37    1
    13    37    38    1
    14    24    25    1
    15    24    27    1
    16    25    26    2
    17    38    40   am
    18    38    39    2
    19    32    30   ar
    20    32    31   ar
    21    30    28   ar
    22    31    29   ar
    23    28    29   ar
    24    28    27    1
    25     4     3    2
    26    45    42    1
    27    45    46    1
    28    54    51    1
    29    54    55    1
    30    51    50    1
    31    51    52    1
    32    42    43    1
    33    42    41    1
    34     3     2    1
    35     1     2    1
    36    46    47    1
    37    52    53    2
    38    43    44    2
    39    48    47    2
    40    47    49   am
    41     2     5    1
    42    55    56   ar
    43    55    57   ar
    44     9    10   ar
    45     9     7   ar
    46    12    10   ar
    47    12    14   ar
    48    10     8   ar
    49     7     6   ar
    50    14    13   ar
    51     8     6   ar
    52     8    11   ar
    53     6     5    1
    54    13    11   ar
    55    56    58   ar
    56    60    61    1
    57    57    59   ar
    58    62    61    1
    59    62    63    2
    60    61    64    1
    61    58    59   ar
    62    73    72    2
    63    94    96   ar
    64    94    92   ar
    65    64    65    1
    66    91    92    1
    67    91    88    1
    68    66    65   ar
    69    66    68   ar
    70    96    97   ar
    71    65    67   ar
    72   141   139    1
    73    92    93   ar
    74    68    69   ar
    75   145   144    2
    76    67    69   ar
    77   139   140    1
    78   139   136    1
    79    97    95   ar
    80    87    88    1
    81    83    82    2
    82    70    71    1
    83    93    95   ar
    84    72    71    1
    85    86    84    1
    86    84    85    1
    87    84    81    1
    88   146   147    1
    89   146   143    1
    90    88    89    1
    91    80    81    1
    92   148   147    1
    93   148   142    1
    94   144   143    1
    95   144   149   am
    96    89    90    2
    97   155   149    1
    98   155   154    1
    99    71    74    1
   100    74    75    1
   101    81    82    1
   102   142   143    1
   103   142   137   am
   104   136   137    1
   105   136   135    1
   106   149   150    1
   107   137   138    2
   108    76    75   ar
   109    76    78   ar
   110   154   153    1
   111    75    77   ar
   112   153   150    1
   113   135   130   am
   114   150   151    1
   115   127   125    1
   116    78    79   ar
   117    77    79   ar
   118   133   132    1
   119   103   102    1
   120   104   102    1
   121   131   130    2
   122   130   129    1
   123   125   124    1
   124   125   126    1
   125   102    99    1
   126   112   110    1
   127   151   152    2
   128   111   110    1
   129   118   117    1
   130   132   129    1
   131   132   134    1
   132   124   121    1
   133   162   161    1
   134   129   128    1
   135   128   122   am
   136   119   117    1
   137    98    99    1
   138   110   109    1
   139    99   100    1
   140   117   114    1
   141   121   122    1
   142   121   120    1
   143   122   123    2
   144   161   163    1
   145   161   160    1
   146   184   183   ar
   147   184   182   ar
   148   114   115    1
   149   114   113    1
   150   109   106    1
   151   115   116    2
   152   100   101    2
   153   183   181   ar
   154   156   157    1
   155   182   180   ar
   156   160   157    1
   157   106   107    1
   158   106   105    1
   159   157   158    1
   160   170   168    1
   161   181   178   ar
   162   107   108    2
   163   180   178   ar
   164   180   179   ar
   165   159   158    2
   166   169   168    1
   167   178   176   ar
   168   168   165    1
   169   179   177   ar
   170   165   164    1
   171   165   166    1
   172   176   177   ar
   173   176   175    1
   174   172   175    1
   175   172   173    1
   176   172   171    1
   177   166   167    2
   178   173   174    2
