@<TRIPOS>MOLECULE
tmp/3sayA00.pdb
 167 159 0 0 0
SMALL
GASTEIGER

@<TRIPOS>ATOM
      1  N        -10.4530   21.9520  -27.9450 N.3    28  ILE28      -0.1231
      2  CA       -11.2770   21.1540  -28.8350 C.3    28  ILE28       0.1692
      3  C        -12.0720   20.0730  -28.1320 C.2    28  ILE28       0.2593
      4  O        -12.7460   19.2850  -28.7780 O.2    28  ILE28      -0.2718
      5  CB       -10.4630   20.5310  -29.9920 C.3    28  ILE28       0.0266
      6  CG1       -9.3610   19.5920  -29.4570 C.3    28  ILE28       0.0019
      7  CG2       -9.9350   21.6190  -30.9010 C.3    28  ILE28       0.0020
      8  CD1       -8.5320   18.9360  -30.5450 C.3    28  ILE28       0.0001
      9  N        -11.9890   20.0240  -26.8150 N.am   29  GLY29      -0.1942
     10  CA       -12.7410   19.0290  -26.0330 C.3    29  GLY29       0.2014
     11  C        -12.5330   19.2730  -24.5590 C.2    29  GLY29       0.2638
     12  O        -11.6830   20.0740  -24.1760 O.2    29  GLY29      -0.2714
     13  N        -13.3480   18.6330  -23.7260 N.am   30  ASN30      -0.1972
     14  CA       -13.1750   18.6720  -22.2700 C.3    30  ASN30       0.1688
     15  C        -14.0430   17.6240  -21.6090 C.2    30  ASN30       0.2292
     16  O        -14.7220   16.8840  -22.2970 O.2    30  ASN30      -0.2864
     17  CB       -13.4230   20.0720  -21.6890 C.3    30  ASN30       0.1181
     18  CG       -14.9030   20.4530  -21.6500 C.2    30  ASN30       0.2629
     19  OD1      -15.3110   21.2210  -20.7950 O.2    30  ASN30      -0.2716
     20  ND2      -15.7040   19.9250  -22.5810 N.am   30  ASN30      -0.0877
     21  N        -12.1770   14.7340  -16.6480 N.3    33  PHE33      -0.1241
     22  CA       -10.7230   14.5080  -16.6840 C.3    33  PHE33       0.1605
     23  C         -9.9010   15.8060  -16.7600 C.2    33  PHE33       0.2264
     24  O         -8.7920   15.8780  -16.2240 O.2    33  PHE33      -0.2867
     25  CB       -10.3480   13.5850  -17.8590 C.3    33  PHE33       0.0534
     26  CG       -10.6700   14.1650  -19.2180 C.ar   33  PHE33      -0.0203
     27  CD1       -9.8070   15.0730  -19.8260 C.ar   33  PHE33      -0.0042
     28  CD2      -11.8450   13.8110  -19.8760 C.ar   33  PHE33      -0.0042
     29  CE1      -10.1030   15.6240  -21.0430 C.ar   33  PHE33      -0.0003
     30  CE2      -12.1580   14.3560  -21.1140 C.ar   33  PHE33      -0.0003
     31  CZ       -11.2920   15.2550  -21.7120 C.ar   33  PHE33      -0.0000
     32  N         -8.7740   19.0670  -23.4620 N.3    36  VAL36      -0.1245
     33  CA        -8.0590   18.6510  -24.6650 C.3    36  VAL36       0.1561
     34  C         -7.8720   19.8240  -25.6260 C.2    36  VAL36       0.2260
     35  O         -8.8290   20.5360  -25.9520 O.2    36  VAL36      -0.2867
     36  CB        -8.8500   17.5870  -25.4210 C.3    36  VAL36       0.0252
     37  CG1       -7.9260   16.7670  -26.3240 C.3    36  VAL36       0.0019
     38  CG2       -9.5560   16.6890  -24.4460 C.3    36  VAL36       0.0019
     39  N         -3.1570   16.5180  -30.6710 N.3    49  ALA49      -0.1245
     40  CA        -4.0830   16.8830  -29.6230 C.3    49  ALA49       0.1562
     41  C         -3.3560   16.7380  -28.3080 C.2    49  ALA49       0.2260
     42  O         -2.6010   15.7840  -28.1200 O.2    49  ALA49      -0.2867
     43  CB        -5.3050   15.9590  -29.6680 C.3    49  ALA49       0.0290
     44  N         -3.9860   16.2900  -24.3620 N.3    51  LYS51      -0.1245
     45  CA        -4.9320   15.9850  -23.2980 C.3    51  LYS51       0.1561
     46  C         -4.2950   16.2390  -21.9270 C.2    51  LYS51       0.2260
     47  O         -3.3390   15.5690  -21.5390 O.2    51  LYS51      -0.2867
     48  CB        -5.4260   14.5390  -23.4280 C.3    51  LYS51       0.0271
     49  CG        -6.4430   14.1400  -22.3710 C.3    51  LYS51       0.0035
     50  CD        -6.8470   12.6550  -22.5150 C.3    51  LYS51       0.0206
     51  CE        -8.1250   12.3450  -21.7380 C.3    51  LYS51       0.1093
     52  NZ        -8.4980   10.8580  -21.8520 N.3    51  LYS51      -0.1314
     53  N         -5.3390    5.6500  -31.3710 N.3    76  VAL76      -0.1245
     54  CA        -4.6320    6.9250  -31.2590 C.3    76  VAL76       0.1561
     55  C         -3.2930    6.7110  -30.5520 C.2    76  VAL76       0.2260
     56  O         -3.2230    6.0980  -29.4810 O.2    76  VAL76      -0.2867
     57  CB        -5.4740    8.0340  -30.5750 C.3    76  VAL76       0.0252
     58  CG1       -6.7600    8.2450  -31.3280 C.3    76  VAL76       0.0019
     59  CG2       -5.7470    7.7300  -29.0990 C.3    76  VAL76       0.0019
     60  N         -1.2480   13.3630  -28.3870 N.3    98  LEU98      -0.1231
     61  CA        -1.7710   12.2290  -29.1250 C.3    98  LEU98       0.1693
     62  C         -1.9120   12.5950  -30.6010 C.2    98  LEU98       0.2592
     63  O         -1.9400   13.7780  -30.9450 O.2    98  LEU98      -0.2718
     64  CB        -3.1300   11.8580  -28.5270 C.3    98  LEU98       0.0284
     65  CG        -3.0810   11.4810  -27.0220 C.3    98  LEU98       0.0019
     66  CD1       -4.4020   11.7690  -26.2710 C.3    98  LEU98       0.0001
     67  CD2       -2.6370   10.0410  -26.7650 C.3    98  LEU98       0.0001
     68  N         -2.0160   11.5920  -31.4700 N.am   99  ASP99      -0.1960
     69  CA        -2.4390   11.8290  -32.8590 C.3    99  ASP99       0.1840
     70  C         -3.6490   12.7520  -32.8570 C.2    99  ASP99       0.2622
     71  O         -4.5500   12.5840  -32.0440 O.2    99  ASP99      -0.2715
     72  CB        -2.8990   10.5180  -33.5230 C.3    99  ASP99       0.1450
     73  CG        -1.7600    9.5540  -33.8250 C.2    99  ASP99       0.3671
     74  OD1       -0.6090   10.0130  -34.0780 O.co2  99  ASP99      -0.2456
     75  OD2       -2.0520    8.3110  -33.8330 O.co2  99  ASP99      -0.2456
     76  N         -3.6990   13.7100  -33.7700 N.am  100  TYR100     -0.1960
     77  CA        -4.9360   14.4590  -33.9560 C.3   100  TYR100      0.1771
     78  C         -5.7780   13.8910  -35.1130 C.2   100  TYR100      0.2619
     79  O         -5.2480   13.6490  -36.2120 O.2   100  TYR100     -0.2715
     80  CB        -4.6680   15.9290  -34.2100 C.3   100  TYR100      0.0574
     81  CG        -5.9240   16.6810  -34.5760 C.ar  100  TYR100     -0.0198
     82  CD1       -6.7770   17.1780  -33.5770 C.ar  100  TYR100     -0.0009
     83  CD2       -6.2890   16.8580  -35.9170 C.ar  100  TYR100     -0.0009
     84  CE1       -7.9520   17.8490  -33.9090 C.ar  100  TYR100      0.0417
     85  CE2       -7.4610   17.5250  -36.2550 C.ar  100  TYR100      0.0417
     86  CZ        -8.2770   18.0240  -35.2550 C.ar  100  TYR100      0.1957
     87  OH        -9.4250   18.7100  -35.5920 O.3   100  TYR100     -0.2866
     88  N         -7.0870   13.7280  -34.8640 N.am  101  VAL101     -0.1964
     89  CA        -8.0480   13.2270  -35.8590 C.3   101  VAL101      0.1712
     90  C         -9.3010   14.1090  -35.7890 C.2   101  VAL101      0.2458
     91  O         -9.8450   14.3130  -34.7140 O.2   101  VAL101     -0.2730
     92  CB        -8.4160   11.7170  -35.6120 C.3   101  VAL101      0.0289
     93  CG1       -9.3250   11.1960  -36.6880 C.3   101  VAL101      0.0023
     94  CG2       -7.1840   10.8350  -35.5670 C.3   101  VAL101      0.0023
     95  N         -9.7730   14.6200  -36.9410 N.am  102  PRO102     -0.2716
     96  CA       -10.7110   15.7490  -36.9670 C.3   102  PRO102      0.1536
     97  C        -12.2140   15.4320  -36.8190 C.2   102  PRO102      0.2598
     98  O        -13.0180   16.3530  -36.6590 O.2   102  PRO102     -0.2715
     99  CB       -10.4460   16.3820  -38.3480 C.3   102  PRO102      0.0310
    100  CG       -10.0120   15.2270  -39.2180 C.3   102  PRO102      0.0237
    101  CD        -9.3530   14.2120  -38.3020 C.3   102  PRO102      0.0939
    102  N        -12.5950   14.1600  -36.8850 N.am  103  GLU103     -0.1964
    103  CA       -14.0060   13.7870  -36.7670 C.3   103  GLU103      0.1733
    104  C        -14.1910   12.6640  -35.7540 C.2   103  GLU103      0.2617
    105  O        -13.2150   12.0550  -35.3230 O.2   103  GLU103     -0.2715
    106  CB       -14.5580   13.3310  -38.1230 C.3   103  GLU103      0.0429
    107  CG       -14.9410   14.4610  -39.0570 C.3   103  GLU103      0.1163
    108  CD       -15.8960   15.4470  -38.4140 C.2   103  GLU103      0.3649
    109  OE1      -16.5640   15.0800  -37.4240 O.co2 103  GLU103     -0.2457
    110  OE2      -15.9740   16.5900  -38.9080 O.co2 103  GLU103     -0.2457
    111  N        -15.4390   12.4030  -35.3810 N.am  104  THR104     -0.1951
    112  CA       -15.7710   11.1950  -34.6230 C.3   104  THR104      0.1897
    113  C        -16.8780   10.4240  -35.3350 C.2   104  THR104      0.2313
    114  O        -17.6830   11.0030  -36.0670 O.2   104  THR104     -0.2863
    115  CB       -16.1700   11.4970  -33.1480 C.3   104  THR104      0.1794
    116  OG1      -17.4300   12.1610  -33.1040 O.3   104  THR104     -0.2208
    117  CG2      -15.1300   12.4020  -32.4650 C.3   104  THR104      0.0378
    118  N        -20.0430   12.2190  -34.5580 N.3   107  ARG107     -0.1245
    119  CA       -20.3640   13.4170  -35.3520 C.3   107  ARG107      0.1563
    120  C        -20.8280   13.0790  -36.7630 C.2   107  ARG107      0.2260
    121  O        -21.7370   13.7120  -37.2770 O.2   107  ARG107     -0.2867
    122  CB       -19.1950   14.4000  -35.3840 C.3   107  ARG107      0.0307
    123  CG       -18.8730   14.9740  -34.0010 C.3   107  ARG107      0.0489
    124  CD       -17.8350   16.0680  -34.0930 C.3   107  ARG107      0.2205
    125  NE       -17.2890   16.4430  -32.7830 N.pl3 107  ARG107     -0.0865
    126  CZ       -17.9410   17.1350  -31.8460 C.cat 107  ARG107      0.5346
    127  NH1      -17.3490   17.4380  -30.6910 N.pl3 107  ARG107      0.1354
    128  NH2      -19.1970   17.5090  -32.0460 N.pl3 107  ARG107      0.1354
    129  N        -18.6020    8.3960  -29.5490 N.3   151  GLN151     -0.1231
    130  CA       -17.8410    9.6220  -29.2970 C.3   151  GLN151      0.1698
    131  C        -16.3500    9.3290  -29.1300 C.2   151  GLN151      0.2592
    132  O        -15.5130   10.2400  -29.3020 O.2   151  GLN151     -0.2718
    133  CB       -18.3620   10.3790  -28.0380 C.3   151  GLN151      0.0381
    134  CG       -19.8200   10.8860  -28.0970 C.3   151  GLN151      0.0905
    135  CD       -20.8890    9.7900  -27.7920 C.2   151  GLN151      0.2608
    136  OE1      -22.0210   10.0930  -27.4080 O.2   151  GLN151     -0.2717
    137  NE2      -20.5090    8.5430  -27.8980 N.am  151  GLN151     -0.0878
    138  N        -16.0140    8.0790  -28.7880 N.am  152  ASN152     -0.1974
    139  CA       -14.6110    7.6730  -28.5440 C.3   152  ASN152      0.1688
    140  C        -13.9710    7.0160  -29.7570 C.2   152  ASN152      0.2292
    141  O        -12.8910    6.4410  -29.6650 O.2   152  ASN152     -0.2864
    142  CB       -14.4640    6.7840  -27.2720 C.3   152  ASN152      0.1181
    143  CG       -14.7250    7.5680  -25.9670 C.2   152  ASN152      0.2629
    144  OD1      -14.6380    8.7900  -25.9560 O.2   152  ASN152     -0.2716
    145  ND2      -15.0750    6.8700  -24.8860 N.am  152  ASN152     -0.0877
    146  N        -12.5030    7.9950  -33.2150 N.3   154  LEU154     -0.1245
    147  CA       -12.0730    9.0730  -34.0660 C.3   154  LEU154      0.1561
    148  C        -11.9400    8.5900  -35.5020 C.2   154  LEU154      0.2260
    149  O        -11.5850    7.4380  -35.7580 O.2   154  LEU154     -0.2867
    150  CB       -10.7410    9.6730  -33.5760 C.3   154  LEU154      0.0270
    151  CG       -10.6750   10.0710  -32.1090 C.3   154  LEU154      0.0019
    152  CD1       -9.3080   10.7160  -31.8060 C.3   154  LEU154      0.0001
    153  CD2      -11.8420   10.9960  -31.6830 C.3   154  LEU154      0.0001
    154  N        -10.0560    5.9750  -29.0630 N.3   165  CYS165     -0.1221
    155  CA        -9.4140    6.8850  -28.0980 C.3   165  CYS165      0.1808
    156  C        -10.0230    6.8170  -26.6810 C.2   165  CYS165      0.2601
    157  O        -10.9220    6.0240  -26.4160 O.2   165  CYS165     -0.2717
    158  CB        -9.4370    8.3230  -28.6280 C.3   165  CYS165      0.0970
    159  SG       -11.0780    9.0510  -28.6290 S.3   165  CYS165     -0.0800
    160  N         -9.5240    7.6790  -25.7980 N.am  166  ASP166     -0.1973
    161  CA        -9.9590    7.8100  -24.3870 C.3   166  ASP166      0.1709
    162  C         -9.8210    6.5240  -23.5820 C.2   166  ASP166      0.2293
    163  O        -10.7940    5.7670  -23.3840 O.2   166  ASP166     -0.2864
    164  CB       -11.3520    8.4260  -24.2660 C.3   166  ASP166      0.1436
    165  CG       -11.8070    8.5740  -22.8130 C.2   166  ASP166      0.3671
    166  OD1      -10.9340    8.5270  -21.9050 O.co2 166  ASP166     -0.2456
    167  OD2      -13.0420    8.7350  -22.5720 O.co2 166  ASP166     -0.2456
@<TRIPOS>BOND
     1   100    99    1
     2   100   101    1
     3   107   108    1
     4   107   106    1
     5   110   108   ar
     6   108   109   ar
     7    99    96    1
     8   101    95    1
     9   106   103    1
    10   121   120    2
    11    96    95    1
    12    96    97    1
    13    95    90   am
    14   102    97   am
    15   102   103    1
    16    97    98    2
    17   103   104    1
    18   120   119    1
    19    93    92    1
    20    85    83   ar
    21    85    86   ar
    22    79    78    2
    23   114   113    2
    24    83    81   ar
    25    89    90    1
    26    89    92    1
    27    89    88    1
    28    90    91    2
    29   149   148    2
    30   104   111   am
    31   104   105    2
    32    92    94    1
    33    87    86    1
    34   148   147    1
    35   122   119    1
    36   122   123    1
    37   111   112    1
    38   119   118    1
    39   113   112    1
    40    86    84   ar
    41    78    88   am
    42    78    77    1
    43   112   115    1
    44    81    80    1
    45    81    82   ar
    46    80    77    1
    47   124   123    1
    48   124   125    1
    49    74    73   ar
    50   147   150    1
    51   147   146    1
    52    77    76    1
    53    84    82   ar
    54    75    73   ar
    55    73    72    1
    56    76    70   am
    57   150   151    1
    58    72    69    1
    59   115   116    1
    60   115   117    1
    61    69    70    1
    62    69    68    1
    63    70    71    2
    64   125   126    2
    65   151   152    1
    66   151   153    1
    67   128   126    1
    68   126   127    1
    69    68    62   am
    70    53    54    1
    71    58    57    1
    72    54    57    1
    73    54    55    1
    74    63    62    2
    75     7     5    1
    76    39    40    1
    77    62    61    1
    78    57    59    1
    79    55    56    2
    80     8     6    1
    81     5     6    1
    82     5     2    1
    83   140   141    2
    84   140   139    1
    85    43    40    1
    86    40    41    1
    87   129   130    1
    88   132   131    2
    89   130   131    1
    90   130   133    1
    91   131   138   am
    92    61    64    1
    93    61    60    1
    94   154   155    1
    95     2     3    1
    96     2     1    1
    97   138   139    1
    98     4     3    2
    99   159   158    1
   100   158   155    1
   101   139   142    1
   102    64    65    1
   103    41    42    2
   104     3     9   am
   105   155   156    1
   106   134   133    1
   107   134   135    1
   108   137   135   am
   109   135   136    2
   110   142   143    1
   111    65    67    1
   112    65    66    1
   113     9    10    1
   114   156   157    2
   115   156   160   am
   116    37    36    1
   117    10    11    1
   118   143   144    2
   119   143   145   am
   120    35    34    2
   121   160   161    1
   122    34    33    1
   123    36    33    1
   124    36    38    1
   125    33    32    1
   126    11    12    2
   127    11    13   am
   128   161   164    1
   129   161   162    1
   130    44    45    1
   131   164   165    1
   132    13    14    1
   133   162   163    2
   134    48    45    1
   135    48    49    1
   136    45    46    1
   137   165   167   ar
   138   165   166   ar
   139    20    18   am
   140    50    49    1
   141    50    51    1
   142    16    15    2
   143    14    17    1
   144    14    15    1
   145    46    47    2
   146    52    51    1
   147    31    30   ar
   148    31    29   ar
   149    17    18    1
   150    18    19    2
   151    30    28   ar
   152    29    27   ar
   153    28    26   ar
   154    27    26   ar
   155    26    25    1
   156    25    22    1
   157    23    22    1
   158    23    24    2
   159    22    21    1
