@<TRIPOS>MOLECULE
tmp/3sazA00.pdb
 162 152 0 0 0
SMALL
GASTEIGER

@<TRIPOS>ATOM
      1  N         26.8790   79.7880   60.8750 N.3   117  VAL117     -0.1245
      2  CA        27.8230   79.5710   59.7800 C.3   117  VAL117      0.1561
      3  C         27.5150   78.2590   59.0850 C.2   117  VAL117      0.2260
      4  O         27.3770   77.2330   59.7440 O.2   117  VAL117     -0.2867
      5  CB        29.2830   79.5440   60.2820 C.3   117  VAL117      0.0252
      6  CG1       30.2440   79.3900   59.1200 C.3   117  VAL117      0.0019
      7  CG2       29.6020   80.8220   61.0910 C.3   117  VAL117      0.0019
      8  N         34.9300   79.2310   52.6720 N.3   272  GLU272     -0.1231
      9  CA        36.2480   78.8840   53.2350 C.3   272  GLU272      0.1699
     10  C         36.2580   77.5390   53.9830 C.2   272  GLU272      0.2592
     11  O         36.1100   76.4860   53.3590 O.2   272  GLU272     -0.2718
     12  CB        36.8160   80.0130   54.1220 C.3   272  GLU272      0.0402
     13  CG        38.3260   79.8640   54.4310 C.3   272  GLU272      0.1161
     14  CD        38.6930   80.2400   55.8560 C.2   272  GLU272      0.3649
     15  OE1       37.8270   80.0940   56.7550 O.co2 272  GLU272     -0.2457
     16  OE2       39.8490   80.6760   56.0870 O.co2 272  GLU272     -0.2457
     17  N         36.4440   77.5690   55.3040 N.am  273  ASP273     -0.1960
     18  CA        36.8500   76.3610   56.0370 C.3   273  ASP273      0.1840
     19  C         35.8190   75.2280   56.1540 C.2   273  ASP273      0.2622
     20  O         36.1770   74.0900   56.4690 O.2   273  ASP273     -0.2715
     21  CB        37.4130   76.7140   57.4250 C.3   273  ASP273      0.1450
     22  CG        38.9080   77.0650   57.3880 C.2   273  ASP273      0.3671
     23  OD1       39.5250   77.1660   58.4640 O.co2 273  ASP273     -0.2456
     24  OD2       39.4790   77.2370   56.2930 O.co2 273  ASP273     -0.2456
     25  N         34.5470   75.5220   55.9130 N.am  274  SER274     -0.1950
     26  CA        33.5450   74.4620   55.9550 C.3   274  SER274      0.1924
     27  C         33.2330   73.8170   54.5870 C.2   274  SER274      0.2314
     28  O         32.3440   72.9700   54.4980 O.2   274  SER274     -0.2863
     29  CB        32.2510   74.9680   56.6060 C.3   274  SER274      0.2116
     30  OG        31.5790   75.8640   55.7460 O.3   274  SER274     -0.2180
     31  N         31.5960   84.3630   53.5020 N.3   330  ARG330     -0.1245
     32  CA        33.0040   84.2860   53.8790 C.3   330  ARG330      0.1563
     33  C         33.8440   83.8550   52.6890 C.2   330  ARG330      0.2260
     34  O         33.7260   82.7190   52.2150 O.2   330  ARG330     -0.2867
     35  CB        33.2450   83.3610   55.0770 C.3   330  ARG330      0.0307
     36  CG        34.7380   83.2790   55.4480 C.3   330  ARG330      0.0489
     37  CD        34.9850   82.7560   56.8600 C.3   330  ARG330      0.2205
     38  NE        34.6940   81.3360   56.9740 N.pl3 330  ARG330     -0.0865
     39  CZ        34.8930   80.6080   58.0740 C.cat 330  ARG330      0.5346
     40  NH1       35.3920   81.1630   59.1720 N.pl3 330  ARG330      0.1354
     41  NH2       34.6090   79.3130   58.0650 N.pl3 330  ARG330      0.1354
     42  N         38.2390   88.4530   60.7700 N.3   419  MET419     -0.1245
     43  CA        38.5470   87.3660   61.6680 C.3   419  MET419      0.1570
     44  C         39.7920   87.7600   62.4370 C.2   419  MET419      0.2261
     45  O         40.7910   88.1540   61.8470 O.2   419  MET419     -0.2867
     46  CB        38.7570   86.0380   60.9330 C.3   419  MET419      0.0387
     47  CG        37.5120   85.4740   60.2070 C.3   419  MET419      0.0595
     48  SD        35.9740   85.3520   61.1860 S.3   419  MET419     -0.1393
     49  CE        36.4830   84.1920   62.4670 C.3   419  MET419      0.0692
     50  N         42.0320   85.7230   64.1350 N.3   421  GLU421     -0.1245
     51  CA        42.2840   84.2910   64.2500 C.3   421  GLU421      0.1567
     52  C         43.7120   83.9200   63.8680 C.2   421  GLU421      0.2260
     53  O         44.0040   82.7630   63.6040 O.2   421  GLU421     -0.2867
     54  CB        41.2960   83.4920   63.4080 C.3   421  GLU421      0.0388
     55  CG        41.4670   83.6390   61.8840 C.3   421  GLU421      0.1160
     56  CD        40.3520   82.9560   61.1340 C.2   421  GLU421      0.3649
     57  OE1       40.1550   83.2250   59.9290 O.co2 421  GLU421     -0.2457
     58  OE2       39.6430   82.1510   61.7630 O.co2 421  GLU421     -0.2457
     59  N         38.1740   83.9310   65.9070 N.3   446  GLY446     -0.1210
     60  CA        38.1590   82.5780   65.3690 C.3   446  GLY446      0.1956
     61  C         39.1720   81.7510   66.1460 C.2   446  GLY446      0.2612
     62  O         40.2940   81.5330   65.7010 O.2   446  GLY446     -0.2717
     63  N         38.7630   81.3130   67.3310 N.am  447  PHE447     -0.1962
     64  CA        39.6730   80.7230   68.3020 C.3   447  PHE447      0.1771
     65  C         40.3280   79.4150   67.8590 C.2   447  PHE447      0.2619
     66  O         41.3810   79.0400   68.3740 O.2   447  PHE447     -0.2715
     67  CB        38.9620   80.5460   69.6520 C.3   447  PHE447      0.0574
     68  CG        38.0620   79.3360   69.7210 C.ar  447  PHE447     -0.0200
     69  CD1       38.4490   78.2080   70.4320 C.ar  447  PHE447     -0.0042
     70  CD2       36.8340   79.3270   69.0800 C.ar  447  PHE447     -0.0042
     71  CE1       37.6290   77.0950   70.5070 C.ar  447  PHE447     -0.0003
     72  CE2       35.9980   78.2110   69.1460 C.ar  447  PHE447     -0.0003
     73  CZ        36.3940   77.0970   69.8700 C.ar  447  PHE447     -0.0000
     74  N         39.7130   78.7170   66.9150 N.am  448  LEU448     -0.1963
     75  CA        40.2800   77.4570   66.4690 C.3   448  LEU448      0.1728
     76  C         41.4690   77.7010   65.5410 C.2   448  LEU448      0.2616
     77  O         42.5550   77.1880   65.7740 O.2   448  LEU448     -0.2715
     78  CB        39.2110   76.5870   65.8200 C.3   448  LEU448      0.0311
     79  CG        38.0910   76.2310   66.8130 C.3   448  LEU448      0.0022
     80  CD1       36.8400   75.7620   66.0910 C.3   448  LEU448      0.0001
     81  CD2       38.5550   75.1740   67.8110 C.3   448  LEU448      0.0001
     82  N         41.2770   78.4870   64.4910 N.am  449  ASP449     -0.1971
     83  CA        42.4240   78.8840   63.6810 C.3   449  ASP449      0.1709
     84  C         43.4880   79.5290   64.5520 C.2   449  ASP449      0.2293
     85  O         44.6880   79.2720   64.3790 O.2   449  ASP449     -0.2864
     86  CB        42.0210   79.8620   62.5910 C.3   449  ASP449      0.1436
     87  CG        41.8080   79.1820   61.2800 C.2   449  ASP449      0.3671
     88  OD1       40.8040   79.4860   60.6300 O.co2 449  ASP449     -0.2456
     89  OD2       42.6420   78.3270   60.9120 O.co2 449  ASP449     -0.2456
     90  N         33.4360   82.7210   69.0430 N.3   501  GLY501     -0.1210
     91  CA        33.5290   81.5490   68.1830 C.3   501  GLY501      0.1956
     92  C         32.4800   80.4630   68.2900 C.2   501  GLY501      0.2611
     93  O         31.4780   80.5870   69.0070 O.2   501  GLY501     -0.2717
     94  N         32.7540   79.3820   67.5660 N.am  502  MET502     -0.1979
     95  CA        31.8070   78.3080   67.2830 C.3   502  MET502      0.1605
     96  C         31.7020   77.2940   68.4130 C.2   502  MET502      0.2287
     97  O         32.7120   76.9010   69.0180 O.2   502  MET502     -0.2864
     98  CB        32.2750   77.5680   66.0220 C.3   502  MET502      0.0413
     99  CG        31.3780   76.4100   65.6130 C.3   502  MET502      0.0598
    100  SD        29.7270   77.0000   65.1850 S.3   502  MET502     -0.1393
    101  CE        29.9770   77.5670   63.5010 C.3   502  MET502      0.0692
    102  N         31.2080   73.5820   68.9450 N.3   504  THR504     -0.1218
    103  CA        31.4310   72.4630   68.0340 C.3   504  THR504      0.1862
    104  C         30.7730   71.1620   68.4720 C.2   504  THR504      0.2287
    105  O         30.7300   70.2180   67.7040 O.2   504  THR504     -0.2866
    106  CB        32.9250   72.1760   67.8910 C.3   504  THR504      0.1770
    107  OG1       33.4480   71.7810   69.1640 O.3   504  THR504     -0.2211
    108  CG2       33.6540   73.4310   67.4160 C.3   504  THR504      0.0375
    109  N         29.1210   82.3290   67.2100 N.3   528  TRP528     -0.1241
    110  CA        28.8130   81.3570   66.1710 C.3   528  TRP528      0.1605
    111  C         28.1600   80.0770   66.6740 C.2   528  TRP528      0.2264
    112  O         28.5730   79.4910   67.6850 O.2   528  TRP528     -0.2867
    113  CB        30.0590   81.0180   65.3330 C.3   528  TRP528      0.0550
    114  CG        30.5380   82.1440   64.4420 C.ar  528  TRP528      0.0003
    115  CD1       30.0060   83.4020   64.3430 C.ar  528  TRP528      0.0946
    116  CD2       31.6340   82.1010   63.5100 C.ar  528  TRP528      0.0152
    117  NE1       30.7020   84.1410   63.4160 N.ar  528  TRP528     -0.2442
    118  CE2       31.7120   83.3700   62.8970 C.ar  528  TRP528      0.0810
    119  CE3       32.5620   81.1160   63.1440 C.ar  528  TRP528      0.0012
    120  CZ2       32.6820   83.6810   61.9410 C.ar  528  TRP528      0.0191
    121  CZ3       33.5240   81.4230   62.1840 C.ar  528  TRP528      0.0001
    122  CH2       33.5710   82.6930   61.5910 C.ar  528  TRP528      0.0015
    123  N         26.4970   76.2580   64.9610 N.3   530  PRO530     -0.2116
    124  CA        26.6430   75.3320   63.8340 C.3   530  PRO530      0.1372
    125  C         25.3310   74.9660   63.1270 C.2   530  PRO530      0.2244
    126  O         25.3840   74.3910   62.0360 O.2   530  PRO530     -0.2868
    127  CB        27.2230   74.0930   64.5100 C.3   530  PRO530      0.0268
    128  CG        26.5440   74.0880   65.8440 C.3   530  PRO530      0.0207
    129  CD        26.4530   75.5480   66.2530 C.3   530  PRO530      0.0892
    130  N         32.8950   69.9920   55.9110 N.3   606  ALA606     -0.1245
    131  CA        32.4870   70.0300   57.3130 C.3   606  ALA606      0.1562
    132  C         31.7110   68.7670   57.6460 C.2   606  ALA606      0.2260
    133  O         30.7180   68.4590   56.9800 O.2   606  ALA606     -0.2867
    134  CB        31.6240   71.2580   57.5970 C.3   606  ALA606      0.0290
    135  N         31.5790   68.9780   65.2270 N.3   618  MET618     -0.1245
    136  CA        31.6200   69.5640   63.8940 C.3   618  MET618      0.1570
    137  C         33.0610   69.9590   63.5920 C.2   618  MET618      0.2261
    138  O         33.5930   70.9160   64.1480 O.2   618  MET618     -0.2867
    139  CB        30.6810   70.7660   63.7690 C.3   618  MET618      0.0387
    140  CG        30.5090   71.2880   62.3370 C.3   618  MET618      0.0595
    141  SD        29.7760   70.1230   61.1520 S.3   618  MET618     -0.1393
    142  CE        28.0710   70.0800   61.7050 C.3   618  MET618      0.0692
    143  N         35.9460   71.2800   61.0230 N.3   620  ASP620     -0.1239
    144  CA        36.2320   71.9660   59.7670 C.3   620  ASP620      0.1674
    145  C         37.7400   72.1190   59.6610 C.2   620  ASP620      0.2266
    146  O         38.4740   71.4980   60.4240 O.2   620  ASP620     -0.2867
    147  CB        35.4940   73.3120   59.6740 C.3   620  ASP620      0.1410
    148  CG        36.2080   74.4320   60.4000 C.2   620  ASP620      0.3668
    149  OD1       36.9680   74.1650   61.3560 O.co2 620  ASP620     -0.2456
    150  OD2       36.0110   75.5960   59.9960 O.co2 620  ASP620     -0.2456
    151  N         39.7940   74.4020   60.4860 N.3   622  ALA622     -0.1231
    152  CA        40.4720   74.9900   61.6310 C.3   622  ALA622      0.1694
    153  C         40.7620   73.9310   62.7060 C.2   622  ALA622      0.2592
    154  O         41.8450   73.9000   63.2850 O.2   622  ALA622     -0.2718
    155  CB        39.6560   76.1510   62.2100 C.3   622  ALA622      0.0304
    156  N         39.7970   73.0590   62.9670 N.am  623  THR623     -0.1953
    157  CA        39.9940   72.0150   63.9710 C.3   623  THR623      0.1897
    158  C         41.0720   71.0310   63.4840 C.2   623  THR623      0.2313
    159  O         41.8520   70.5020   64.2740 O.2   623  THR623     -0.2863
    160  CB        38.6780   71.2750   64.2820 C.3   623  THR623      0.1794
    161  OG1       38.1280   70.7370   63.0730 O.3   623  THR623     -0.2208
    162  CG2       37.6550   72.2340   64.9080 C.3   623  THR623      0.0378
@<TRIPOS>BOND
     1    34    33    2
     2     8     9    1
     3    33    32    1
     4     9    10    1
     5     9    12    1
     6    11    10    2
     7    31    32    1
     8    32    35    1
     9    10    17   am
    10    12    13    1
    11    13    14    1
    12    28    27    2
    13    27    26    1
    14    35    36    1
    15    17    18    1
    16    36    37    1
    17    30    29    1
    18    14    16   ar
    19    14    15   ar
    20   130   131    1
    21    25    26    1
    22    25    19   am
    23    26    29    1
    24    18    19    1
    25    18    21    1
    26    19    20    2
    27    24    22   ar
    28    37    38    1
    29    38    39    2
    30   133   132    2
    31   131   134    1
    32   131   132    1
    33    22    21    1
    34    22    23   ar
    35    41    39    1
    36    39    40    1
    37     3     4    2
    38     3     2    1
    39     6     5    1
    40   145   144    1
    41   145   146    2
    42   147   144    1
    43   147   148    1
    44   144   143    1
    45     2     5    1
    46     2     1    1
    47    57    56   ar
    48   150   148   ar
    49    47    46    1
    50    47    48    1
    51     5     7    1
    52   148   149   ar
    53   151   152    1
    54    88    87   ar
    55    42    43    1
    56    89    87   ar
    57    46    43    1
    58    56    58   ar
    59    56    55    1
    60   141   142    1
    61   141   140    1
    62    48    49    1
    63    87    86    1
    64   122   120   ar
    65   122   121   ar
    66   152   155    1
    67   152   153    1
    68    43    44    1
    69    45    44    2
    70    55    54    1
    71   120   118   ar
    72   126   125    2
    73   121   119   ar
    74   140   139    1
    75    86    83    1
    76   153   156   am
    77   153   154    2
    78   118   117   ar
    79   118   116   ar
    80   156   157    1
    81   161   160    1
    82   125   124    1
    83   119   116   ar
    84    54    51    1
    85   117   115   ar
    86   158   157    1
    87   158   159    2
    88   101   100    1
    89   116   114   ar
    90   137   136    1
    91   137   138    2
    92    53    52    2
    93    83    82    1
    94    83    84    1
    95   139   136    1
    96   124   127    1
    97   124   123    1
    98    52    51    1
    99   136   135    1
   100   157   160    1
   101    50    51    1
   102   160   162    1
   103   115   114   ar
   104    85    84    2
   105   114   113    1
   106    82    76   am
   107   127   128    1
   108   123   129    1
   109   100    99    1
   110   113   110    1
   111    60    59    1
   112    60    61    1
   113    76    77    2
   114    76    75    1
   115    99    98    1
   116    62    61    2
   117    78    75    1
   118    78    79    1
   119   128   129    1
   120    98    95    1
   121    80    79    1
   122    61    63   am
   123   110   111    1
   124   110   109    1
   125    75    74    1
   126   111   112    2
   127    79    81    1
   128    74    65   am
   129    95    94    1
   130    95    96    1
   131    63    64    1
   132   108   106    1
   133    94    92   am
   134   105   104    2
   135    65    64    1
   136    65    66    2
   137   106   103    1
   138   106   107    1
   139   103   104    1
   140   103   102    1
   141    91    92    1
   142    91    90    1
   143    92    93    2
   144    64    67    1
   145    96    97    2
   146    70    72   ar
   147    70    68   ar
   148    72    73   ar
   149    67    68    1
   150    68    69   ar
   151    73    71   ar
   152    69    71   ar
