@<TRIPOS>MOLECULE
tmp/3sb0A00.pdb
 168 157 0 0 0
SMALL
GASTEIGER

@<TRIPOS>ATOM
      1  N         26.9550   80.1930   60.8480 N.3   113  VAL113     -0.1245
      2  CA        27.9290   80.0500   59.7710 C.3   113  VAL113      0.1561
      3  C         27.7150   78.7390   59.0220 C.2   113  VAL113      0.2260
      4  O         27.6430   77.6910   59.6490 O.2   113  VAL113     -0.2867
      5  CB        29.3650   80.0720   60.3250 C.3   113  VAL113      0.0252
      6  CG1       30.3700   79.9920   59.2050 C.3   113  VAL113      0.0019
      7  CG2       29.5840   81.3240   61.1740 C.3   113  VAL113      0.0019
      8  N         28.3620   76.2590   55.1460 N.3   115  PRO115     -0.2116
      9  CA        29.0240   76.0590   53.8470 C.3   115  PRO115      0.1372
     10  C         28.1220   76.4240   52.6640 C.2   115  PRO115      0.2244
     11  O         27.0370   75.8550   52.5070 O.2   115  PRO115     -0.2868
     12  CB        29.3530   74.5540   53.8360 C.3   115  PRO115      0.0268
     13  CG        28.4560   73.9500   54.8520 C.3   115  PRO115      0.0207
     14  CD        28.2470   74.9990   55.9030 C.3   115  PRO115      0.0892
     15  N         29.6390   80.6530   53.7350 N.3   266  ASP266     -0.1239
     16  CA        31.0760   80.4900   53.8370 C.3   266  ASP266      0.1674
     17  C         31.6750   79.8370   52.6000 C.2   266  ASP266      0.2266
     18  O         31.2930   78.7240   52.2420 O.2   266  ASP266     -0.2867
     19  CB        31.3970   79.6740   55.0930 C.3   266  ASP266      0.1410
     20  CG        32.8780   79.5000   55.3110 C.2   266  ASP266      0.3668
     21  OD1       33.6680   80.3740   54.8830 O.co2 266  ASP266     -0.2456
     22  OD2       33.2600   78.4820   55.9190 O.co2 266  ASP266     -0.2456
     23  N         36.6560   78.0110   55.2220 N.3   269  ASP269     -0.1225
     24  CA        37.0530   76.8230   55.9570 C.3   269  ASP269      0.1805
     25  C         36.0320   75.6830   56.0570 C.2   269  ASP269      0.2598
     26  O         36.4000   74.5470   56.3750 O.2   269  ASP269     -0.2718
     27  CB        37.6340   77.2010   57.3280 C.3   269  ASP269      0.1424
     28  CG        39.1320   77.4970   57.2520 C.2   269  ASP269      0.3668
     29  OD1       39.7910   77.5160   58.3030 O.co2 269  ASP269     -0.2456
     30  OD2       39.6530   77.6870   56.1210 O.co2 269  ASP269     -0.2456
     31  N         34.7660   75.9600   55.7650 N.am  270  SER270     -0.1952
     32  CA        33.7740   74.8920   55.7990 C.3   270  SER270      0.1924
     33  C         33.4500   74.2280   54.4390 C.2   270  SER270      0.2314
     34  O         32.6360   73.3100   54.3790 O.2   270  SER270     -0.2863
     35  CB        32.4920   75.3740   56.4890 C.3   270  SER270      0.2116
     36  OG        31.8480   76.3490   55.7010 O.3   270  SER270     -0.2180
     37  N         31.7710   84.8360   53.5480 N.3   324  ARG324     -0.1245
     38  CA        33.1790   84.7320   53.9170 C.3   324  ARG324      0.1563
     39  C         34.0050   84.3340   52.6960 C.2   324  ARG324      0.2260
     40  O         33.8990   83.2080   52.2110 O.2   324  ARG324     -0.2867
     41  CB        33.4150   83.7550   55.0760 C.3   324  ARG324      0.0307
     42  CG        34.8840   83.7290   55.5510 C.3   324  ARG324      0.0489
     43  CD        35.0630   83.1400   56.9690 C.3   324  ARG324      0.2205
     44  NE        34.8100   81.6970   57.0330 N.pl3 324  ARG324     -0.0865
     45  CZ        35.0520   80.9420   58.1070 C.cat 324  ARG324      0.5346
     46  NH1       35.5740   81.4820   59.1940 N.pl3 324  ARG324      0.1354
     47  NH2       34.8010   79.6400   58.0950 N.pl3 324  ARG324      0.1354
     48  N         38.2330   88.8200   60.8420 N.3   413  MET413     -0.1245
     49  CA        38.5920   87.7240   61.7300 C.3   413  MET413      0.1570
     50  C         39.8920   88.0910   62.4340 C.2   413  MET413      0.2261
     51  O         40.8990   88.3910   61.7880 O.2   413  MET413     -0.2867
     52  CB        38.7820   86.4060   60.9580 C.3   413  MET413      0.0387
     53  CG        37.5520   85.9370   60.1840 C.3   413  MET413      0.0595
     54  SD        36.0660   85.6530   61.1820 S.3   413  MET413     -0.1393
     55  CE        36.7510   84.5640   62.4360 C.3   413  MET413      0.0692
     56  N         42.1470   86.0790   64.0660 N.3   415  GLU415     -0.1245
     57  CA        42.4470   84.6460   64.1950 C.3   415  GLU415      0.1567
     58  C         43.8880   84.3180   63.7940 C.2   415  GLU415      0.2260
     59  O         44.2070   83.1790   63.4700 O.2   415  GLU415     -0.2867
     60  CB        41.4780   83.8220   63.3630 C.3   415  GLU415      0.0388
     61  CG        41.5930   84.0650   61.8600 C.3   415  GLU415      0.1160
     62  CD        40.4870   83.3980   61.1010 C.2   415  GLU415      0.3649
     63  OE1       40.2780   83.7470   59.9240 O.co2 415  GLU415     -0.2457
     64  OE2       39.8040   82.5350   61.6950 O.co2 415  GLU415     -0.2457
     65  N         38.2360   84.3370   65.9030 N.3   440  GLY440     -0.1210
     66  CA        38.2570   82.9880   65.3600 C.3   440  GLY440      0.1956
     67  C         39.2980   82.2130   66.1450 C.2   440  GLY440      0.2612
     68  O         40.4400   82.0600   65.7050 O.2   440  GLY440     -0.2717
     69  N         38.8930   81.7460   67.3250 N.am  441  PHE441     -0.1962
     70  CA        39.7940   81.1460   68.3000 C.3   441  PHE441      0.1771
     71  C         40.4350   79.8190   67.8840 C.2   441  PHE441      0.2619
     72  O         41.4720   79.4350   68.4150 O.2   441  PHE441     -0.2715
     73  CB        39.0910   80.9980   69.6590 C.3   441  PHE441      0.0574
     74  CG        38.1690   79.8130   69.7620 C.ar  441  PHE441     -0.0200
     75  CD1       38.5220   78.7130   70.5320 C.ar  441  PHE441     -0.0042
     76  CD2       36.9280   79.8160   69.1310 C.ar  441  PHE441     -0.0042
     77  CE1       37.6610   77.6220   70.6560 C.ar  441  PHE441     -0.0003
     78  CE2       36.0580   78.7320   69.2430 C.ar  441  PHE441     -0.0003
     79  CZ        36.4240   77.6350   70.0090 C.ar  441  PHE441     -0.0000
     80  N         39.8270   79.1220   66.9370 N.am  442  LEU442     -0.1963
     81  CA        40.3990   77.8610   66.4930 C.3   442  LEU442      0.1728
     82  C         41.5980   78.0920   65.5530 C.2   442  LEU442      0.2616
     83  O         42.6670   77.5100   65.7510 O.2   442  LEU442     -0.2715
     84  CB        39.3310   76.9630   65.8820 C.3   442  LEU442      0.0311
     85  CG        38.2860   76.5340   66.9150 C.3   442  LEU442      0.0022
     86  CD1       36.9610   76.1800   66.2620 C.3   442  LEU442      0.0001
     87  CD2       38.7680   75.3850   67.8380 C.3   442  LEU442      0.0001
     88  N         41.4420   78.9560   64.5540 N.am  443  ASP443     -0.1971
     89  CA        42.5830   79.2940   63.7030 C.3   443  ASP443      0.1709
     90  C         43.6540   79.9350   64.5460 C.2   443  ASP443      0.2293
     91  O         44.8470   79.7070   64.3430 O.2   443  ASP443     -0.2864
     92  CB        42.1920   80.2680   62.5970 C.3   443  ASP443      0.1436
     93  CG        41.9380   79.5740   61.2780 C.2   443  ASP443      0.3671
     94  OD1       40.9680   79.9470   60.5950 O.co2 443  ASP443     -0.2456
     95  OD2       42.7010   78.6510   60.9160 O.co2 443  ASP443     -0.2456
     96  N         33.5270   83.1220   69.0490 N.3   495  GLY495     -0.1210
     97  CA        33.6390   81.9710   68.1760 C.3   495  GLY495      0.1956
     98  C         32.6370   80.8420   68.2940 C.2   495  GLY495      0.2611
     99  O         31.6510   80.9160   69.0300 O.2   495  GLY495     -0.2717
    100  N         32.9490   79.7650   67.5770 N.am  496  MET496     -0.1979
    101  CA        32.0090   78.6960   67.2740 C.3   496  MET496      0.1605
    102  C         31.8930   77.6780   68.3900 C.2   496  MET496      0.2287
    103  O         32.8910   77.3010   69.0130 O.2   496  MET496     -0.2864
    104  CB        32.4510   77.9830   65.9900 C.3   496  MET496      0.0413
    105  CG        31.5470   76.8380   65.5750 C.3   496  MET496      0.0598
    106  SD        29.8770   77.3740   65.1250 S.3   496  MET496     -0.1393
    107  CE        30.1710   78.1280   63.5250 C.3   496  MET496      0.0692
    108  N         31.2680   73.8900   68.8710 N.3   498  THR498     -0.1218
    109  CA        31.4610   72.8020   67.9120 C.3   498  THR498      0.1862
    110  C         30.7510   71.5150   68.2920 C.2   498  THR498      0.2287
    111  O         30.5420   70.6510   67.4490 O.2   498  THR498     -0.2866
    112  CB        32.9470   72.4980   67.7270 C.3   498  THR498      0.1770
    113  OG1       33.5280   72.2510   69.0150 O.3   498  THR498     -0.2211
    114  CG2       33.6530   73.6950   67.0730 C.3   498  THR498      0.0375
    115  N         29.2710   82.6600   67.2440 N.3   522  TRP522     -0.1241
    116  CA        28.9770   81.6530   66.2190 C.3   522  TRP522      0.1605
    117  C         28.2970   80.3630   66.6960 C.2   522  TRP522      0.2264
    118  O         28.6560   79.7790   67.7230 O.2   522  TRP522     -0.2867
    119  CB        30.2200   81.3210   65.3930 C.3   522  TRP522      0.0550
    120  CG        30.6610   82.4600   64.5300 C.ar  522  TRP522      0.0003
    121  CD1       30.1490   83.7260   64.5200 C.ar  522  TRP522      0.0946
    122  CD2       31.7110   82.4430   63.5520 C.ar  522  TRP522      0.0152
    123  NE1       30.8170   84.4970   63.6020 N.ar  522  TRP522     -0.2442
    124  CE2       31.7790   83.7380   62.9920 C.ar  522  TRP522      0.0810
    125  CE3       32.5930   81.4590   63.0930 C.ar  522  TRP522      0.0012
    126  CZ2       32.7020   84.0790   61.9950 C.ar  522  TRP522      0.0191
    127  CZ3       33.5080   81.7990   62.0980 C.ar  522  TRP522      0.0001
    128  CH2       33.5530   83.0950   61.5610 C.ar  522  TRP522      0.0015
    129  N         26.6410   76.5570   64.8980 N.3   524  PRO524     -0.2116
    130  CA        26.7810   75.7240   63.7060 C.3   524  PRO524      0.1372
    131  C         25.4540   75.2890   63.0910 C.2   524  PRO524      0.2244
    132  O         25.5040   74.6820   62.0250 O.2   524  PRO524     -0.2868
    133  CB        27.5160   74.5000   64.2530 C.3   524  PRO524      0.0268
    134  CG        26.9450   74.3460   65.6390 C.3   524  PRO524      0.0207
    135  CD        26.6500   75.7470   66.1360 C.3   524  PRO524      0.0892
    136  N         33.0400   70.3070   55.7280 N.3   600  ALA600     -0.1245
    137  CA        32.6010   70.3660   57.1290 C.3   600  ALA600      0.1562
    138  C         31.8170   69.1060   57.4560 C.2   600  ALA600      0.2260
    139  O         30.8980   68.7500   56.7210 O.2   600  ALA600     -0.2867
    140  CB        31.7290   71.6200   57.3950 C.3   600  ALA600      0.0290
    141  N         31.8020   69.3250   65.1860 N.3   612  MET612     -0.1245
    142  CA        31.7090   69.8590   63.8400 C.3   612  MET612      0.1570
    143  C         33.1110   70.2850   63.4360 C.2   612  MET612      0.2261
    144  O         33.6510   71.2420   63.9680 O.2   612  MET612     -0.2867
    145  CB        30.7330   71.0300   63.7760 C.3   612  MET612      0.0387
    146  CG        30.6050   71.6460   62.3810 C.3   612  MET612      0.0595
    147  SD        30.1910   70.4840   61.0610 S.3   612  MET612     -0.1393
    148  CE        28.4070   70.3990   61.2480 C.3   612  MET612      0.0692
    149  N         36.1050   71.5690   60.8410 N.3   614  ASP614     -0.1239
    150  CA        36.4590   72.2220   59.6040 C.3   614  ASP614      0.1674
    151  C         37.9620   72.4870   59.5920 C.2   614  ASP614      0.2266
    152  O         38.6860   71.9600   60.4410 O.2   614  ASP614     -0.2867
    153  CB        35.5700   73.4440   59.3360 C.3   614  ASP614      0.1410
    154  CG        36.0560   74.7100   59.9960 C.2   614  ASP614      0.3668
    155  OD1       37.0070   74.7010   60.8200 O.co2 614  ASP614     -0.2456
    156  OD2       35.4520   75.7500   59.6760 O.co2 614  ASP614     -0.2456
    157  N         39.9710   74.7600   60.4290 N.3   616  ALA616     -0.1231
    158  CA        40.6540   75.3290   61.5900 C.3   616  ALA616      0.1694
    159  C         40.8900   74.2710   62.6660 C.2   616  ALA616      0.2592
    160  O         41.9770   74.2020   63.2480 O.2   616  ALA616     -0.2718
    161  CB        39.9090   76.5530   62.1560 C.3   616  ALA616      0.0304
    162  N         39.8900   73.4350   62.9250 N.am  617  THR617     -0.1953
    163  CA        40.0840   72.3440   63.8700 C.3   617  THR617      0.1897
    164  C         41.1680   71.4000   63.3470 C.2   617  THR617      0.2313
    165  O         41.9540   70.8800   64.1110 O.2   617  THR617     -0.2863
    166  CB        38.7930   71.5620   64.1240 C.3   617  THR617      0.1794
    167  OG1       38.1990   71.2330   62.8700 O.3   617  THR617     -0.2208
    168  CG2       37.8180   72.3970   64.9330 C.3   617  THR617      0.0378
@<TRIPOS>BOND
     1    40    39    2
     2    18    17    2
     3    11    10    2
     4    17    16    1
     5    10     9    1
     6    39    38    1
     7    37    38    1
     8    15    16    1
     9    12     9    1
    10    12    13    1
    11    16    19    1
    12     9     8    1
    13    38    41    1
    14    34    33    2
    15    33    32    1
    16    13    14    1
    17    21    20   ar
    18    41    42    1
    19    19    20    1
    20     8    14    1
    21    23    24    1
    22    20    22   ar
    23    42    43    1
    24    36    35    1
    25   136   137    1
    26    31    32    1
    27    31    25   am
    28    32    35    1
    29    24    25    1
    30    24    27    1
    31    25    26    2
    32    30    28   ar
    33   139   138    2
    34    43    44    1
    35    44    45    2
    36   137   140    1
    37   137   138    1
    38    28    27    1
    39    28    29   ar
    40    47    45    1
    41    45    46    1
    42     3     4    2
    43     3     2    1
    44     6     5    1
    45   153   150    1
    46   153   154    1
    47   151   150    1
    48   151   152    2
    49   150   149    1
    50   156   154   ar
    51     2     5    1
    52     2     1    1
    53    63    62   ar
    54   154   155   ar
    55    53    52    1
    56    53    54    1
    57     5     7    1
    58   157   158    1
    59    94    93   ar
    60    48    49    1
    61    95    93   ar
    62    52    49    1
    63   147   148    1
    64   147   146    1
    65    62    64   ar
    66    62    61    1
    67    54    55    1
    68    93    92    1
    69   128   126   ar
    70   128   127   ar
    71   158   161    1
    72   158   159    1
    73    49    50    1
    74    51    50    2
    75    61    60    1
    76   126   124   ar
    77   132   131    2
    78   127   125   ar
    79   146   145    1
    80    92    89    1
    81   159   162   am
    82   159   160    2
    83   167   166    1
    84   162   163    1
    85   124   122   ar
    86   124   123   ar
    87   131   130    1
    88   125   122   ar
    89   164   163    1
    90   164   165    2
    91    60    57    1
    92   143   142    1
    93   143   144    2
    94    59    58    2
    95   107   106    1
    96   122   120   ar
    97   123   121   ar
    98    89    90    1
    99    89    88    1
   100   130   133    1
   101   130   129    1
   102   145   142    1
   103    58    57    1
   104   142   141    1
   105   163   166    1
   106    56    57    1
   107   166   168    1
   108   133   134    1
   109    91    90    2
   110   121   120   ar
   111   120   119    1
   112    88    82   am
   113   129   135    1
   114   106   105    1
   115    66    65    1
   116    66    67    1
   117   119   116    1
   118    82    83    2
   119    82    81    1
   120   105   104    1
   121   134   135    1
   122    68    67    2
   123    84    81    1
   124    84    85    1
   125   104   101    1
   126    67    69   am
   127   116   117    1
   128   116   115    1
   129    86    85    1
   130    81    80    1
   131   117   118    2
   132    85    87    1
   133    80    71   am
   134   114   112    1
   135   101   100    1
   136   101   102    1
   137    69    70    1
   138   111   110    2
   139   100    98   am
   140   112   109    1
   141   112   113    1
   142    71    70    1
   143    71    72    2
   144   109   110    1
   145   109   108    1
   146    97    98    1
   147    97    96    1
   148    98    99    2
   149    70    73    1
   150   102   103    2
   151    76    78   ar
   152    76    74   ar
   153    78    79   ar
   154    73    74    1
   155    74    75   ar
   156    79    77   ar
   157    75    77   ar
