@<TRIPOS>MOLECULE
tmp/3sbcB00.pdb
 79 77 0 0 0
SMALL
GASTEIGER

@<TRIPOS>ATOM
      1  N         36.5320   20.9000   11.9120 N.3    42  PRO42      -0.2102
      2  CA        35.5220   21.0460   12.9490 C.3    42  PRO42       0.1504
      3  C         34.0810   20.9560   12.4090 C.2    42  PRO42       0.2575
      4  O         33.3140   20.1070   12.8650 O.2    42  PRO42      -0.2718
      5  CB        35.8140   22.4340   13.5480 C.3    42  PRO42       0.0282
      6  CG        36.7370   23.1070   12.6270 C.3    42  PRO42       0.0208
      7  CD        37.4430   22.0570   11.8450 C.3    42  PRO42       0.0893
      8  N         33.7360   21.7990   11.4350 N.am   43  LEU43      -0.1980
      9  CA        32.3520   21.9700   11.0480 C.3    43  LEU43       0.1596
     10  C         32.1750   22.1800    9.5640 C.2    43  LEU43       0.2287
     11  O         32.7740   23.0800    8.9940 O.2    43  LEU43      -0.2864
     12  CB        31.8000   23.2140   11.7340 C.3    43  LEU43       0.0297
     13  CG        31.7860   23.2140   13.2520 C.3    43  LEU43       0.0022
     14  CD1       31.6920   24.6220   13.7650 C.3    43  LEU43       0.0001
     15  CD2       30.6590   22.3790   13.7450 C.3    43  LEU43       0.0001
     16  N         31.6650   26.2570    7.1610 N.3    46  THR46      -0.1203
     17  CA        32.4460   27.2740    7.8280 C.3    46  THR46       0.1994
     18  C         33.5910   27.7500    6.9280 C.2    46  THR46       0.2618
     19  O         33.5620   27.5770    5.7160 O.2    46  THR46      -0.2717
     20  CB        32.9820   26.7550    9.1510 C.3    46  THR46       0.1784
     21  OG1       33.6140   25.4950    8.9230 O.3    46  THR46      -0.2211
     22  CG2       31.8780   26.5810   10.1370 C.3    46  THR46       0.0376
     23  N         34.6320   28.3080    7.5270 N.am   47  PHE47      -0.1961
     24  CA        35.5180   29.1580    6.7760 C.3    47  PHE47       0.1771
     25  C         36.8150   28.5080    6.3730 C.2    47  PHE47       0.2619
     26  O         37.1330   28.4440    5.1880 O.2    47  PHE47      -0.2715
     27  CB        35.6210   30.4290    7.6090 C.3    47  PHE47       0.0574
     28  CG        34.3020   30.7460    8.2370 C.ar   47  PHE47      -0.0200
     29  CD1       33.1790   30.9200    7.4160 C.ar   47  PHE47      -0.0042
     30  CD2       34.1180   30.6810    9.6080 C.ar   47  PHE47      -0.0042
     31  CE1       31.9340   31.1110    7.9480 C.ar   47  PHE47      -0.0003
     32  CE2       32.8520   30.8860   10.1540 C.ar   47  PHE47      -0.0003
     33  CZ        31.7660   31.1060    9.3200 C.ar   47  PHE47      -0.0000
     34  N         37.5470   27.9810    7.3360 N.am   48  VAL48      -0.1963
     35  CA        38.7780   27.3130    7.0090 C.3    48  VAL48       0.1727
     36  C         38.4970   25.9080    6.4590 C.2    48  VAL48       0.2616
     37  O         39.1250   25.4800    5.4950 O.2    48  VAL48      -0.2715
     38  CB        39.7060   27.2920    8.2000 C.3    48  VAL48       0.0290
     39  CG1       40.8470   26.3420    7.9600 C.3    48  VAL48       0.0023
     40  CG2       40.1940   28.6810    8.4500 C.3    48  VAL48       0.0023
     41  N         37.5470   25.1910    7.0420 N.am   49  SER49      -0.1950
     42  CA        37.3660   23.8000    6.6360 C.3    49  SER49       0.1924
     43  C         37.2160   23.6450    5.1120 C.2    49  SER49       0.2314
     44  O         37.9980   22.9540    4.4790 O.2    49  SER49      -0.2863
     45  CB        36.2400   23.1460    7.4170 C.3    49  SER49       0.2116
     46  OG        36.4480   23.3960    8.7850 O.3    49  SER49      -0.2180
     47  N         33.1430   19.3810   18.2270 N.3   122  VAL122     -0.1245
     48  CA        33.7450   19.4330   16.9320 C.3   122  VAL122      0.1561
     49  C         35.1750   18.9280   17.0600 C.2   122  VAL122      0.2260
     50  O         35.7600   18.9560   18.1570 O.2   122  VAL122     -0.2867
     51  CB        33.6610   20.8480   16.3610 C.3   122  VAL122      0.0252
     52  CG1       32.2120   21.2240   16.2390 C.3   122  VAL122      0.0019
     53  CG2       34.4000   21.8320   17.2590 C.3   122  VAL122      0.0019
     54  N         41.7500   20.5400   13.9430 N.3   125  ARG125     -0.1245
     55  CA        42.3530   20.3160   12.6370 C.3   125  ARG125      0.1563
     56  C         43.4590   19.3070   12.7720 C.2   125  ARG125      0.2260
     57  O         44.6390   19.6220   12.7540 O.2   125  ARG125     -0.2867
     58  CB        42.8540   21.6140   12.0350 C.3   125  ARG125      0.0307
     59  CG        41.7290   22.5090   11.7240 C.3   125  ARG125      0.0489
     60  CD        42.1990   23.7240   11.0060 C.3   125  ARG125      0.2205
     61  NE        41.1360   24.7080   11.0700 N.pl3 125  ARG125     -0.0865
     62  CZ        39.9590   24.5400   10.4830 C.cat 125  ARG125      0.5346
     63  NH1       39.7440   23.4450    9.7610 N.pl3 125  ARG125      0.1354
     64  NH2       39.0200   25.4690   10.6060 N.pl3 125  ARG125      0.1354
     65  N         41.8280   25.7600   15.7160 N.3   144  LEU144     -0.1231
     66  CA        40.7650   25.9810   14.7350 C.3   144  LEU144      0.1678
     67  C         41.0800   27.0420   13.6700 C.2   144  LEU144      0.2434
     68  O         40.7750   26.8500   12.4910 O.2   144  LEU144     -0.2733
     69  CB        39.4840   26.3830   15.4740 C.3   144  LEU144      0.0284
     70  CG        38.4330   25.3780   15.9300 C.3   144  LEU144      0.0019
     71  CD1       38.8830   23.9440   15.7920 C.3   144  LEU144      0.0001
     72  CD2       38.0070   25.7170   17.3790 C.3   144  LEU144      0.0001
     73  N         41.6620   28.1770   14.0880 N.am  145  PRO145     -0.2729
     74  CA        41.6170   29.2910   13.1440 C.3   145  PRO145      0.1401
     75  C         42.6890   29.2700   12.0510 C.2   145  PRO145      0.2269
     76  O         42.7120   30.1540   11.1850 O.2   145  PRO145     -0.2865
     77  CB        41.8010   30.4990   14.0380 C.3   145  PRO145      0.0296
     78  CG        42.5730   29.9810   15.1740 C.3   145  PRO145      0.0237
     79  CD        42.0510   28.6240   15.4320 C.3   145  PRO145      0.0939
@<TRIPOS>BOND
     1    44    43    2
     2    43    42    1
     3    26    25    2
     4    37    36    2
     5    19    18    2
     6    25    24    1
     7    25    34   am
     8    36    35    1
     9    36    41   am
    10    42    41    1
    11    42    45    1
    12    24    23    1
    13    24    27    1
    14    18    23   am
    15    18    17    1
    16    35    34    1
    17    35    38    1
    18    16    17    1
    19    29    31   ar
    20    29    28   ar
    21    45    46    1
    22    27    28    1
    23    17    20    1
    24    31    33   ar
    25    39    38    1
    26    38    40    1
    27    28    30   ar
    28    21    20    1
    29    11    10    2
    30    20    22    1
    31    33    32   ar
    32    10     9    1
    33    30    32   ar
    34    63    62    1
    35    62    64    1
    36    62    61    2
    37    60    61    1
    38    60    59    1
    39     9     8    1
    40     9    12    1
    41    76    75    2
    42     8     3   am
    43    59    58    1
    44    12    13    1
    45     7     1    1
    46     7     6    1
    47     1     2    1
    48    58    55    1
    49    75    74    1
    50     3     4    2
    51     3     2    1
    52    68    67    2
    53     6     5    1
    54    55    56    1
    55    55    54    1
    56    57    56    2
    57     2     5    1
    58    74    77    1
    59    74    73    1
    60    13    15    1
    61    13    14    1
    62    67    73   am
    63    67    66    1
    64    77    78    1
    65    73    79    1
    66    66    69    1
    67    66    65    1
    68    78    79    1
    69    69    70    1
    70    71    70    1
    71    70    72    1
    72    52    51    1
    73    51    48    1
    74    51    53    1
    75    48    49    1
    76    48    47    1
    77    49    50    2
