@<TRIPOS>MOLECULE
tmp/3sbfB00.pdb
 150 143 0 0 0
SMALL
GASTEIGER

@<TRIPOS>ATOM
      1  N        -56.1070   15.4220   27.8560 N.3    40  GLN40      -0.1231
      2  CA       -57.0620   15.7370   26.7880 C.3    40  GLN40       0.1698
      3  C        -56.4130   16.2620   25.5160 C.2    40  GLN40       0.2592
      4  O        -56.9520   16.0810   24.4320 O.2    40  GLN40      -0.2718
      5  CB       -58.1310   16.7260   27.2640 C.3    40  GLN40       0.0381
      6  CG       -57.6260   18.1460   27.4540 C.3    40  GLN40       0.0905
      7  CD       -58.6510   19.1870   27.0430 C.2    40  GLN40       0.2608
      8  OE1      -59.5410   18.9120   26.2380 O.2    40  GLN40      -0.2717
      9  NE2      -58.5330   20.3890   27.6000 N.am   40  GLN40      -0.0878
     10  N        -55.2520   16.8950   25.6510 N.am   41  GLN41      -0.1979
     11  CA       -54.5820   17.5030   24.5070 C.3    41  GLN41       0.1601
     12  C        -53.8610   16.4930   23.6250 C.2    41  GLN41       0.2287
     13  O        -53.5620   16.7800   22.4610 O.2    41  GLN41      -0.2864
     14  CB       -53.5860   18.5810   24.9630 C.3    41  GLN41       0.0394
     15  CG       -54.2220   19.8280   25.5580 C.3    41  GLN41       0.0908
     16  CD       -54.5220   19.7080   27.0470 C.2    41  GLN41       0.2608
     17  OE1      -54.2760   18.6680   27.6730 O.2    41  GLN41      -0.2717
     18  NE2      -55.0530   20.7850   27.6230 N.am   41  GLN41      -0.0878
     19  N        -65.3610   24.1450   45.5670 N.3   123  TYR123     -0.1241
     20  CA       -65.3640   25.4910   44.9980 C.3   123  TYR123      0.1605
     21  C        -65.7580   25.4870   43.5400 C.2   123  TYR123      0.2264
     22  O        -65.4100   24.5760   42.8020 O.2   123  TYR123     -0.2867
     23  CB       -64.0200   26.2000   45.1750 C.3   123  TYR123      0.0534
     24  CG       -62.8540   25.7880   44.2820 C.ar  123  TYR123     -0.0201
     25  CD1      -62.7040   26.3080   43.0010 C.ar  123  TYR123     -0.0009
     26  CD2      -61.8630   24.9320   44.7570 C.ar  123  TYR123     -0.0009
     27  CE1      -61.6000   25.9630   42.2110 C.ar  123  TYR123      0.0417
     28  CE2      -60.7670   24.5890   43.9850 C.ar  123  TYR123      0.0417
     29  CZ       -60.6420   25.0950   42.7090 C.ar  123  TYR123      0.1957
     30  OH       -59.5510   24.7500   41.9360 O.3   123  TYR123     -0.2866
     31  N        -66.7040   28.0390   39.8260 N.3   125  HIS125     -0.1241
     32  CA       -66.0050   28.9680   38.9450 C.3   125  HIS125      0.1621
     33  C        -66.8950   30.1160   38.4960 C.2   125  HIS125      0.2264
     34  O        -67.9770   29.9040   37.9500 O.2   125  HIS125     -0.2867
     35  CB       -65.4890   28.2240   37.7120 C.3   125  HIS125      0.0745
     36  CG       -64.7190   26.9860   38.0370 C.ar  125  HIS125      0.0817
     37  ND1      -63.3410   26.9510   38.0520 N.ar  125  HIS125     -0.2268
     38  CD2      -65.1330   25.7450   38.3910 C.ar  125  HIS125      0.1154
     39  CE1      -62.9370   25.7370   38.3820 C.ar  125  HIS125      0.1986
     40  NE2      -64.0060   24.9850   38.5900 N.ar  125  HIS125     -0.2212
     41  N        -63.9240   30.4570   42.8000 N.3   150  ARG150     -0.1245
     42  CA       -62.7790   30.9210   42.0130 C.3   150  ARG150      0.1563
     43  C        -63.2330   31.9760   41.0090 C.2   150  ARG150      0.2260
     44  O        -64.0240   31.7000   40.1080 O.2   150  ARG150     -0.2867
     45  CB       -62.1180   29.7530   41.2810 C.3   150  ARG150      0.0307
     46  CG       -60.9370   30.1420   40.3830 C.3   150  ARG150      0.0489
     47  CD       -60.5410   28.9840   39.4830 C.3   150  ARG150      0.2205
     48  NE       -61.1410   29.1510   38.1710 N.pl3 150  ARG150     -0.0865
     49  CZ       -60.4810   29.0590   37.0220 C.cat 150  ARG150      0.5346
     50  NH1      -59.1860   28.7650   37.0000 N.pl3 150  ARG150      0.1354
     51  NH2      -61.1310   29.2490   35.8900 N.pl3 150  ARG150      0.1354
     52  N        -56.9540   31.9950   39.9770 N.3   196  ASP196     -0.1239
     53  CA       -55.9380   31.2250   39.2750 C.3   196  ASP196      0.1674
     54  C        -55.1150   32.1310   38.3490 C.2   196  ASP196      0.2266
     55  O        -55.6060   32.6080   37.3100 O.2   196  ASP196     -0.2867
     56  CB       -56.6290   30.1180   38.4690 C.3   196  ASP196      0.1410
     57  CG       -55.6700   29.0570   37.9630 C.2   196  ASP196      0.3668
     58  OD1      -54.4440   29.2860   37.9410 O.co2 196  ASP196     -0.2456
     59  OD2      -56.1680   27.9830   37.5560 O.co2 196  ASP196     -0.2456
     60  N        -52.5770   31.0870   36.6980 N.3   198  HIS198     -0.1241
     61  CA       -52.3880   30.2850   35.4920 C.3   198  HIS198      0.1621
     62  C        -51.0290   30.5520   34.8320 C.2   198  HIS198      0.2264
     63  O        -50.9310   30.6460   33.6080 O.2   198  HIS198     -0.2867
     64  CB       -53.5320   30.5590   34.5010 C.3   198  HIS198      0.0745
     65  CG       -53.9680   29.3540   33.7310 C.ar  198  HIS198      0.0817
     66  ND1      -53.2700   28.8740   32.6430 N.ar  198  HIS198     -0.2268
     67  CD2      -55.0400   28.5400   33.8790 C.ar  198  HIS198      0.1154
     68  CE1      -53.8900   27.8130   32.1560 C.ar  198  HIS198      0.1986
     69  NE2      -54.9660   27.5880   32.8900 N.ar  198  HIS198     -0.2212
     70  N        -53.6310   30.5870   42.8860 N.3   222  GLU222     -0.1245
     71  CA       -53.1980   29.3620   42.2400 C.3   222  GLU222      0.1567
     72  C        -52.1880   29.6610   41.1460 C.2   222  GLU222      0.2260
     73  O        -52.3410   30.6400   40.4070 O.2   222  GLU222     -0.2867
     74  CB       -54.4220   28.6450   41.6640 C.3   222  GLU222      0.0388
     75  CG       -54.1350   27.3600   40.9150 C.3   222  GLU222      0.1160
     76  CD       -55.4050   26.7460   40.3920 C.2   222  GLU222      0.3649
     77  OE1      -56.4790   27.1140   40.9020 O.co2 222  GLU222     -0.2457
     78  OE2      -55.3320   25.9110   39.4670 O.co2 222  GLU222     -0.2457
     79  N        -50.8760   21.7730   39.4080 N.3   248  GLU248     -0.1245
     80  CA       -51.6590   20.9830   38.4730 C.3   248  GLU248      0.1567
     81  C        -50.8130   20.5460   37.2820 C.2   248  GLU248      0.2260
     82  O        -51.1120   19.5430   36.6500 O.2   248  GLU248     -0.2867
     83  CB       -52.8920   21.7500   37.9910 C.3   248  GLU248      0.0388
     84  CG       -52.5780   22.8610   36.9930 C.3   248  GLU248      0.1160
     85  CD       -53.8220   23.6270   36.5910 C.2   248  GLU248      0.3649
     86  OE1      -54.5130   24.1360   37.4830 O.co2 248  GLU248     -0.2457
     87  OE2      -54.1310   23.6980   35.3960 O.co2 248  GLU248     -0.2457
     88  N        -51.7710   21.0070   44.2400 N.3   269  ARG269     -0.1245
     89  CA       -52.8340   21.0930   43.2240 C.3   269  ARG269      0.1563
     90  C        -52.7180   20.0280   42.1370 C.2   269  ARG269      0.2260
     91  O        -53.3360   20.1470   41.0750 O.2   269  ARG269     -0.2867
     92  CB       -52.7930   22.4650   42.5390 C.3   269  ARG269      0.0307
     93  CG       -53.2950   23.6210   43.3980 C.3   269  ARG269      0.0489
     94  CD       -54.7980   23.6850   43.3500 C.3   269  ARG269      0.2205
     95  NE       -55.2990   23.9010   42.0000 N.pl3 269  ARG269     -0.0865
     96  CZ       -56.4780   23.4580   41.5690 C.cat 269  ARG269      0.5346
     97  NH1      -56.8870   23.7240   40.3340 N.pl3 269  ARG269      0.1354
     98  NH2      -57.2520   22.7460   42.3780 N.pl3 269  ARG269      0.1354
     99  N        -56.3560   18.9910   41.3710 N.3   298  HIS298     -0.1226
    100  CA       -56.9640   19.6300   40.2070 C.3   298  HIS298      0.1752
    101  C        -58.0910   18.7730   39.6310 C.2   298  HIS298      0.2596
    102  O        -57.9040   17.5680   39.3780 O.2   298  HIS298     -0.2718
    103  CB       -55.8810   19.8800   39.1570 C.3   298  HIS298      0.0759
    104  CG       -56.4010   20.3880   37.8560 C.ar  298  HIS298      0.0818
    105  ND1      -56.6940   19.5490   36.8040 N.ar  298  HIS298     -0.2268
    106  CD2      -56.6860   21.6420   37.4310 C.ar  298  HIS298      0.1154
    107  CE1      -57.1300   20.2640   35.7830 C.ar  298  HIS298      0.1986
    108  NE2      -57.1310   21.5370   36.1350 N.ar  298  HIS298     -0.2212
    109  N        -59.2660   19.3830   39.4620 N.am  299  CYS299     -0.1956
    110  CA       -60.4110   18.7330   38.8200 C.3   299  CYS299      0.1843
    111  C        -60.9520   19.6230   37.7070 C.2   299  CYS299      0.2625
    112  O        -61.1540   20.8100   37.9050 O.2   299  CYS299     -0.2714
    113  CB       -61.5390   18.4820   39.8230 C.3   299  CYS299      0.0997
    114  SG       -61.0720   17.5490   41.2850 S.3   299  CYS299     -0.0797
    115  N        -61.1960   19.0590   36.5370 N.am  300  ALA300     -0.1977
    116  CA       -61.6720   19.8710   35.4310 C.3   300  ALA300      0.1597
    117  C        -62.5870   19.0540   34.5300 C.2   300  ALA300      0.2287
    118  O        -62.6630   17.8320   34.6570 O.2   300  ALA300     -0.2864
    119  CB       -60.4870   20.4200   34.6390 C.3   300  ALA300      0.0319
    120  N        -62.1410   18.2510   31.5910 N.3   302  ASP302     -0.1239
    121  CA       -61.3500   17.3430   30.7730 C.3   302  ASP302      0.1674
    122  C        -60.7410   16.2380   31.6360 C.2   302  ASP302      0.2266
    123  O        -59.5640   15.9100   31.5130 O.2   302  ASP302     -0.2867
    124  CB       -60.2720   18.0890   29.9650 C.3   302  ASP302      0.1410
    125  CG       -59.2860   18.8330   30.8390 C.2   302  ASP302      0.3668
    126  OD1      -58.0800   18.8370   30.5090 O.co2 302  ASP302     -0.2456
    127  OD2      -59.7030   19.4170   31.8540 O.co2 302  ASP302     -0.2456
    128  N        -62.3700   20.9220   43.4580 N.3   325  GLU325     -0.1245
    129  CA       -62.7430   21.8190   42.3780 C.3   325  GLU325      0.1567
    130  C        -63.9780   21.2550   41.6700 C.2   325  GLU325      0.2260
    131  O        -64.0060   20.0850   41.3060 O.2   325  GLU325     -0.2867
    132  CB       -61.5580   21.9330   41.4120 C.3   325  GLU325      0.0388
    133  CG       -61.7980   22.8040   40.2010 C.3   325  GLU325      0.1160
    134  CD       -60.5250   23.0460   39.4050 C.2   325  GLU325      0.3649
    135  OE1      -59.4670   22.4750   39.7670 O.co2 325  GLU325     -0.2457
    136  OE2      -60.5860   23.8030   38.4130 O.co2 325  GLU325     -0.2457
    137  N        -55.3120   28.1080   22.4470 N.3   377  TRP377     -0.1241
    138  CA       -54.9620   28.8990   23.6170 C.3   377  TRP377      0.1605
    139  C        -53.5780   28.5490   24.1810 C.2   377  TRP377      0.2264
    140  O        -52.9980   29.3400   24.9100 O.2   377  TRP377     -0.2867
    141  CB       -56.0250   28.7640   24.7090 C.3   377  TRP377      0.0550
    142  CG       -56.1530   27.3760   25.2590 C.ar  377  TRP377      0.0003
    143  CD1      -56.9490   26.3750   24.7820 C.ar  377  TRP377      0.0946
    144  CD2      -55.4640   26.8350   26.3950 C.ar  377  TRP377      0.0152
    145  NE1      -56.7960   25.2440   25.5500 N.ar  377  TRP377     -0.2442
    146  CE2      -55.8910   25.5010   26.5450 C.ar  377  TRP377      0.0810
    147  CE3      -54.5250   27.3500   27.2970 C.ar  377  TRP377      0.0012
    148  CZ2      -55.4150   24.6720   27.5660 C.ar  377  TRP377      0.0191
    149  CZ3      -54.0580   26.5270   28.3120 C.ar  377  TRP377      0.0001
    150  CH2      -54.5030   25.2060   28.4350 C.ar  377  TRP377      0.0015
@<TRIPOS>BOND
     1   137   138    1
     2    13    12    2
     3   138   139    1
     4   138   141    1
     5    12    11    1
     6   139   140    2
     7     4     3    2
     8    11    14    1
     9    11    10    1
    10   141   142    1
    11   143   142   ar
    12   143   145   ar
    13    14    15    1
    14   142   144   ar
    15     3    10   am
    16     3     2    1
    17   145   146   ar
    18    15    16    1
    19     8     7    2
    20   144   146   ar
    21   144   147   ar
    22   146   148   ar
    23     2     5    1
    24     2     1    1
    25     7     6    1
    26     7     9   am
    27    16    18   am
    28    16    17    2
    29     5     6    1
    30   147   149   ar
    31   148   150   ar
    32   149   150   ar
    33   124   121    1
    34   124   125    1
    35   126   125   ar
    36   121   120    1
    37   121   122    1
    38   125   127   ar
    39   123   122    2
    40    68    66   ar
    41    68    69   ar
    42    66    65   ar
    43    69    67   ar
    44    63    62    2
    45    65    67   ar
    46    65    64    1
    47    64    61    1
    48   117   118    2
    49   117   116    1
    50   119   116    1
    51    62    61    1
    52    87    85   ar
    53   116   115    1
    54    61    60    1
    55   107   108   ar
    56   107   105   ar
    57    51    49    1
    58   108   106   ar
    59   115   111   am
    60    85    84    1
    61    85    86   ar
    62    82    81    2
    63   105   104   ar
    64    84    83    1
    65    50    49    1
    66    49    48    2
    67    81    80    1
    68    55    54    2
    69   106   104   ar
    70    59    57   ar
    71   111   112    2
    72   111   110    1
    73    35    36    1
    74    35    32    1
    75   104   103    1
    76    58    57   ar
    77    34    33    2
    78    57    56    1
    79    83    80    1
    80    36    37   ar
    81    36    38   ar
    82    37    39   ar
    83    48    47    1
    84    54    53    1
    85    39    40   ar
    86    38    40   ar
    87   136   134   ar
    88    56    53    1
    89    80    79    1
    90    33    32    1
    91   110   109    1
    92   110   113    1
    93    32    31    1
    94   103   100    1
    95    53    52    1
    96   102   101    2
    97   134   135   ar
    98   134   133    1
    99   109   101   am
   100    78    76   ar
   101    47    46    1
   102   101   100    1
   103   113   114    1
   104    44    43    2
   105   133   132    1
   106   100    99    1
   107    97    96    1
   108    46    45    1
   109    76    77   ar
   110    76    75    1
   111    73    72    2
   112    75    74    1
   113    43    42    1
   114    91    90    2
   115    72    71    1
   116    45    42    1
   117   131   130    2
   118   132   129    1
   119    96    95    2
   120    96    98    1
   121    74    71    1
   122   130   129    1
   123    30    29    1
   124    95    94    1
   125    42    41    1
   126    90    89    1
   127    27    29   ar
   128    27    25   ar
   129    71    70    1
   130   129   128    1
   131    92    89    1
   132    92    93    1
   133    29    28   ar
   134    22    21    2
   135    25    24   ar
   136    89    88    1
   137    94    93    1
   138    21    20    1
   139    28    26   ar
   140    24    26   ar
   141    24    23    1
   142    20    23    1
   143    20    19    1
