@<TRIPOS>MOLECULE
tmp/3sbiA01.pdb
 133 130 0 0 0
SMALL
GASTEIGER

@<TRIPOS>ATOM
      1  N        -12.5890    6.1450   11.2230 N.3    90  GLN90      -0.1245
      2  CA       -12.2800    5.0230   10.3530 C.3    90  GLN90       0.1566
      3  C        -12.5500    3.7410   11.1270 C.2    90  GLN90       0.2260
      4  O        -12.5950    3.8020   12.3480 O.2    90  GLN90      -0.2867
      5  CB       -10.8600    5.0510    9.8030 C.3    90  GLN90       0.0367
      6  CG        -9.7620    5.1660   10.9320 C.3    90  GLN90       0.0905
      7  CD        -9.0350    3.8030   11.2170 C.2    90  GLN90       0.2608
      8  OE1       -9.6320    2.7120   11.1920 O.2    90  GLN90      -0.2717
      9  NE2       -7.7390    3.8900   11.6060 N.am   90  GLN90      -0.0878
     10  N        -11.1350   -0.5590   10.8850 N.3    92  HIS92      -0.1241
     11  CA       -10.2230   -1.5310   10.2780 C.3    92  HIS92       0.1621
     12  C        -10.3050   -2.8210   11.0810 C.2    92  HIS92       0.2264
     13  O        -10.9480   -2.8100   12.1500 O.2    92  HIS92      -0.2867
     14  CB        -8.7620   -1.0350   10.2320 C.3    92  HIS92       0.0745
     15  CG        -8.2260   -0.7690   11.6280 C.ar   92  HIS92       0.0817
     16  ND1       -8.4030    0.4440   12.2510 N.ar   92  HIS92      -0.2268
     17  CD2       -7.6250   -1.5800   12.5360 C.ar   92  HIS92       0.1154
     18  CE1       -7.9620    0.3460   13.5140 C.ar   92  HIS92       0.1986
     19  NE2       -7.4550   -0.8660   13.6670 N.ar   92  HIS92      -0.2212
     20  N         -8.0290   -6.5510   12.4740 N.3    94  HIS94      -0.1241
     21  CA        -6.8040   -7.3590   12.6240 C.3    94  HIS94       0.1621
     22  C         -7.2400   -8.8240   12.4860 C.2    94  HIS94       0.2264
     23  O         -8.3100   -9.1870   13.0200 O.2    94  HIS94      -0.2867
     24  CB        -6.1250   -7.1090   14.0230 C.3    94  HIS94       0.0745
     25  CG        -5.8530   -5.6550   14.2900 C.ar   94  HIS94       0.0817
     26  ND1       -4.6080   -5.0940   14.0950 N.ar   94  HIS94      -0.2268
     27  CD2       -6.6950   -4.6390   14.6670 C.ar   94  HIS94       0.1154
     28  CE1       -4.6810   -3.7880   14.4430 C.ar   94  HIS94       0.1986
     29  NE2       -5.9450   -3.4790   14.7040 N.ar   94  HIS94      -0.2212
     30  N        -11.9750   -2.7000   14.7830 N.3   117  HIS117     -0.1241
     31  CA       -11.7570   -1.5070   15.5960 C.3   117  HIS117      0.1621
     32  C        -12.4620   -0.3350   14.9190 C.2   117  HIS117      0.2264
     33  O        -12.0760    0.0320   13.7540 O.2   117  HIS117     -0.2867
     34  CB       -10.2470   -1.2430   15.6780 C.3   117  HIS117      0.0745
     35  CG        -9.5780   -2.2320   16.6040 C.ar  117  HIS117      0.0817
     36  ND1       -8.2100   -2.4600   16.6350 N.ar  117  HIS117     -0.2268
     37  CD2      -10.0890   -3.0340   17.5950 C.ar  117  HIS117      0.1154
     38  CE1       -7.8950   -3.3910   17.5040 C.ar  117  HIS117      0.1986
     39  NE2       -9.0090   -3.7580   18.1280 N.ar  117  HIS117     -0.2212
     40  N        -12.7480    3.5260   15.2000 N.3   119  VAL119     -0.1245
     41  CA       -11.8750    4.5190   15.8510 C.3   119  VAL119      0.1561
     42  C        -12.5930    5.8810   15.8660 C.2   119  VAL119      0.2260
     43  O        -13.0050    6.3560   14.7770 O.2   119  VAL119     -0.2867
     44  CB       -10.5200    4.5880   15.0460 C.3   119  VAL119      0.0252
     45  CG1       -9.6070    5.6690   15.6580 C.3   119  VAL119      0.0019
     46  CG2       -9.8800    3.1860   14.8770 C.3   119  VAL119      0.0019
     47  N         -8.4520   14.7270   14.7920 N.3   128  PHE128     -0.1227
     48  CA        -7.7510   13.4820   15.2000 C.3   128  PHE128      0.1736
     49  C         -6.2990   13.7620   15.5800 C.2   128  PHE128      0.2596
     50  O         -5.8050   13.1610   16.5560 O.2   128  PHE128     -0.2718
     51  CB        -7.8290   12.5100   14.0470 C.3   128  PHE128      0.0547
     52  CG        -7.1640   11.1940   14.2990 C.ar  128  PHE128     -0.0202
     53  CD1       -7.8690   10.1430   14.9740 C.ar  128  PHE128     -0.0042
     54  CD2       -5.8340   10.9850   13.9080 C.ar  128  PHE128     -0.0042
     55  CE1       -7.2320    8.9450   15.1510 C.ar  128  PHE128     -0.0003
     56  CE2       -5.2110    9.7600   14.0460 C.ar  128  PHE128     -0.0003
     57  CZ        -5.9000    8.7360   14.7070 C.ar  128  PHE128     -0.0000
     58  N         -5.5740   14.5510   14.7910 N.am  129  GLY129     -0.1957
     59  CA        -4.1530   14.6570   15.1060 C.3   129  GLY129      0.1869
     60  C         -3.8780   15.3230   16.4410 C.2   129  GLY129      0.2309
     61  O         -2.8470   15.0550   17.0690 O.2   129  GLY129     -0.2863
     62  N         -4.8940   12.6330   19.4170 N.3   132  VAL132     -0.1245
     63  CA        -4.0030   11.5170   19.8040 C.3   132  VAL132      0.1561
     64  C         -2.8930   11.9700   20.7570 C.2   132  VAL132      0.2260
     65  O         -2.1750   11.1080   21.3060 O.2   132  VAL132     -0.2867
     66  CB        -3.3260   10.7930   18.6130 C.3   132  VAL132      0.0252
     67  CG1       -4.3880   10.0920   17.7530 C.3   132  VAL132      0.0019
     68  CG2       -2.5120   11.7270   17.7920 C.3   132  VAL132      0.0019
     69  N        -11.8540    3.7060   21.1230 N.3   140  VAL140     -0.1245
     70  CA       -11.8610    2.6680   20.0810 C.3   140  VAL140      0.1561
     71  C        -12.8680    1.5880   20.5660 C.2   140  VAL140      0.2260
     72  O        -12.7430    1.0700   21.7030 O.2   140  VAL140     -0.2867
     73  CB       -10.4740    2.0610   19.7180 C.3   140  VAL140      0.0252
     74  CG1      -10.6420    1.0540   18.5680 C.3   140  VAL140      0.0019
     75  CG2       -9.5290    3.2000   19.2850 C.3   140  VAL140      0.0019
     76  N         -2.9550    3.1150   21.2060 N.3   195  LEU195     -0.1231
     77  CA        -3.0120    2.5920   19.8580 C.3   195  LEU195      0.1693
     78  C         -2.2680    1.2380   19.8700 C.2   195  LEU195      0.2593
     79  O         -1.2000    1.0950   20.5810 O.2   195  LEU195     -0.2718
     80  CB        -2.2540    3.5180   18.9090 C.3   195  LEU195      0.0284
     81  CG        -2.8110    4.9310   18.8370 C.3   195  LEU195      0.0019
     82  CD1       -1.9220    5.7370   17.8170 C.3   195  LEU195      0.0001
     83  CD2       -4.2360    4.9990   18.4030 C.3   195  LEU195      0.0001
     84  N         -2.6980    0.2560   19.0510 N.am  196  THR196     -0.1939
     85  CA        -1.9940   -1.0260   19.0460 C.3   196  THR196      0.2028
     86  C         -0.9890   -1.1490   17.8810 C.2   196  THR196      0.2643
     87  O         -0.4090   -2.2380   17.6890 O.2   196  THR196     -0.2714
     88  CB        -3.0330   -2.1620   18.9770 C.3   196  THR196      0.1808
     89  OG1       -3.5920   -2.1510   17.6530 O.3   196  THR196     -0.2208
     90  CG2       -4.0490   -2.1270   20.0330 C.3   196  THR196      0.0379
     91  N         -0.8470   -0.0740   17.0660 N.am  197  THR197     -0.1937
     92  CA         0.2650    0.0070   16.1590 C.3   197  THR197      0.2013
     93  C          1.0510    1.2770   16.4410 C.2   197  THR197      0.2484
     94  O          0.5290    2.1860   17.0210 O.2   197  THR197     -0.2729
     95  CB        -0.1790    0.0460   14.6360 C.3   197  THR197      0.1807
     96  OG1       -0.7760    1.3070   14.3110 O.3   197  THR197     -0.2208
     97  CG2       -1.1530   -1.0410   14.3040 C.3   197  THR197      0.0379
     98  N          2.3190    1.3260   15.9940 N.am  198  PRO198     -0.2715
     99  CA         3.0770    2.6190   16.0480 C.3   198  PRO198      0.1521
    100  C          2.1640    3.7380   15.5110 C.2   198  PRO198      0.2440
    101  O          1.4520    3.5290   14.4780 O.2   198  PRO198     -0.2731
    102  CB         4.2810    2.3190   15.0720 C.3   198  PRO198      0.0310
    103  CG         4.5510    0.8550   15.3490 C.3   198  PRO198      0.0237
    104  CD         3.1290    0.2310   15.3670 C.3   198  PRO198      0.0939
    105  N          2.2010    4.9210   16.1160 N.am  199  PRO199     -0.2727
    106  CA         3.1030    5.3500   17.2490 C.3   199  PRO199      0.1402
    107  C          2.7710    4.8840   18.6940 C.2   199  PRO199      0.2269
    108  O          3.4380    5.3440   19.6070 O.2   199  PRO199     -0.2865
    109  CB         3.1470    6.8950   17.0810 C.3   199  PRO199      0.0296
    110  CG         1.7060    7.2170   16.5580 C.3   199  PRO199      0.0237
    111  CD         1.3600    6.0550   15.6020 C.3   199  PRO199      0.0939
    112  N          0.5830    5.5190   20.8170 N.3   201  LEU201     -0.1245
    113  CA         0.2960    6.5980   21.7620 C.3   201  LEU201      0.1561
    114  C         -0.7480    6.1700   22.8240 C.2   201  LEU201      0.2260
    115  O         -1.7270    5.4320   22.4970 O.2   201  LEU201     -0.2867
    116  CB        -0.2000    7.8380   20.9800 C.3   201  LEU201      0.0270
    117  CG         0.8800    8.4130   20.0570 C.3   201  LEU201      0.0019
    118  CD1        0.2460    9.5060   19.1020 C.3   201  LEU201      0.0001
    119  CD2        2.1290    9.0420   20.7960 C.3   201  LEU201      0.0001
    120  N        -10.4660    2.1950   25.7120 N.3   206  TRP206     -0.1241
    121  CA       -10.8970    1.0350   24.9930 C.3   206  TRP206      0.1605
    122  C        -12.2900    0.5960   25.4940 C.2   206  TRP206      0.2264
    123  O        -12.5190    0.5330   26.7210 O.2   206  TRP206     -0.2867
    124  CB        -9.8890   -0.1560   25.2190 C.3   206  TRP206      0.0550
    125  CG        -8.8090   -0.0340   24.2290 C.ar  206  TRP206      0.0003
    126  CD1       -7.5390    0.5670   24.4040 C.ar  206  TRP206      0.0946
    127  CD2       -8.8620   -0.4430   22.8270 C.ar  206  TRP206      0.0152
    128  NE1       -6.8490    0.5570   23.2120 N.ar  206  TRP206     -0.2442
    129  CE2       -7.5990   -0.0770   22.2200 C.ar  206  TRP206      0.0810
    130  CE3       -9.8370   -1.1040   22.0460 C.ar  206  TRP206      0.0012
    131  CZ2       -7.3300   -0.2690   20.8590 C.ar  206  TRP206      0.0191
    132  CZ3       -9.5350   -1.3800   20.7150 C.ar  206  TRP206      0.0001
    133  CH2       -8.3080   -0.9330   20.1470 C.ar  206  TRP206      0.0015
@<TRIPOS>BOND
     1     5     2    1
     2     5     6    1
     3    14    11    1
     4    14    15    1
     5    11    10    1
     6    11    12    1
     7     2     3    1
     8     2     1    1
     9     6     7    1
    10    12    13    2
    11     3     4    2
    12     8     7    2
    13     7     9   am
    14    15    16   ar
    15    15    17   ar
    16    16    18   ar
    17    20    21    1
    18    22    21    1
    19    22    23    2
    20    17    19   ar
    21    21    24    1
    22    18    19   ar
    23    33    32    2
    24    54    56   ar
    25    54    52   ar
    26    24    25    1
    27    56    57   ar
    28    51    52    1
    29    51    48    1
    30    26    25   ar
    31    26    28   ar
    32    25    27   ar
    33    52    53   ar
    34    97    95    1
    35    96    95    1
    36    28    29   ar
    37   101   100    2
    38    95    92    1
    39    27    29   ar
    40    57    55   ar
    41    43    42    2
    42    30    31    1
    43    58    59    1
    44    58    49   am
    45    47    48    1
    46    46    44    1
    47    32    31    1
    48    53    55   ar
    49    44    45    1
    50    44    41    1
    51   102   103    1
    52   102    99    1
    53    59    60    1
    54    48    49    1
    55    40    41    1
    56   103   104    1
    57   104    98    1
    58   100    99    1
    59   100   105   am
    60    49    50    2
    61    31    34    1
    62   111   105    1
    63   111   110    1
    64    34    35    1
    65    41    42    1
    66    98    99    1
    67    98    93   am
    68   105   106    1
    69    92    93    1
    70    92    91    1
    71    93    94    2
    72    60    61    2
    73   110   109    1
    74    35    36   ar
    75    35    37   ar
    76    36    38   ar
    77    91    86   am
    78   109   106    1
    79   106   107    1
    80    38    39   ar
    81    37    39   ar
    82    89    88    1
    83    87    86    2
    84    67    66    1
    85    68    66    1
    86    82    81    1
    87    86    85    1
    88    83    81    1
    89    74    73    1
    90    66    63    1
    91   107   108    2
    92    81    80    1
    93    80    77    1
    94    88    85    1
    95    88    90    1
    96    85    84    1
    97    84    78   am
    98   118   117    1
    99    75    73    1
   100    62    63    1
   101    73    70    1
   102    63    64    1
   103    77    78    1
   104    77    76    1
   105    78    79    2
   106   117   119    1
   107   117   116    1
   108    70    71    1
   109    70    69    1
   110   133   132   ar
   111   133   131   ar
   112    71    72    2
   113   132   130   ar
   114    64    65    2
   115   112   113    1
   116   131   129   ar
   117   116   113    1
   118   113   114    1
   119   130   127   ar
   120   129   127   ar
   121   129   128   ar
   122   115   114    2
   123   127   125   ar
   124   128   126   ar
   125   125   126   ar
   126   125   124    1
   127   121   124    1
   128   121   122    1
   129   121   120    1
   130   122   123    2
