@<TRIPOS>MOLECULE
tmp/3sbkA00.pdb
 187 184 0 0 0
SMALL
GASTEIGER

@<TRIPOS>ATOM
      1  N         -8.5510  -24.2850   -9.6390 N.3    27  HIS27      -0.1226
      2  CA        -7.5550  -25.2580  -10.1040 C.3    27  HIS27       0.1752
      3  C         -6.3870  -25.4940   -9.1620 C.2    27  HIS27       0.2596
      4  O         -5.6420  -26.4380   -9.3720 O.2    27  HIS27      -0.2718
      5  CB        -7.0690  -24.9420  -11.5160 C.3    27  HIS27       0.0759
      6  CG        -6.2430  -23.7040  -11.6000 C.ar   27  HIS27       0.0818
      7  ND1       -6.7920  -22.4650  -11.8390 N.ar   27  HIS27      -0.2268
      8  CD2       -4.9120  -23.5040  -11.4430 C.ar   27  HIS27       0.1154
      9  CE1       -5.8360  -21.5500  -11.8340 C.ar   27  HIS27       0.1986
     10  NE2       -4.6870  -22.1520  -11.5850 N.ar   27  HIS27      -0.2212
     11  N         -6.2780  -24.6600   -8.1270 N.am   28  CYS28      -0.1970
     12  CA        -5.1970  -24.6190   -7.1360 C.3    28  CYS28       0.1712
     13  C         -5.5980  -23.6480   -6.0170 C.2    28  CYS28       0.2296
     14  O         -6.4640  -22.7760   -6.2070 O.2    28  CYS28      -0.2864
     15  CB        -3.9030  -24.0720   -7.7600 C.3    28  CYS28       0.0983
     16  SG        -2.8190  -25.2470   -8.6280 S.3    28  CYS28      -0.0798
     17  N          3.4240  -25.1740  -10.9280 N.3    43  HIS43      -0.1241
     18  CA         2.4840  -25.6860  -11.9210 C.3    43  HIS43       0.1621
     19  C          1.0680  -25.1170  -11.8890 C.2    43  HIS43       0.2264
     20  O          0.2790  -25.4280  -12.7900 O.2    43  HIS43      -0.2867
     21  CB         2.4270  -27.1880  -11.9500 C.3    43  HIS43       0.0745
     22  CG         1.6070  -27.7880  -10.8610 C.ar   43  HIS43       0.0817
     23  ND1        2.1620  -28.2610   -9.6870 N.ar   43  HIS43      -0.2268
     24  CD2        0.2790  -28.0360  -10.7840 C.ar   43  HIS43       0.1154
     25  CE1        1.2100  -28.7890   -8.9410 C.ar   43  HIS43       0.1986
     26  NE2        0.0570  -28.6590   -9.5800 N.ar   43  HIS43      -0.2212
     27  N         -0.9730  -19.9530  -14.7590 N.3    46  ARG46      -0.1245
     28  CA        -1.7320  -19.9080  -15.9980 C.3    46  ARG46       0.1563
     29  C         -1.6690  -18.4850  -16.5270 C.2    46  ARG46       0.2260
     30  O         -1.0390  -17.5970  -15.9390 O.2    46  ARG46      -0.2867
     31  CB        -3.2050  -20.2740  -15.8380 C.3    46  ARG46       0.0307
     32  CG        -3.5700  -21.5940  -15.1620 C.3    46  ARG46       0.0489
     33  CD        -3.5510  -22.8150  -16.0550 C.3    46  ARG46       0.2205
     34  NE        -4.0200  -23.9750  -15.3000 N.pl3  46  ARG46      -0.0865
     35  CZ        -3.2710  -24.6940  -14.4620 C.cat  46  ARG46       0.5346
     36  NH1       -1.9830  -24.3930  -14.2490 N.pl3  46  ARG46       0.1354
     37  NH2       -3.8280  -25.7200  -13.8210 N.pl3  46  ARG46       0.1354
     38  N          9.4570  -28.8270  -11.9880 N.3    85  LEU85      -0.1245
     39  CA         8.6460  -29.5340  -11.0090 C.3    85  LEU85       0.1561
     40  C          9.4280  -30.0020   -9.8100 C.2    85  LEU85       0.2260
     41  O          8.8330  -30.2570   -8.7710 O.2    85  LEU85      -0.2867
     42  CB         7.9210  -30.7210  -11.6050 C.3    85  LEU85       0.0270
     43  CG         6.8640  -30.3550  -12.6370 C.3    85  LEU85       0.0019
     44  CD1        6.2830  -31.6820  -13.1620 C.3    85  LEU85       0.0001
     45  CD2        5.7970  -29.4130  -12.0510 C.3    85  LEU85       0.0001
     46  N          8.6310  -26.9370   -7.0830 N.3    88  ASP88      -0.1239
     47  CA         7.3130  -26.4450   -7.4250 C.3    88  ASP88       0.1674
     48  C          6.9040  -25.3890   -6.4150 C.2    88  ASP88       0.2266
     49  O          6.3950  -25.7130   -5.3290 O.2    88  ASP88      -0.2867
     50  CB         6.3230  -27.6050   -7.4370 C.3    88  ASP88       0.1410
     51  CG         5.1460  -27.3290   -8.3090 C.2    88  ASP88       0.3668
     52  OD1        4.3080  -28.2430   -8.3920 O.co2  88  ASP88      -0.2456
     53  OD2        5.0550  -26.2270   -8.9040 O.co2  88  ASP88      -0.2456
     54  N          7.7870  -40.8500   -7.4340 N.3   154  TYR154     -0.1228
     55  CA         7.7780  -39.5350   -8.1110 C.3   154  TYR154      0.1721
     56  C          9.1830  -39.1440   -8.6080 C.2   154  TYR154      0.2437
     57  O         10.0120  -38.6710   -7.8250 O.2   154  TYR154     -0.2733
     58  CB         7.2140  -38.4290   -7.1830 C.3   154  TYR154      0.0547
     59  CG         5.9860  -38.8410   -6.3870 C.ar  154  TYR154     -0.0200
     60  CD1        4.7750  -39.1050   -7.0300 C.ar  154  TYR154     -0.0009
     61  CD2        6.0500  -39.0020   -5.0090 C.ar  154  TYR154     -0.0009
     62  CE1        3.6620  -39.5170   -6.3170 C.ar  154  TYR154      0.0417
     63  CE2        4.9320  -39.4140   -4.2750 C.ar  154  TYR154      0.0417
     64  CZ         3.7460  -39.6740   -4.9330 C.ar  154  TYR154      0.1957
     65  OH         2.6290  -40.0820   -4.2340 O.3   154  TYR154     -0.2866
     66  N          9.4670  -39.3700   -9.9000 N.am  155  PRO155     -0.2718
     67  CA        10.7500  -39.0590  -10.5480 C.3   155  PRO155      0.1535
     68  C         11.2260  -37.6120  -10.3590 C.2   155  PRO155      0.2599
     69  O         12.4270  -37.3290  -10.3630 O.2   155  PRO155     -0.2715
     70  CB        10.4530  -39.2780  -12.0430 C.3   155  PRO155      0.0310
     71  CG         8.9900  -39.4930  -12.1550 C.3   155  PRO155      0.0237
     72  CD         8.5060  -39.9760  -10.8370 C.3   155  PRO155      0.0939
     73  N         10.2670  -36.7030  -10.2260 N.am  156  TRP156     -0.1960
     74  CA        10.5380  -35.2740  -10.2550 C.3   156  TRP156      0.1771
     75  C         11.0410  -34.8090   -8.8890 C.2   156  TRP156      0.2619
     76  O         11.3560  -33.6360   -8.6920 O.2   156  TRP156     -0.2715
     77  CB         9.2850  -34.4950  -10.7080 C.3   156  TRP156      0.0590
     78  CG         8.8070  -34.7500  -12.1130 C.ar  156  TRP156      0.0006
     79  CD1        7.5540  -35.1320  -12.4850 C.ar  156  TRP156      0.0946
     80  CD2        9.5650  -34.6540  -13.3240 C.ar  156  TRP156      0.0152
     81  NE1        7.4780  -35.2920  -13.8470 N.ar  156  TRP156     -0.2442
     82  CE2        8.7010  -35.0030  -14.3890 C.ar  156  TRP156      0.0810
     83  CE3       10.9060  -34.3340  -13.6170 C.ar  156  TRP156      0.0012
     84  CZ2        9.1150  -34.9920  -15.7430 C.ar  156  TRP156      0.0191
     85  CZ3       11.3410  -34.3500  -14.9800 C.ar  156  TRP156      0.0001
     86  CH2       10.4310  -34.6760  -16.0250 C.ar  156  TRP156      0.0015
     87  N         11.0930  -35.7610   -7.9590 N.am  157  VAL157     -0.1977
     88  CA        11.4290  -35.5470   -6.5630 C.3   157  VAL157      0.1596
     89  C         12.6540  -36.4090   -6.3040 C.2   157  VAL157      0.2287
     90  O         12.5820  -37.5410   -5.8260 O.2   157  VAL157     -0.2864
     91  CB        10.2860  -35.9700   -5.6100 C.3   157  VAL157      0.0276
     92  CG1       10.5460  -35.4160   -4.2080 C.3   157  VAL157      0.0022
     93  CG2        8.9610  -35.4370   -6.0940 C.3   157  VAL157      0.0022
     94  N         -5.1890  -37.5880    2.4970 N.3   174  ASP174     -0.1225
     95  CA        -4.2260  -37.0070    1.5630 C.3   174  ASP174      0.1805
     96  C         -4.8030  -35.8100    0.7940 C.2   174  ASP174      0.2598
     97  O         -6.0090  -35.6220    0.7730 O.2   174  ASP174     -0.2718
     98  CB        -3.7150  -38.1220    0.6290 C.3   174  ASP174      0.1424
     99  CG        -2.8160  -37.6090   -0.4750 C.2   174  ASP174      0.3668
    100  OD1       -1.7970  -36.9570   -0.1620 O.co2 174  ASP174     -0.2456
    101  OD2       -3.1550  -37.8620   -1.6530 O.co2 174  ASP174     -0.2456
    102  N         -3.9510  -34.9970    0.1710 N.am  175  THR175     -0.1939
    103  CA        -4.4150  -33.9340   -0.7310 C.3   175  THR175      0.2028
    104  C         -4.7910  -34.5560   -2.0580 C.2   175  THR175      0.2642
    105  O         -4.5670  -35.7480   -2.2530 O.2   175  THR175     -0.2714
    106  CB        -3.3720  -32.8040   -0.9660 C.3   175  THR175      0.1808
    107  OG1       -2.0660  -33.3740   -1.1240 O.3   175  THR175     -0.2208
    108  CG2       -3.3320  -31.8360    0.2080 C.3   175  THR175      0.0379
    109  N         -5.3550  -33.7550   -2.9540 N.am  176  CYS176     -0.1953
    110  CA        -5.7990  -34.2540   -4.2390 C.3   176  CYS176      0.1843
    111  C         -5.7820  -33.2070   -5.3610 C.2   176  CYS176      0.2625
    112  O         -5.3840  -32.0440   -5.1520 O.2   176  CYS176     -0.2714
    113  CB        -7.1870  -34.8950   -4.1220 C.3   176  CYS176      0.0997
    114  SG        -7.5790  -36.0530   -5.5170 S.3   176  CYS176     -0.0797
    115  N         -6.2100  -33.6380   -6.5480 N.am  177  HIS177     -0.1959
    116  CA        -6.2970  -32.7630   -7.7110 C.3   177  HIS177      0.1787
    117  C         -6.8980  -31.4550   -7.2410 C.2   177  HIS177      0.2620
    118  O         -7.9200  -31.4500   -6.5490 O.2   177  HIS177     -0.2715
    119  CB        -7.1290  -33.3730   -8.8620 C.3   177  HIS177      0.0785
    120  CG        -6.8760  -32.7460  -10.2050 C.ar  177  HIS177      0.0821
    121  ND1       -7.8210  -31.9970  -10.8760 N.ar  177  HIS177     -0.2267
    122  CD2       -5.7730  -32.7450  -10.9970 C.ar  177  HIS177      0.1154
    123  CE1       -7.3240  -31.5690  -12.0250 C.ar  177  HIS177      0.1986
    124  NE2       -6.0790  -32.0070  -12.1200 N.ar  177  HIS177     -0.2212
    125  N         -6.2610  -30.3470   -7.5900 N.am  178  GLY178     -0.1954
    126  CA        -6.8060  -29.0580   -7.1740 C.3   178  GLY178      0.1869
    127  C         -6.3390  -28.5630   -5.8070 C.2   178  GLY178      0.2309
    128  O         -6.6220  -27.4310   -5.4500 O.2   178  GLY178     -0.2863
    129  N         -3.1370  -28.2610   -5.1580 N.3   180  SER180     -0.1217
    130  CA        -1.7930  -27.7380   -5.3580 C.3   180  SER180      0.1889
    131  C         -1.6670  -26.3140   -4.8680 C.2   180  SER180      0.2288
    132  O         -2.5820  -25.5160   -5.0750 O.2   180  SER180     -0.2866
    133  CB        -1.4150  -27.8100   -6.8270 C.3   180  SER180      0.2089
    134  OG        -1.1610  -29.1680   -7.1270 O.3   180  SER180     -0.2183
    135  N          1.6670  -27.6600   -1.3390 N.3   194  VAL194     -0.1231
    136  CA         1.2700  -28.9210   -1.9420 C.3   194  VAL194      0.1692
    137  C          1.8030  -29.0020   -3.3580 C.2   194  VAL194      0.2592
    138  O          1.4910  -28.1280   -4.1790 O.2   194  VAL194     -0.2718
    139  CB        -0.2580  -29.0600   -2.0240 C.3   194  VAL194      0.0266
    140  CG1       -0.6020  -30.4700   -2.4580 C.3   194  VAL194      0.0020
    141  CG2       -0.9160  -28.7020   -0.6870 C.3   194  VAL194      0.0020
    142  N          2.5630  -30.0520   -3.6440 N.am  195  ALA195     -0.1966
    143  CA         3.2490  -30.1710   -4.9320 C.3   195  ALA195      0.1728
    144  C          2.5640  -31.2360   -5.7710 C.2   195  ALA195      0.2617
    145  O          1.9840  -30.9230   -6.8190 O.2   195  ALA195     -0.2715
    146  CB         4.7420  -30.4720   -4.7430 C.3   195  ALA195      0.0334
    147  N          2.5960  -32.4740   -5.2830 N.am  196  GLY196     -0.1940
    148  CA         1.7540  -33.5200   -5.8530 C.3   196  GLY196      0.2014
    149  C          1.8240  -34.8330   -5.1050 C.2   196  GLY196      0.2639
    150  O          2.4590  -34.9470   -4.0400 O.2   196  GLY196     -0.2714
    151  N          1.1340  -35.8130   -5.6770 N.am  197  GLY197     -0.1939
    152  CA         1.1080  -37.2060   -5.2130 C.3   197  GLY197      0.2014
    153  C          0.3490  -38.0570   -6.2330 C.2   197  GLY197      0.2640
    154  O          0.1190  -37.6000   -7.3650 O.2   197  GLY197     -0.2714
    155  N         -0.0910  -39.2590   -5.8430 N.am  198  SER198     -0.1935
    156  CA        -0.6580  -40.2260   -6.8050 C.3   198  SER198      0.2055
    157  C         -2.1520  -40.1060   -7.0880 C.2   198  SER198      0.2642
    158  O         -2.9070  -39.6790   -6.2150 O.2   198  SER198     -0.2714
    159  CB        -0.3160  -41.6430   -6.3740 C.3   198  SER198      0.2130
    160  OG         0.8550  -41.6180   -5.5670 O.3   198  SER198     -0.2179
    161  N         -2.5640  -40.4580   -8.3100 N.am  199  GLU199     -0.1976
    162  CA        -3.9520  -40.3080   -8.7940 C.3   199  GLU199      0.1602
    163  C         -4.5130  -41.7000   -9.0970 C.2   199  GLU199      0.2287
    164  O         -3.8970  -42.4530   -9.8630 O.2   199  GLU199     -0.2864
    165  CB        -4.0370  -39.3980  -10.0420 C.3   199  GLU199      0.0415
    166  CG        -3.6150  -37.8920   -9.8410 C.3   199  GLU199      0.1163
    167  CD        -2.7040  -37.2800  -10.9440 C.2   199  GLU199      0.3649
    168  OE1       -3.0750  -37.3180  -12.1450 O.co2 199  GLU199     -0.2457
    169  OE2       -1.6230  -36.7270  -10.6090 O.co2 199  GLU199     -0.2457
    170  N         -6.3440  -40.3080   -5.2410 N.3   201  CYS201     -0.1235
    171  CA        -5.6700  -39.7190   -4.0820 C.3   201  CYS201      0.1677
    172  C         -5.8040  -40.5550   -2.8150 C.2   201  CYS201      0.2270
    173  O         -6.7550  -41.3130   -2.6740 O.2   201  CYS201     -0.2867
    174  CB        -6.1430  -38.2750   -3.8910 C.3   201  CYS201      0.0956
    175  SG        -6.0170  -37.3820   -5.4700 S.3   201  CYS201     -0.0801
    176  N          2.3700  -37.9490   -0.1590 N.3   208  ALA208     -0.1231
    177  CA         2.4180  -36.9100   -1.1890 C.3   208  ALA208      0.1694
    178  C          3.5820  -35.9850   -0.8940 C.2   208  ALA208      0.2591
    179  O          4.1600  -36.0330    0.2000 O.2   208  ALA208     -0.2718
    180  CB         1.1100  -36.1530   -1.2600 C.3   208  ALA208      0.0304
    181  N          3.8960  -35.1420   -1.8800 N.am  209  VAL209     -0.1980
    182  CA         5.0800  -34.2920   -1.8130 C.3   209  VAL209      0.1595
    183  C          4.7220  -32.8460   -1.4950 C.2   209  VAL209      0.2287
    184  O          3.8580  -32.2500   -2.1450 O.2   209  VAL209     -0.2864
    185  CB         5.8590  -34.3860   -3.1440 C.3   209  VAL209      0.0276
    186  CG1        6.9380  -33.3290   -3.2440 C.3   209  VAL209      0.0022
    187  CG2        6.4530  -35.7790   -3.2900 C.3   209  VAL209      0.0022
@<TRIPOS>BOND
     1    29    28    1
     2    29    30    2
     3    33    34    1
     4    33    32    1
     5    86    84   ar
     6    86    85   ar
     7    28    31    1
     8    28    27    1
     9    31    32    1
    10    84    82   ar
    11    34    35    2
    12    85    83   ar
    13    35    36    1
    14    35    37    1
    15    82    81   ar
    16    82    80   ar
    17    81    79   ar
    18    83    80   ar
    19    80    78   ar
    20    44    43    1
    21    20    19    2
    22    43    45    1
    23    43    42    1
    24    79    78   ar
    25    71    70    1
    26    71    72    1
    27   168   167   ar
    28   124   123   ar
    29   124   122   ar
    30    78    77    1
    31    70    67    1
    32   123   121   ar
    33    38    39    1
    34    21    18    1
    35    21    22    1
    36    18    19    1
    37    18    17    1
    38     7     9   ar
    39     7     6   ar
    40     9    10   ar
    41    42    39    1
    42     6     5    1
    43     6     8   ar
    44    10     8   ar
    45     5     2    1
    46    39    40    1
    47   122   120   ar
    48   167   169   ar
    49   167   166    1
    50   121   120   ar
    51    22    24   ar
    52    22    23   ar
    53    72    66    1
    54    24    26   ar
    55    77    74    1
    56    67    68    1
    57    67    66    1
    58    69    68    2
    59    68    73   am
    60    74    73    1
    61    74    75    1
    62   120   119    1
    63     2     1    1
    64     2     3    1
    65   165   166    1
    66   165   162    1
    67    66    56   am
    68   164   163    2
    69    40    41    2
    70    23    25   ar
    71    26    25   ar
    72     4     3    2
    73     3    11   am
    74   163   162    1
    75    53    51   ar
    76    75    76    2
    77    75    87   am
    78   119   116    1
    79   162   161    1
    80    16    15    1
    81    56    55    1
    82    56    57    2
    83    52    51   ar
    84   161   157   am
    85    51    50    1
    86    11    12    1
    87    55    54    1
    88    55    58    1
    89    87    88    1
    90    15    12    1
    91   116   117    1
    92   116   115    1
    93   125   117   am
    94   125   126    1
    95    50    47    1
    96    47    46    1
    97    47    48    1
    98   154   153    2
    99   117   118    2
   100    58    59    1
   101   126   127    1
   102    12    13    1
   103   134   133    1
   104   157   156    1
   105   157   158    2
   106    60    59   ar
   107    60    62   ar
   108   133   130    1
   109   145   144    2
   110   156   159    1
   111   156   155    1
   112    88    89    1
   113    88    91    1
   114   115   111   am
   115    48    49    2
   116    59    61   ar
   117   159   160    1
   118    62    64   ar
   119    89    90    2
   120   153   155   am
   121   153   152    1
   122    14    13    2
   123    93    91    1
   124   148   147    1
   125   148   149    1
   126   127   128    2
   127   144   147   am
   128   144   143    1
   129   151   152    1
   130   151   149   am
   131    91    92    1
   132   114   175    1
   133   114   113    1
   134   175   174    1
   135   111   112    2
   136   111   110    1
   137   130   129    1
   138   130   131    1
   139   170   171    1
   140   149   150    2
   141   132   131    2
   142    61    63   ar
   143    64    63   ar
   144    64    65    1
   145   143   146    1
   146   143   142    1
   147   110   113    1
   148   110   109    1
   149   138   137    2
   150   171   174    1
   151   171   172    1
   152   142   137   am
   153   137   136    1
   154   187   185    1
   155   186   185    1
   156   185   182    1
   157   109   104   am
   158   172   173    2
   159   140   139    1
   160   105   104    2
   161   184   183    2
   162   104   103    1
   163   139   136    1
   164   139   141    1
   165   136   135    1
   166   181   182    1
   167   181   178   am
   168   182   183    1
   169   101    99   ar
   170   180   177    1
   171   177   178    1
   172   177   176    1
   173   107   106    1
   174   106   103    1
   175   106   108    1
   176   178   179    2
   177   103   102    1
   178    99   100   ar
   179    99    98    1
   180   102    96   am
   181    98    95    1
   182    97    96    2
   183    96    95    1
   184    95    94    1
