@<TRIPOS>MOLECULE
tmp/3sbuA01.pdb
 102 102 0 0 0
SMALL
GASTEIGER

@<TRIPOS>ATOM
      1  N         15.0980    9.2630  -46.4260 N.3    33  TYR33      -0.1241
      2  CA        16.3620    9.8860  -46.0240 C.3    33  TYR33       0.1605
      3  C         16.7910   10.8640  -47.1320 C.2    33  TYR33       0.2264
      4  O         17.0010   10.4390  -48.2710 O.2    33  TYR33      -0.2867
      5  CB        17.4320    8.7890  -45.7940 C.3    33  TYR33       0.0534
      6  CG        18.5870    9.1940  -44.8990 C.ar   33  TYR33      -0.0201
      7  CD1       19.6700    9.9100  -45.4040 C.ar   33  TYR33      -0.0009
      8  CD2       18.6260    8.8100  -43.5600 C.ar   33  TYR33      -0.0009
      9  CE1       20.7440   10.2710  -44.5870 C.ar   33  TYR33       0.0417
     10  CE2       19.7030    9.1470  -42.7390 C.ar   33  TYR33       0.0417
     11  CZ        20.7490    9.9010  -43.2490 C.ar   33  TYR33       0.1957
     12  OH        21.8020   10.2510  -42.4300 O.3    33  TYR33      -0.2866
     13  N         15.8490    4.1180  -46.1550 N.3    41  ILE41      -0.1245
     14  CA        16.5540    3.1340  -45.3500 C.3    41  ILE41       0.1561
     15  C         15.5490    2.0820  -44.8770 C.2    41  ILE41       0.2260
     16  O         14.5640    2.4070  -44.2080 O.2    41  ILE41      -0.2867
     17  CB        17.4240    3.7530  -44.2260 C.3    41  ILE41       0.0252
     18  CG1       17.7820    2.7390  -43.1100 C.3    41  ILE41       0.0019
     19  CG2       16.8260    5.0300  -43.6800 C.3    41  ILE41       0.0019
     20  CD1       18.9290    3.1800  -42.1790 C.3    41  ILE41       0.0001
     21  N         18.7920   -0.7080  -40.4120 N.3    45  TRP45      -0.1241
     22  CA        18.6940    0.3680  -39.4260 C.3    45  TRP45       0.1605
     23  C         19.6600    0.1010  -38.2590 C.2    45  TRP45       0.2264
     24  O         19.6470   -0.9780  -37.6620 O.2    45  TRP45      -0.2867
     25  CB        17.2430    0.5340  -38.9290 C.3    45  TRP45       0.0550
     26  CG        17.0840    1.5480  -37.8420 C.ar   45  TRP45       0.0003
     27  CD1       17.0260    1.3040  -36.5050 C.ar   45  TRP45       0.0946
     28  CD2       17.0380    2.9740  -37.9930 C.ar   45  TRP45       0.0152
     29  NE1       16.9350    2.4860  -35.8110 N.ar   45  TRP45      -0.2442
     30  CE2       16.9190    3.5280  -36.7000 C.ar   45  TRP45       0.0810
     31  CE3       17.0570    3.8400  -39.0980 C.ar   45  TRP45       0.0012
     32  CZ2       16.8260    4.9080  -36.4760 C.ar   45  TRP45       0.0191
     33  CZ3       16.9540    5.2080  -38.8740 C.ar   45  TRP45       0.0001
     34  CH2       16.8540    5.7290  -37.5760 C.ar   45  TRP45       0.0015
     35  N         20.8510    1.2820  -34.4470 N.3    46  HIS46      -0.1226
     36  CA        20.3390    1.9750  -33.2660 C.3    46  HIS46       0.1752
     37  C         20.9950    3.3380  -33.1260 C.2    46  HIS46       0.2596
     38  O         22.2210    3.4530  -33.1460 O.2    46  HIS46      -0.2718
     39  CB        20.5070    1.1570  -31.9750 C.3    46  HIS46       0.0759
     40  CG        19.9510    1.8630  -30.7760 C.ar   46  HIS46       0.0818
     41  ND1       18.5990    1.8310  -30.4820 N.ar   46  HIS46      -0.2268
     42  CD2       20.5730    2.6640  -29.8770 C.ar   46  HIS46       0.1154
     43  CE1       18.4480    2.5860  -29.4050 C.ar   46  HIS46       0.1986
     44  NE2       19.6090    3.1090  -29.0060 N.ar   46  HIS46      -0.2212
     45  N         20.1580    4.3680  -33.0230 N.am   47  ASP47      -0.1960
     46  CA        20.5860    5.7520  -32.8680 C.3    47  ASP47       0.1840
     47  C         20.3240    6.1820  -31.4290 C.2    47  ASP47       0.2622
     48  O         19.1670    6.2490  -30.9990 O.2    47  ASP47      -0.2715
     49  CB        19.8560    6.6520  -33.8760 C.3    47  ASP47       0.1450
     50  CG        20.5550    7.9810  -34.1520 C.2    47  ASP47       0.3671
     51  OD1       21.0070    8.6330  -33.1840 O.co2  47  ASP47      -0.2456
     52  OD2       20.6310    8.3740  -35.3280 O.co2  47  ASP47      -0.2456
     53  N         21.4040    6.4510  -30.6760 N.am   48  ASP48      -0.1957
     54  CA        21.3220    6.8810  -29.2750 C.3    48  ASP48       0.1840
     55  C         20.9600    8.3560  -29.1410 C.2    48  ASP48       0.2621
     56  O         20.6770    8.8160  -28.0240 O.2    48  ASP48      -0.2715
     57  CB        22.6630    6.6450  -28.5640 C.3    48  ASP48       0.1450
     58  CG        23.0980    5.1980  -28.5210 C.2    48  ASP48       0.3671
     59  OD1       22.4100    4.3910  -27.8520 O.co2  48  ASP48      -0.2456
     60  OD2       24.1330    4.8730  -29.1460 O.co2  48  ASP48      -0.2456
     61  N         21.0160    9.1160  -30.2580 N.am   49  LEU49      -0.1977
     62  CA        20.8010   10.5640  -30.2560 C.3    49  LEU49       0.1596
     63  C         21.7090   11.1780  -29.1640 C.2    49  LEU49       0.2287
     64  O         22.8890   10.8450  -29.1290 O.2    49  LEU49      -0.2864
     65  CB        19.3100   10.9460  -30.0830 C.3    49  LEU49       0.0297
     66  CG        18.3670   10.5150  -31.2080 C.3    49  LEU49       0.0022
     67  CD1       16.9420   10.6560  -30.7750 C.3    49  LEU49       0.0001
     68  CD2       18.6280   11.2820  -32.4970 C.3    49  LEU49       0.0001
     69  N         21.1430   17.6770  -35.2150 N.3    79  TRP79      -0.1241
     70  CA        22.5610   17.6960  -34.9320 C.3    79  TRP79       0.1605
     71  C         23.1160   18.8160  -35.7890 C.2    79  TRP79       0.2264
     72  O         22.8950   18.8160  -37.0040 O.2    79  TRP79      -0.2867
     73  CB        23.2680   16.3680  -35.2600 C.3    79  TRP79       0.0550
     74  CG        23.0570   15.2520  -34.2780 C.ar   79  TRP79       0.0003
     75  CD1       22.6190   13.9920  -34.5650 C.ar   79  TRP79       0.0946
     76  CD2       23.4220   15.2420  -32.8860 C.ar   79  TRP79       0.0152
     77  NE1       22.6410   13.2120  -33.4300 N.ar   79  TRP79      -0.2442
     78  CE2       23.1110   13.9580  -32.3790 C.ar   79  TRP79       0.0810
     79  CE3       23.9460   16.2050  -32.0040 C.ar   79  TRP79       0.0012
     80  CZ2       23.3390   13.5980  -31.0380 C.ar   79  TRP79       0.0191
     81  CZ3       24.1560   15.8510  -30.6710 C.ar   79  TRP79       0.0001
     82  CH2       23.8500   14.5640  -30.2010 C.ar   79  TRP79       0.0015
     83  N         16.1150   15.0410  -37.7100 N.3    85  TYR85      -0.1241
     84  CA        15.2100   13.9110  -37.5250 C.3    85  TYR85       0.1605
     85  C         13.7780   14.4250  -37.3720 C.2    85  TYR85       0.2264
     86  O         13.5170   15.1670  -36.4310 O.2    85  TYR85      -0.2867
     87  CB        15.6010   13.1170  -36.2690 C.3    85  TYR85       0.0534
     88  CG        17.0010   12.5440  -36.2270 C.ar   85  TYR85      -0.0201
     89  CD1       18.0940   13.3460  -35.8970 C.ar   85  TYR85      -0.0009
     90  CD2       17.2160   11.1760  -36.3630 C.ar   85  TYR85      -0.0009
     91  CE1       19.3780   12.8140  -35.7840 C.ar   85  TYR85       0.0417
     92  CE2       18.4940   10.6280  -36.2440 C.ar   85  TYR85       0.0417
     93  CZ        19.5730   11.4520  -35.9500 C.ar   85  TYR85       0.1957
     94  OH        20.8300   10.9230  -35.8070 O.3    85  TYR85      -0.2866
     95  N         14.6030   11.7320  -42.1950 N.3    97  ILE97      -0.1245
     96  CA        15.8780   12.3020  -41.7740 C.3    97  ILE97       0.1561
     97  C         16.3850   13.0870  -42.9560 C.2    97  ILE97       0.2260
     98  O         16.3260   12.5780  -44.0660 O.2    97  ILE97      -0.2867
     99  CB        16.9270   11.2520  -41.2670 C.3    97  ILE97       0.0252
    100  CG1       16.4430   10.5390  -39.9820 C.3    97  ILE97       0.0019
    101  CG2       18.3100   11.9160  -41.0250 C.3    97  ILE97       0.0019
    102  CD1       17.2690    9.3110  -39.5850 C.3    97  ILE97       0.0001
@<TRIPOS>BOND
     1     4     3    2
     2     3     2    1
     3     1     2    1
     4    13    14    1
     5     2     5    1
     6     5     6    1
     7     7     6   ar
     8     7     9   ar
     9    14    15    1
    10    14    17    1
    11     6     8   ar
    12    15    16    2
    13     9    11   ar
    14    17    19    1
    15    17    18    1
    16    98    97    2
    17     8    10   ar
    18    11    10   ar
    19    11    12    1
    20    18    20    1
    21    97    96    1
    22    95    96    1
    23    96    99    1
    24    99   101    1
    25    99   100    1
    26    21    22    1
    27   100   102    1
    28    22    25    1
    29    22    23    1
    30    31    33   ar
    31    31    28   ar
    32    25    26    1
    33    33    34   ar
    34    23    24    2
    35    28    26   ar
    36    28    30   ar
    37    26    27   ar
    38    83    84    1
    39    34    32   ar
    40    84    85    1
    41    84    87    1
    42    85    86    2
    43    72    71    2
    44    30    32   ar
    45    30    29   ar
    46    27    29   ar
    47    90    92   ar
    48    90    88   ar
    49    87    88    1
    50    92    93   ar
    51    88    89   ar
    52    93    94    1
    53    93    91   ar
    54    89    91   ar
    55    71    70    1
    56    52    50   ar
    57    73    70    1
    58    73    74    1
    59    69    70    1
    60    75    74   ar
    61    75    77   ar
    62    35    36    1
    63    74    76   ar
    64    50    49    1
    65    50    51   ar
    66    49    46    1
    67    77    78   ar
    68    36    37    1
    69    36    39    1
    70    38    37    2
    71    37    45   am
    72    45    46    1
    73    76    78   ar
    74    76    79   ar
    75    46    47    1
    76    68    66    1
    77    78    80   ar
    78    79    81   ar
    79    39    40    1
    80    47    48    2
    81    47    53   am
    82    66    67    1
    83    66    65    1
    84    80    82   ar
    85    40    41   ar
    86    40    42   ar
    87    53    54    1
    88    81    82   ar
    89    41    43   ar
    90    61    62    1
    91    61    55   am
    92    62    65    1
    93    62    63    1
    94    42    44   ar
    95    43    44   ar
    96    54    55    1
    97    54    57    1
    98    63    64    2
    99    60    58   ar
   100    55    56    2
   101    57    58    1
   102    58    59   ar
