@<TRIPOS>MOLECULE
tmp/3sbuB00.pdb
 89 89 0 0 0
SMALL
GASTEIGER

@<TRIPOS>ATOM
      1  N         27.9700   30.0310   16.7080 N.3    52  GLN52      -0.1231
      2  CA        28.6480   28.7600   16.3930 C.3    52  GLN52       0.1698
      3  C         29.5780   28.3300   17.5110 C.2    52  GLN52       0.2593
      4  O         29.9540   29.1530   18.3440 O.2    52  GLN52      -0.2718
      5  CB        29.4540   28.8870   15.0990 C.3    52  GLN52       0.0381
      6  CG        28.6180   29.1860   13.8740 C.3    52  GLN52       0.0905
      7  CD        29.4150   29.6810   12.6980 C.2    52  GLN52       0.2608
      8  OE1       28.8320   30.2130   11.7620 O.2    52  GLN52      -0.2717
      9  NE2       30.7630   29.5300   12.6900 N.am   52  GLN52      -0.0878
     10  N         29.9730   27.0540   17.5300 N.am   53  SER53      -0.1938
     11  CA        30.9240   26.5620   18.5390 C.3    53  SER53       0.2055
     12  C         32.3660   26.9420   18.1420 C.2    53  SER53       0.2643
     13  O         33.2430   27.0560   19.0080 O.2    53  SER53      -0.2714
     14  CB        30.7930   25.0500   18.7180 C.3    53  SER53       0.2130
     15  OG        30.9360   24.3520   17.4900 O.3    53  SER53      -0.2179
     16  N         32.5980   27.1370   16.8220 N.am   54  TYR54      -0.1959
     17  CA        33.8980   27.5090   16.2540 C.3    54  TYR54       0.1771
     18  C         33.7310   28.2840   14.9390 C.2    54  TYR54       0.2620
     19  O         32.6690   28.2290   14.3210 O.2    54  TYR54      -0.2715
     20  CB        34.7770   26.2500   16.0140 C.3    54  TYR54       0.0574
     21  CG        34.2940   25.3740   14.8710 C.ar   54  TYR54      -0.0198
     22  CD1       33.2430   24.4750   15.0510 C.ar   54  TYR54      -0.0009
     23  CD2       34.8670   25.4680   13.6020 C.ar   54  TYR54      -0.0009
     24  CE1       32.7590   23.7060   13.9960 C.ar   54  TYR54       0.0417
     25  CE2       34.4030   24.6920   12.5420 C.ar   54  TYR54       0.0417
     26  CZ        33.3380   23.8180   12.7430 C.ar   54  TYR54       0.1957
     27  OH        32.8570   23.0270   11.7300 O.3    54  TYR54      -0.2866
     28  N         34.7960   28.9600   14.4820 N.am   55  TYR55      -0.1960
     29  CA        34.8100   29.6530   13.1790 C.3    55  TYR55       0.1771
     30  C         36.1170   29.2940   12.4730 C.2    55  TYR55       0.2620
     31  O         36.9950   28.6560   13.0750 O.2    55  TYR55      -0.2715
     32  CB        34.6090   31.1700   13.3160 C.3    55  TYR55       0.0574
     33  CG        35.7530   31.8950   13.9980 C.ar   55  TYR55      -0.0198
     34  CD1       35.8200   31.9850   15.3860 C.ar   55  TYR55      -0.0009
     35  CD2       36.7260   32.5560   13.2530 C.ar   55  TYR55      -0.0009
     36  CE1       36.8420   32.6920   16.0160 C.ar   55  TYR55       0.0417
     37  CE2       37.7440   33.2750   13.8700 C.ar   55  TYR55       0.0417
     38  CZ        37.8100   33.3200   15.2540 C.ar   55  TYR55       0.1957
     39  OH        38.8110   34.0000   15.8840 O.3    55  TYR55      -0.2866
     40  N         36.2350   29.6600   11.1960 N.am   56  THR56      -0.1951
     41  CA        37.4080   29.3290   10.4060 C.3    56  THR56       0.1897
     42  C         38.1170   30.5670    9.8950 C.2    56  THR56       0.2313
     43  O         37.5080   31.6250    9.7250 O.2    56  THR56      -0.2863
     44  CB        37.0440   28.4010    9.2220 C.3    56  THR56       0.1794
     45  OG1       36.1570   29.0870    8.3330 O.3    56  THR56      -0.2208
     46  CG2       36.3870   27.0730    9.6930 C.3    56  THR56       0.0378
     47  N         31.7440   35.0810    4.3980 N.3    79  TRP79      -0.1241
     48  CA        31.1230   33.7750    4.3300 C.3    79  TRP79       0.1605
     49  C         31.4760   33.1800    2.9880 C.2    79  TRP79       0.2264
     50  O         31.2670   33.8320    1.9780 O.2    79  TRP79      -0.2867
     51  CB        29.5860   33.8640    4.4830 C.3    79  TRP79       0.0550
     52  CG        29.0790   34.1160    5.8700 C.ar   79  TRP79       0.0003
     53  CD1       28.2250   35.1060    6.2600 C.ar   79  TRP79       0.0946
     54  CD2       29.3270   33.3130    7.0320 C.ar   79  TRP79       0.0152
     55  NE1       27.9110   34.9620    7.5870 N.ar   79  TRP79      -0.2442
     56  CE2       28.5730   33.8700    8.0870 C.ar   79  TRP79       0.0810
     57  CE3       30.0920   32.1530    7.2740 C.ar   79  TRP79       0.0012
     58  CZ2       28.5820   33.3290    9.3680 C.ar   79  TRP79       0.0191
     59  CZ3       30.0910   31.6090    8.5390 C.ar   79  TRP79       0.0001
     60  CH2       29.3550   32.2020    9.5730 C.ar   79  TRP79       0.0015
     61  N         33.2650   22.0270    8.5800 N.3   162  PRO162     -0.2116
     62  CA        32.0470   22.6210    8.0000 C.3   162  PRO162      0.1372
     63  C         31.8250   22.1370    6.5750 C.2   162  PRO162      0.2244
     64  O         32.7420   22.1460    5.7590 O.2   162  PRO162     -0.2868
     65  CB        32.2820   24.1300    8.0860 C.3   162  PRO162      0.0268
     66  CG        33.7290   24.3010    8.2350 C.3   162  PRO162      0.0207
     67  CD        34.3620   23.0080    8.6850 C.3   162  PRO162      0.0892
     68  N         28.9730   23.1610    4.4890 N.3   164  ASP164     -0.1239
     69  CA        28.2950   24.1450    3.6510 C.3   164  ASP164      0.1674
     70  C         28.9680   25.5050    3.5550 C.2   164  ASP164      0.2266
     71  O         28.9630   26.1050    2.4850 O.2   164  ASP164     -0.2867
     72  CB        26.8580   24.3330    4.1800 C.3   164  ASP164      0.1410
     73  CG        26.0370   23.0590    4.0920 C.2   164  ASP164      0.3668
     74  OD1       25.9740   22.4670    2.9900 O.co2 164  ASP164     -0.2456
     75  OD2       25.4890   22.6320    5.1310 O.co2 164  ASP164     -0.2456
     76  N         32.2410   28.2400    5.0290 N.3   165  LEU165     -0.1231
     77  CA        33.4600   28.5960    5.7180 C.3   165  LEU165      0.1693
     78  C         33.4250   30.0690    6.0170 C.2   165  LEU165      0.2592
     79  O         32.8240   30.8360    5.2620 O.2   165  LEU165     -0.2718
     80  CB        34.7100   28.2950    4.8280 C.3   165  LEU165      0.0284
     81  CG        35.1230   26.8340    4.6040 C.3   165  LEU165      0.0019
     82  CD1       36.1960   26.7470    3.5380 C.3   165  LEU165      0.0001
     83  CD2       35.6860   26.2130    5.8820 C.3   165  LEU165      0.0001
     84  N         34.0690   30.4870    7.0820 N.am  166  SER166     -0.1952
     85  CA        34.2440   31.9110    7.3110 C.3   166  SER166      0.1924
     86  C         35.7170   32.2230    7.0040 C.2   166  SER166      0.2314
     87  O         36.5690   31.3200    6.8800 O.2   166  SER166     -0.2863
     88  CB        33.8490   32.3250    8.7330 C.3   166  SER166      0.2116
     89  OG        34.6650   31.6900    9.7000 O.3   166  SER166     -0.2180
@<TRIPOS>BOND
     1    50    49    2
     2    71    70    2
     3    49    48    1
     4    74    73   ar
     5    82    81    1
     6    70    69    1
     7    69    72    1
     8    69    68    1
     9    73    72    1
    10    73    75   ar
    11    48    47    1
    12    48    51    1
    13    51    52    1
    14    81    80    1
    15    81    83    1
    16    80    77    1
    17    76    77    1
    18    79    78    2
    19    77    78    1
    20    64    63    2
    21    52    53   ar
    22    52    54   ar
    23    78    84   am
    24    53    55   ar
    25    63    62    1
    26    87    86    2
    27    86    85    1
    28    54    57   ar
    29    54    56   ar
    30    84    85    1
    31    57    59   ar
    32    85    88    1
    33    55    56   ar
    34    62    65    1
    35    62    61    1
    36    65    66    1
    37    56    58   ar
    38    66    67    1
    39    45    44    1
    40    59    60   ar
    41    61    67    1
    42    88    89    1
    43    44    46    1
    44    44    41    1
    45    58    60   ar
    46    43    42    2
    47    42    41    1
    48    41    40    1
    49    40    30   am
    50    27    26    1
    51     8     7    2
    52    30    31    2
    53    30    29    1
    54    25    26   ar
    55    25    23   ar
    56     9     7   am
    57     7     6    1
    58    26    24   ar
    59    29    32    1
    60    29    28    1
    61    35    37   ar
    62    35    33   ar
    63    32    33    1
    64    23    21   ar
    65    37    38   ar
    66     6     5    1
    67    24    22   ar
    68    33    34   ar
    69    19    18    2
    70    28    18   am
    71    21    22   ar
    72    21    20    1
    73    18    17    1
    74     5     2    1
    75    38    39    1
    76    38    36   ar
    77    34    36   ar
    78    20    17    1
    79    17    16    1
    80     2     1    1
    81     2     3    1
    82    16    12   am
    83    15    14    1
    84     3    10   am
    85     3     4    2
    86    10    11    1
    87    12    11    1
    88    12    13    2
    89    11    14    1
