@<TRIPOS>MOLECULE
tmp/3sbxA00.pdb
 135 128 0 0 0
SMALL
GASTEIGER

@<TRIPOS>ATOM
      1  N          5.7230   -5.6900   19.6800 N.3     8  CYS8       -0.1221
      2  CA         5.5920   -6.3650   20.9830 C.3     8  CYS8        0.1808
      3  C          4.1280   -6.4030   21.4290 C.2     8  CYS8        0.2601
      4  O          3.2650   -5.8180   20.7740 O.2     8  CYS8       -0.2717
      5  CB         6.4290   -5.6380   22.0330 C.3     8  CYS8        0.0970
      6  SG         6.1650   -3.8240   22.0290 S.3     8  CYS8       -0.0800
      7  N          3.8540   -7.0750   22.5510 N.am    9  ALA9       -0.1965
      8  CA         2.4780   -7.2150   23.0520 C.3     9  ALA9        0.1728
      9  C          1.8530   -5.8760   23.4550 C.2     9  ALA9        0.2616
     10  O          2.5540   -4.9210   23.8110 O.2     9  ALA9       -0.2715
     11  CB         2.4250   -8.1970   24.2160 C.3     9  ALA9        0.0334
     12  N          0.5270   -5.8190   23.3780 N.am   10  ALA10      -0.1963
     13  CA        -0.2420   -4.6590   23.8330 C.3    10  ALA10       0.1728
     14  C         -1.1390   -5.0980   24.9890 C.2    10  ALA10       0.2616
     15  O         -1.6300   -4.2700   25.7720 O.2    10  ALA10      -0.2715
     16  CB        -1.0740   -4.1040   22.6950 C.3    10  ALA10       0.0334
     17  N         -1.3600   -6.4100   25.0580 N.am   11  ALA11      -0.1977
     18  CA        -1.9420   -7.0580   26.2220 C.3    11  ALA11       0.1597
     19  C         -0.8460   -7.1800   27.2940 C.2    11  ALA11       0.2287
     20  O          0.3350   -7.1260   26.9740 O.2    11  ALA11      -0.2864
     21  CB        -2.5150   -8.4270   25.8330 C.3    11  ALA11       0.0319
     22  N          3.7050    0.5760   17.9480 N.3    38  GLY38      -0.1225
     23  CA         2.2580    0.6270   17.7820 C.3    38  GLY38       0.1811
     24  C          1.5260    1.7540   18.4920 C.2    38  GLY38       0.2280
     25  O          0.3070    1.8720   18.3360 O.2    38  GLY38      -0.2866
     26  N          4.3150   -2.2360   24.9360 N.3    45  MET45      -0.1245
     27  CA         4.3610   -1.0660   24.0650 C.3    45  MET45       0.1570
     28  C          4.7990    0.1820   24.8270 C.2    45  MET45       0.2261
     29  O          5.6990    0.9050   24.3820 O.2    45  MET45      -0.2867
     30  CB         3.0070   -0.8200   23.3880 C.3    45  MET45       0.0387
     31  CG         2.6500   -1.8370   22.3340 C.3    45  MET45       0.0595
     32  SD         1.6070   -1.2090   21.0010 S.3    45  MET45      -0.1393
     33  CE         0.0220   -1.1740   21.8000 C.3    45  MET45       0.0692
     34  N         -8.1280    1.8460   17.2370 N.3    67  LEU67      -0.1245
     35  CA        -7.4060    1.2500   18.3560 C.3    67  LEU67       0.1561
     36  C         -6.8800    2.2760   19.3310 C.2    67  LEU67       0.2260
     37  O         -6.3320    1.9140   20.3720 O.2    67  LEU67      -0.2867
     38  CB        -6.2720    0.3420   17.8780 C.3    67  LEU67       0.0270
     39  CG        -6.5940   -1.0110   17.2370 C.3    67  LEU67       0.0019
     40  CD1       -5.2820   -1.7320   16.9830 C.3    67  LEU67       0.0001
     41  CD2       -7.5420   -1.8860   18.0730 C.3    67  LEU67       0.0001
     42  N         -6.1030    0.4790   22.8660 N.3    71  GLU71      -0.1245
     43  CA        -4.7010    0.2510   23.1740 C.3    71  GLU71       0.1567
     44  C         -4.0480    1.4570   23.8360 C.2    71  GLU71       0.2260
     45  O         -2.8450    1.4430   24.1080 O.2    71  GLU71      -0.2867
     46  CB        -3.9440   -0.1820   21.9160 C.3    71  GLU71       0.0388
     47  CG        -4.4360   -1.5190   21.3600 C.3    71  GLU71       0.1160
     48  CD        -3.5410   -2.1240   20.2830 C.2    71  GLU71       0.3649
     49  OE1       -2.6290   -1.4400   19.7560 O.co2  71  GLU71      -0.2457
     50  OE2       -3.7770   -3.3050   19.9500 O.co2  71  GLU71      -0.2457
     51  N         -6.5040   -0.4790    9.8180 N.3    86  MET86      -0.1230
     52  CA        -5.5700   -1.4830   10.3070 C.3    86  MET86       0.1702
     53  C         -4.3540   -1.6310    9.3940 C.2    86  MET86       0.2592
     54  O         -3.2180   -1.5220    9.8610 O.2    86  MET86      -0.2718
     55  CB        -6.2860   -2.8310   10.4360 C.3    86  MET86       0.0401
     56  CG        -5.6900   -3.7850   11.4700 C.3    86  MET86       0.0596
     57  SD        -6.0500   -3.3280   13.1820 S.3    86  MET86      -0.1393
     58  CE        -7.8400   -3.4150   13.1980 C.3    86  MET86       0.0692
     59  N         -4.6020   -1.8670    8.0990 N.am   87  TRP87      -0.1976
     60  CA        -3.5380   -2.1120    7.1160 C.3    87  TRP87       0.1640
     61  C         -2.5820   -0.9260    6.9620 C.2    87  TRP87       0.2290
     62  O         -1.3820   -1.1080    6.7500 O.2    87  TRP87      -0.2864
     63  CB        -4.1420   -2.4930    5.7620 C.3    87  TRP87       0.0576
     64  CG        -5.0430   -3.6930    5.8230 C.ar   87  TRP87       0.0006
     65  CD1       -4.6760   -5.0040    5.7050 C.ar   87  TRP87       0.0946
     66  CD2       -6.4620   -3.6910    6.0220 C.ar   87  TRP87       0.0152
     67  NE1       -5.7790   -5.8150    5.8190 N.ar   87  TRP87      -0.2442
     68  CE2       -6.8870   -5.0330    6.0120 C.ar   87  TRP87       0.0810
     69  CE3       -7.4140   -2.6840    6.2100 C.ar   87  TRP87       0.0012
     70  CZ2       -8.2220   -5.3930    6.1780 C.ar   87  TRP87       0.0191
     71  CZ3       -8.7420   -3.0460    6.3790 C.ar   87  TRP87       0.0001
     72  CH2       -9.1330   -4.3880    6.3570 C.ar   87  TRP87       0.0015
     73  N         -1.5590    1.0360    9.2330 N.3    89  ARG89      -0.1231
     74  CA        -0.6500    1.0710   10.3650 C.3    89  ARG89       0.1694
     75  C          0.6550    0.3800   10.0000 C.2    89  ARG89       0.2591
     76  O          1.7340    0.9350   10.2000 O.2    89  ARG89      -0.2718
     77  CB        -1.2850    0.4000   11.5800 C.3    89  ARG89       0.0321
     78  CG        -0.4280    0.4020   12.8360 C.3    89  ARG89       0.0489
     79  CD        -0.8870   -0.6910   13.7790 C.3    89  ARG89       0.2205
     80  NE        -0.8160   -0.2790   15.1780 N.pl3  89  ARG89      -0.0865
     81  CZ        -1.3630   -0.9540   16.1860 C.cat  89  ARG89       0.5346
     82  NH1       -2.0250   -2.0790   15.9470 N.pl3  89  ARG89       0.1354
     83  NH2       -1.2590   -0.5000   17.4310 N.pl3  89  ARG89       0.1354
     84  N          0.5380   -0.8260    9.4490 N.am   90  LYS90      -0.1980
     85  CA         1.6870   -1.5820    8.9820 C.3    90  LYS90       0.1596
     86  C          2.4370   -0.8590    7.8700 C.2    90  LYS90       0.2287
     87  O          3.6710   -0.7650    7.9280 O.2    90  LYS90      -0.2864
     88  CB         1.2670   -2.9710    8.5160 C.3    90  LYS90       0.0298
     89  CG         0.5790   -3.8010    9.5920 C.3    90  LYS90       0.0038
     90  CD         0.6260   -5.2900    9.2550 C.3    90  LYS90       0.0206
     91  CE        -0.5680   -5.7300    8.4530 C.3    90  LYS90       0.1093
     92  NZ        -1.5090   -6.4810    9.2940 N.3    90  LYS90      -0.1314
     93  N          5.0120  -11.8900   21.7390 N.3   105  GLY105     -0.1210
     94  CA         3.6740  -11.3190   21.7230 C.3   105  GLY105      0.1956
     95  C          2.6810  -12.3290   21.1690 C.2   105  GLY105      0.2612
     96  O          3.0320  -13.4890   20.8700 O.2   105  GLY105     -0.2717
     97  N          1.4410  -11.8760   21.0250 N.am  106  GLY106     -0.1942
     98  CA         0.3630  -12.7080   20.5120 C.3   106  GLY106      0.2014
     99  C          0.1540  -12.6240   19.0140 C.2   106  GLY106      0.2639
    100  O          1.1080  -12.4900   18.2480 O.2   106  GLY106     -0.2714
    101  N         -1.1130  -12.6950   18.6150 N.am  107  VAL107     -0.1963
    102  CA        -1.4940  -12.8770   17.2210 C.3   107  VAL107      0.1727
    103  C         -1.2120  -11.6320   16.3860 C.2   107  VAL107      0.2617
    104  O         -0.7210  -11.7280   15.2720 O.2   107  VAL107     -0.2715
    105  CB        -2.9700  -13.4130   17.0780 C.3   107  VAL107      0.0290
    106  CG1       -4.0180  -12.4240   17.6200 C.3   107  VAL107      0.0023
    107  CG2       -3.2710  -13.7810   15.6490 C.3   107  VAL107      0.0023
    108  N         -1.4760  -10.4640   16.9560 N.am  108  GLY108     -0.1940
    109  CA        -1.2500   -9.2070   16.2670 C.3   108  GLY108      0.2014
    110  C          0.2120   -8.9330   16.0020 C.2   108  GLY108      0.2639
    111  O          0.5880   -8.5030   14.9100 O.2   108  GLY108     -0.2714
    112  N          1.0290   -9.1710   17.0190 N.am  109  THR109     -0.1950
    113  CA         2.4700   -9.1150   16.8870 C.3   109  THR109      0.1897
    114  C          2.9010  -10.0320   15.7380 C.2   109  THR109      0.2313
    115  O          3.6220   -9.5960   14.8290 O.2   109  THR109     -0.2863
    116  CB         3.1490   -9.5130   18.2140 C.3   109  THR109      0.1794
    117  OG1        2.8810   -8.5010   19.1820 O.3   109  THR109     -0.2208
    118  CG2        4.6720   -9.6510   18.0620 C.3   109  THR109      0.0378
    119  N          1.1610  -11.2010   13.2190 N.3   111  ASP111     -0.1225
    120  CA         0.6800  -10.6290   11.9610 C.3   111  ASP111      0.1805
    121  C          1.6480   -9.5490   11.4620 C.2   111  ASP111      0.2597
    122  O          2.0710   -9.5670   10.2940 O.2   111  ASP111     -0.2718
    123  CB        -0.7470  -10.0890   12.1200 C.3   111  ASP111      0.1424
    124  CG        -1.3050   -9.4940   10.8270 C.2   111  ASP111      0.3668
    125  OD1       -1.4280  -10.2170    9.8180 O.co2 111  ASP111     -0.2456
    126  OD2       -1.6430   -8.2940   10.8210 O.co2 111  ASP111     -0.2456
    127  N          2.0230   -8.6460   12.3640 N.am  112  GLU112     -0.1979
    128  CA         2.9260   -7.5460   12.0300 C.3   112  GLU112      0.1602
    129  C          4.2440   -8.0610   11.4930 C.2   112  GLU112      0.2287
    130  O          4.7840   -7.5000   10.5450 O.2   112  GLU112     -0.2864
    131  CB         3.1780   -6.6460   13.2430 C.3   112  GLU112      0.0415
    132  CG         2.0130   -5.7380   13.5620 C.3   112  GLU112      0.1163
    133  CD         2.1110   -5.1110   14.9300 C.2   112  GLU112      0.3649
    134  OE1        3.0440   -5.4570   15.7080 O.co2 112  GLU112     -0.2457
    135  OE2        1.2500   -4.2640   15.2410 O.co2 112  GLU112     -0.2457
@<TRIPOS>BOND
     1    65    67   ar
     2    65    64   ar
     3    63    64    1
     4    63    60    1
     5    67    68   ar
     6    64    66   ar
     7    68    66   ar
     8    68    70   ar
     9    66    69   ar
    10    70    72   ar
    11    69    71   ar
    12    72    71   ar
    13    62    61    2
    14    61    60    1
    15    60    59    1
    16    86    87    2
    17    86    85    1
    18    59    53   am
    19    91    90    1
    20    91    92    1
    21    88    85    1
    22    88    89    1
    23    85    84    1
    24    73    74    1
    25    90    89    1
    26    53    54    2
    27    53    52    1
    28    84    75   am
    29    51    52    1
    30   125   124   ar
    31    75    76    2
    32    75    74    1
    33   122   121    2
    34    52    55    1
    35    74    77    1
    36    55    56    1
    37   130   129    2
    38   126   124   ar
    39   124   123    1
    40   121   120    1
    41   121   127   am
    42    56    57    1
    43   129   128    1
    44    77    78    1
    45   120   123    1
    46   120   119    1
    47   128   127    1
    48   128   131    1
    49    78    79    1
    50    57    58    1
    51   131   132    1
    52   132   133    1
    53    79    80    1
    54   115   114    2
    55   111   110    2
    56   133   135   ar
    57   133   134   ar
    58    80    81    2
    59   104   103    2
    60   107   105    1
    61   114   113    1
    62    82    81    1
    63   110   109    1
    64   110   112   am
    65    81    83    1
    66   109   108    1
    67   103   108   am
    68   103   102    1
    69   113   112    1
    70   113   116    1
    71    40    39    1
    72   105   102    1
    73   105   106    1
    74   102   101    1
    75    39    38    1
    76    39    41    1
    77    34    35    1
    78    23    22    1
    79    23    24    1
    80    38    35    1
    81   118   116    1
    82   116   117    1
    83   100    99    2
    84    25    24    2
    85    35    36    1
    86   101    99   am
    87    99    98    1
    88    36    37    2
    89     1     2    1
    90    49    48   ar
    91    50    48   ar
    92    48    47    1
    93    98    97    1
    94     4     3    2
    95    96    95    2
    96     2     3    1
    97     2     5    1
    98    32    33    1
    99    32    31    1
   100    97    95   am
   101    95    94    1
   102    47    46    1
   103     3     7   am
   104    94    93    1
   105    46    43    1
   106     6     5    1
   107    31    30    1
   108     7     8    1
   109    16    13    1
   110    42    43    1
   111     8     9    1
   112     8    11    1
   113    43    44    1
   114    12     9   am
   115    12    13    1
   116    30    27    1
   117     9    10    2
   118    13    14    1
   119    44    45    2
   120    27    28    1
   121    27    26    1
   122    29    28    2
   123    14    17   am
   124    14    15    2
   125    17    18    1
   126    21    18    1
   127    18    19    1
   128    20    19    2
