@<TRIPOS>MOLECULE
tmp/3sbzA01.pdb
 84 81 0 0 0
SMALL
GASTEIGER

@<TRIPOS>ATOM
      1  N        -34.4380   31.9500   -4.9480 N.3   117  GLN117     -0.1245
      2  CA       -34.8300   33.2670   -4.4210 C.3   117  GLN117      0.1566
      3  C        -33.7960   33.7890   -3.4260 C.2   117  GLN117      0.2260
      4  O        -33.5430   34.9950   -3.3510 O.2   117  GLN117     -0.2867
      5  CB       -36.1990   33.2130   -3.7510 C.3   117  GLN117      0.0367
      6  CG       -37.3300   32.7720   -4.6720 C.3   117  GLN117      0.0905
      7  CD       -37.6000   31.2760   -4.5920 C.2   117  GLN117      0.2608
      8  OE1      -36.6830   30.4700   -4.4360 O.2   117  GLN117     -0.2717
      9  NE2      -38.8640   30.9040   -4.6880 N.am  117  GLN117     -0.0878
     10  N        -41.7980   35.7360   -2.6280 N.3   147  VAL147     -0.1231
     11  CA       -41.5350   36.1030   -4.0060 C.3   147  VAL147      0.1692
     12  C        -40.4720   37.2090   -4.0630 C.2   147  VAL147      0.2592
     13  O        -40.4260   38.0990   -3.2030 O.2   147  VAL147     -0.2718
     14  CB       -42.8400   36.5500   -4.7070 C.3   147  VAL147      0.0266
     15  CG1      -43.5000   37.6940   -3.9500 C.3   147  VAL147      0.0020
     16  CG2      -42.5770   36.9440   -6.1430 C.3   147  VAL147      0.0020
     17  N        -39.6020   37.1330   -5.0600 N.am  148  CYS148     -0.1970
     18  CA       -38.5810   38.1650   -5.2560 C.3   148  CYS148      0.1712
     19  C        -39.1320   39.2900   -6.1030 C.2   148  CYS148      0.2296
     20  O        -39.8870   39.0540   -7.0470 O.2   148  CYS148     -0.2864
     21  CB       -37.3450   37.5930   -5.9430 C.3   148  CYS148      0.0983
     22  SG       -36.3010   36.5870   -4.8870 S.3   148  CYS148     -0.0798
     23  N        -42.1670   42.2320  -10.5080 N.3   155  GLY155     -0.1225
     24  CA       -42.1880   40.7900  -10.6570 C.3   155  GLY155      0.1811
     25  C        -42.1010   40.3270  -12.1070 C.2   155  GLY155      0.2280
     26  O        -42.3100   39.1500  -12.3900 O.2   155  GLY155     -0.2866
     27  N        -39.8940   39.3640  -14.2610 N.3   157  PHE157     -0.1227
     28  CA       -38.5700   38.8130  -14.5070 C.3   157  PHE157      0.1736
     29  C        -38.5670   37.3910  -13.9540 C.2   157  PHE157      0.2595
     30  O        -39.5260   36.9660  -13.3110 O.2   157  PHE157     -0.2718
     31  CB       -37.4840   39.6350  -13.8020 C.3   157  PHE157      0.0547
     32  CG       -37.3730   39.3560  -12.3170 C.ar  157  PHE157     -0.0202
     33  CD1      -38.3390   39.8230  -11.4370 C.ar  157  PHE157     -0.0042
     34  CD2      -36.2930   38.6360  -11.8040 C.ar  157  PHE157     -0.0042
     35  CE1      -38.2380   39.5680  -10.0760 C.ar  157  PHE157     -0.0003
     36  CE2      -36.1800   38.3860  -10.4420 C.ar  157  PHE157     -0.0003
     37  CZ       -37.1650   38.8510   -9.5770 C.ar  157  PHE157     -0.0000
     38  N        -37.4980   36.6560  -14.1930 N.am  158  ALA158     -0.1966
     39  CA       -37.3940   35.3120  -13.6340 C.3   158  ALA158      0.1728
     40  C        -35.9480   35.0000  -13.2930 C.2   158  ALA158      0.2616
     41  O        -35.0420   35.4570  -13.9710 O.2   158  ALA158     -0.2715
     42  CB       -37.9580   34.2760  -14.6200 C.3   158  ALA158      0.0334
     43  N        -35.7230   34.2320  -12.2350 N.am  159  ILE159     -0.1977
     44  CA       -34.3820   33.7430  -11.9340 C.3   159  ILE159      0.1596
     45  C        -34.1290   32.5220  -12.8240 C.2   159  ILE159      0.2287
     46  O        -34.9690   31.6230  -12.8930 O.2   159  ILE159     -0.2864
     47  CB       -34.2620   33.3480  -10.4490 C.3   159  ILE159      0.0276
     48  CG1      -34.5900   34.5430   -9.5560 C.3   159  ILE159      0.0022
     49  CG2      -32.8610   32.8150  -10.1500 C.3   159  ILE159      0.0022
     50  CD1      -34.9150   34.1680   -8.1190 C.3   159  ILE159      0.0001
     51  N        -49.7840   37.3030   -4.9670 N.3   195  PHE195     -0.1241
     52  CA       -48.9770   36.1620   -5.3860 C.3   195  PHE195      0.1605
     53  C        -49.6330   34.8210   -5.0440 C.2   195  PHE195      0.2264
     54  O        -49.6550   33.9000   -5.8660 O.2   195  PHE195     -0.2867
     55  CB       -47.5930   36.2510   -4.7280 C.3   195  PHE195      0.0534
     56  CG       -46.5880   35.2660   -5.2750 C.ar  195  PHE195     -0.0203
     57  CD1      -46.2200   35.2950   -6.6160 C.ar  195  PHE195     -0.0042
     58  CD2      -46.0070   34.3130   -4.4460 C.ar  195  PHE195     -0.0042
     59  CE1      -45.2900   34.3800   -7.1210 C.ar  195  PHE195     -0.0003
     60  CE2      -45.0810   33.4120   -4.9390 C.ar  195  PHE195     -0.0003
     61  CZ       -44.7190   33.4500   -6.2810 C.ar  195  PHE195     -0.0000
     62  N        -49.6490   41.2780   -8.8030 N.3   204  TYR204     -0.1227
     63  CA       -48.6030   41.2160   -7.7750 C.3   204  TYR204      0.1736
     64  C        -47.2670   41.6770   -8.3640 C.2   204  TYR204      0.2595
     65  O        -46.3800   42.1470   -7.6370 O.2   204  TYR204     -0.2718
     66  CB       -48.4590   39.8010   -7.1920 C.3   204  TYR204      0.0548
     67  CG       -47.6070   38.8840   -8.0420 C.ar  204  TYR204     -0.0200
     68  CD1      -46.2160   38.8930   -7.9310 C.ar  204  TYR204     -0.0009
     69  CD2      -48.1890   38.0150   -8.9670 C.ar  204  TYR204     -0.0009
     70  CE1      -45.4290   38.0600   -8.7160 C.ar  204  TYR204      0.0417
     71  CE2      -47.4080   37.1770   -9.7550 C.ar  204  TYR204      0.0417
     72  CZ       -46.0360   37.2020   -9.6260 C.ar  204  TYR204      0.1957
     73  OH       -45.2570   36.3840  -10.4130 O.3   204  TYR204     -0.2866
     74  N        -47.1220   41.5560   -9.6830 N.am  205  ARG205     -0.1980
     75  CA       -45.8520   41.8910  -10.3240 C.3   205  ARG205      0.1597
     76  C        -45.6570   43.4070  -10.4130 C.2   205  ARG205      0.2287
     77  O        -44.5690   43.8750  -10.7340 O.2   205  ARG205     -0.2864
     78  CB       -45.7790   41.2830  -11.7270 C.3   205  ARG205      0.0334
     79  CG       -45.7720   39.7310  -11.7410 C.3   205  ARG205      0.0492
     80  CD       -45.7890   39.2480  -13.1710 C.3   205  ARG205      0.2205
     81  NE       -46.0830   37.8160  -13.3260 N.pl3 205  ARG205     -0.0865
     82  CZ       -45.2060   36.8750  -13.6560 C.cat 205  ARG205      0.5346
     83  NH1      -43.9250   37.1600  -13.8340 N.pl3 205  ARG205      0.1354
     84  NH2      -45.6220   35.6150  -13.8150 N.pl3 205  ARG205      0.1354
@<TRIPOS>BOND
     1    42    39    1
     2    28    27    1
     3    28    29    1
     4    28    31    1
     5    38    29   am
     6    38    39    1
     7    41    40    2
     8    29    30    2
     9    83    82    1
    10    84    82    1
    11    31    32    1
    12    82    81    2
    13    39    40    1
    14    81    80    1
    15    40    43   am
    16    80    79    1
    17    46    45    2
    18    45    44    1
    19    26    25    2
    20    32    34   ar
    21    32    33   ar
    22    43    44    1
    23    25    24    1
    24    44    47    1
    25    34    36   ar
    26    79    78    1
    27    78    75    1
    28    33    35   ar
    29    77    76    2
    30    24    23    1
    31    47    49    1
    32    47    48    1
    33    36    37   ar
    34    73    72    1
    35    76    75    1
    36    75    74    1
    37    35    37   ar
    38    71    72   ar
    39    71    69   ar
    40    74    64   am
    41    72    70   ar
    42    48    50    1
    43    69    67   ar
    44    62    63    1
    45    70    68   ar
    46    64    63    1
    47    64    65    2
    48    67    68   ar
    49    67    66    1
    50    63    66    1
    51    59    57   ar
    52    59    61   ar
    53    20    19    2
    54    57    56   ar
    55    61    60   ar
    56    16    14    1
    57    19    18    1
    58    21    18    1
    59    21    22    1
    60    54    53    2
    61    52    53    1
    62    52    51    1
    63    52    55    1
    64    56    55    1
    65    56    58   ar
    66    18    17    1
    67    17    12   am
    68     1     2    1
    69    60    58   ar
    70    14    11    1
    71    14    15    1
    72     9     7   am
    73     6     7    1
    74     6     5    1
    75     7     8    2
    76     2     5    1
    77     2     3    1
    78    12    11    1
    79    12    13    2
    80    11    10    1
    81     3     4    2
