@<TRIPOS>MOLECULE
tmp/3sc1A00.pdb
 127 117 0 0 0
SMALL
GASTEIGER

@<TRIPOS>ATOM
      1  N         34.6420   25.8450   35.1030 N.3    16  LEU16      -0.1231
      2  CA        34.3750   25.2290   33.8040 C.3    16  LEU16       0.1693
      3  C         35.6650   24.8620   33.0770 C.2    16  LEU16       0.2593
      4  O         35.7020   23.9050   32.3140 O.2    16  LEU16      -0.2718
      5  CB        33.5470   26.1730   32.9300 C.3    16  LEU16       0.0284
      6  CG        32.2120   26.6590   33.4980 C.3    16  LEU16       0.0019
      7  CD1       31.6920   27.8010   32.6500 C.3    16  LEU16       0.0001
      8  CD2       31.2150   25.5250   33.5380 C.3    16  LEU16       0.0001
      9  N         36.7240   25.6250   33.3080 N.am   17  GLY17      -0.1942
     10  CA        37.9860   25.3230   32.6610 C.3    17  GLY17       0.2014
     11  C         39.1350   26.1830   33.1570 C.2    17  GLY17       0.2639
     12  O         38.9280   27.2880   33.6660 O.2    17  GLY17      -0.2714
     13  N         40.3540   25.6680   33.0090 N.am   18  GLU18      -0.1963
     14  CA        41.5490   26.4060   33.3780 C.3    18  GLU18       0.1733
     15  C         42.5030   26.5720   32.2000 C.2    18  GLU18       0.2616
     16  O         42.9820   25.5970   31.6300 O.2    18  GLU18      -0.2715
     17  CB        42.2540   25.7050   34.5390 C.3    18  GLU18       0.0429
     18  CG        41.8080   26.2050   35.9030 C.3    18  GLU18       0.1163
     19  CD        41.6010   25.0900   36.9090 C.2    18  GLU18       0.3649
     20  OE1       41.2830   23.9560   36.4920 O.co2  18  GLU18      -0.2457
     21  OE2       41.7520   25.3450   38.1230 O.co2  18  GLU18      -0.2457
     22  N         42.7580   27.8220   31.8290 N.am   19  GLY19      -0.1955
     23  CA        43.7780   28.1080   30.8380 C.3    19  GLY19       0.1869
     24  C         45.0740   28.4360   31.5490 C.2    19  GLY19       0.2309
     25  O         45.2130   28.1770   32.7460 O.2    19  GLY19      -0.2863
     26  N         44.1300   32.3330   32.5530 N.3    22  SER22      -0.1217
     27  CA        42.7440   32.5370   32.9280 C.3    22  SER22       0.1889
     28  C         42.1500   31.2740   33.5350 C.2    22  SER22       0.2288
     29  O         42.6100   30.1610   33.2700 O.2    22  SER22      -0.2866
     30  CB        41.9260   32.9750   31.7050 C.3    22  SER22       0.2089
     31  OG        41.9990   32.0170   30.6620 O.3    22  SER22      -0.2183
     32  N         38.0650   29.8720   33.8400 N.3    24  VAL24      -0.1245
     33  CA        36.6650   30.1510   33.5440 C.3    24  VAL24       0.1561
     34  C         35.7270   29.5190   34.5680 C.2    24  VAL24       0.2260
     35  O         35.7410   28.3070   34.7760 O.2    24  VAL24      -0.2867
     36  CB        36.2910   29.6700   32.1380 C.3    24  VAL24       0.0252
     37  CG1       34.8090   29.9370   31.8670 C.3    24  VAL24       0.0019
     38  CG2       37.1520   30.3920   31.1210 C.3    24  VAL24       0.0019
     39  N         29.4970   32.1260   31.6840 N.3    37  ALA37      -0.1245
     40  CA        30.8270   31.5780   31.9240 C.3    37  ALA37       0.1562
     41  C         31.7680   32.7710   32.0630 C.2    37  ALA37       0.2260
     42  O         31.9770   33.5150   31.1000 O.2    37  ALA37      -0.2867
     43  CB        31.2550   30.6940   30.7460 C.3    37  ALA37       0.0290
     44  N         35.3230   34.4050   32.5100 N.3    39  LYS39      -0.1245
     45  CA        36.7500   34.1590   32.3640 C.3    39  LYS39       0.1561
     46  C         37.4790   35.1430   33.2520 C.2    39  LYS39       0.2260
     47  O         37.3730   36.3540   33.0520 O.2    39  LYS39      -0.2867
     48  CB        37.1860   34.3640   30.9100 C.3    39  LYS39       0.0271
     49  CG        38.6220   33.9520   30.6430 C.3    39  LYS39       0.0035
     50  CD        39.1560   34.5790   29.3710 C.3    39  LYS39       0.0206
     51  CE        40.1390   33.6460   28.6440 C.3    39  LYS39       0.1093
     52  NZ        39.4590   32.5440   27.8850 N.3    39  LYS39      -0.1314
     53  N         31.1720   32.2730   20.7380 N.3    71  VAL71      -0.1245
     54  CA        30.9610   32.7200   22.1050 C.3    71  VAL71       0.1561
     55  C         30.7460   34.2230   22.0590 C.2    71  VAL71       0.2260
     56  O         31.4490   34.9330   21.3410 O.2    71  VAL71      -0.2867
     57  CB        32.1930   32.4310   23.0000 C.3    71  VAL71       0.0252
     58  CG1       33.3690   33.3170   22.5770 C.3    71  VAL71       0.0019
     59  CG2       31.8440   32.6830   24.4510 C.3    71  VAL71       0.0019
     60  N         31.0490   35.6460   29.4730 N.3    87  LEU87      -0.1231
     61  CA        30.9190   34.9120   28.2130 C.3    87  LEU87       0.1693
     62  C         29.7260   33.9600   28.2080 C.2    87  LEU87       0.2593
     63  O         29.2530   33.5460   29.2740 O.2    87  LEU87      -0.2718
     64  CB        32.1920   34.1170   27.9440 C.3    87  LEU87       0.0284
     65  CG        33.4920   34.9150   27.9450 C.3    87  LEU87       0.0019
     66  CD1       34.6680   33.9530   27.8870 C.3    87  LEU87       0.0001
     67  CD2       33.5050   35.8720   26.7660 C.3    87  LEU87       0.0001
     68  N         29.2500   33.6220   27.0070 N.am   88  SER88      -0.1938
     69  CA        28.2280   32.5820   26.8170 C.3    88  SER88       0.2055
     70  C         28.6320   31.2930   27.5250 C.2    88  SER88       0.2643
     71  O         29.7500   30.8170   27.3580 O.2    88  SER88      -0.2714
     72  CB        28.0570   32.2610   25.3320 C.3    88  SER88       0.2130
     73  OG        27.6760   33.4040   24.6000 O.3    88  SER88      -0.2179
     74  N         27.7250   30.7150   28.3000 N.am   89  TYR89      -0.1959
     75  CA        27.9780   29.4040   28.8870 C.3    89  TYR89       0.1771
     76  C         27.5690   28.3070   27.8900 C.2    89  TYR89       0.2619
     77  O         26.3990   28.1760   27.5190 O.2    89  TYR89      -0.2715
     78  CB        27.2050   29.2800   30.2120 C.3    89  TYR89       0.0574
     79  CG        27.1710   27.8930   30.8280 C.ar   89  TYR89      -0.0198
     80  CD1       28.2620   27.0410   30.7400 C.ar   89  TYR89      -0.0009
     81  CD2       26.0380   27.4430   31.5120 C.ar   89  TYR89      -0.0009
     82  CE1       28.2300   25.7820   31.3080 C.ar   89  TYR89       0.0417
     83  CE2       25.9970   26.1870   32.0870 C.ar   89  TYR89       0.0417
     84  CZ        27.0980   25.3570   31.9800 C.ar   89  TYR89       0.1957
     85  OH        27.0630   24.0910   32.5260 O.3    89  TYR89      -0.2866
     86  N         28.5500   27.5350   27.4360 N.am   90  ALA90      -0.1977
     87  CA        28.2780   26.4350   26.5210 C.3    90  ALA90       0.1597
     88  C         27.9120   25.2070   27.3470 C.2    90  ALA90       0.2287
     89  O         28.7840   24.5130   27.8660 O.2    90  ALA90      -0.2864
     90  CB        29.5040   26.1590   25.6560 C.3    90  ALA90       0.0319
     91  N         29.5370   21.5900   26.6830 N.3    93  GLY93      -0.1210
     92  CA        30.9750   21.3900   26.7540 C.3    93  GLY93       0.1956
     93  C         31.6900   21.1970   25.4270 C.2    93  GLY93       0.2611
     94  O         31.2090   21.6360   24.3810 O.2    93  GLY93      -0.2717
     95  N         32.8400   20.5270   25.4730 N.am   94  GLU94      -0.1979
     96  CA        33.7020   20.3760   24.3050 C.3    94  GLU94       0.1602
     97  C         33.2050   19.3410   23.3150 C.2    94  GLU94       0.2287
     98  O         32.6700   18.3060   23.6910 O.2    94  GLU94      -0.2864
     99  CB        35.1180   19.9940   24.7330 C.3    94  GLU94       0.0415
    100  CG        35.8170   21.0490   25.5680 C.3    94  GLU94       0.1163
    101  CD        37.1890   20.6100   26.0380 C.2    94  GLU94       0.3649
    102  OE1       37.8490   19.8340   25.3120 O.co2  94  GLU94      -0.2457
    103  OE2       37.6130   21.0400   27.1340 O.co2  94  GLU94      -0.2457
    104  N         38.7090   21.0820   21.3860 N.3   137  GLU137     -0.1245
    105  CA        38.6450   21.6470   22.7350 C.3   137  GLU137      0.1567
    106  C         38.1620   23.0970   22.7020 C.2   137  GLU137      0.2260
    107  O         37.5700   23.5840   23.6600 O.2   137  GLU137     -0.2867
    108  CB        40.0260   21.5900   23.3950 C.3   137  GLU137      0.0388
    109  CG        40.6550   20.1960   23.4500 C.3   137  GLU137      0.1160
    110  CD        41.1860   19.7040   22.0960 C.2   137  GLU137      0.3649
    111  OE1       40.9880   20.3810   21.0580 O.co2 137  GLU137     -0.2457
    112  OE2       41.8100   18.6240   22.0710 O.co2 137  GLU137     -0.2457
    113  N         32.9370   24.5170   21.3410 N.3   140  LEU140     -0.1245
    114  CA        32.0050   24.1100   22.3770 C.3   140  LEU140      0.1561
    115  C         30.5980   23.8580   21.8350 C.2   140  LEU140      0.2260
    116  O         30.2430   24.2970   20.7390 O.2   140  LEU140     -0.2867
    117  CB        31.9710   25.1660   23.4780 C.3   140  LEU140      0.0270
    118  CG        33.3540   25.6020   23.9670 C.3   140  LEU140      0.0019
    119  CD1       33.1790   26.4510   25.1980 C.3   140  LEU140      0.0001
    120  CD2       34.2200   24.3910   24.2690 C.3   140  LEU140      0.0001
    121  N         35.3090   29.2160   20.8000 N.3   150  THR150     -0.1218
    122  CA        35.8160   30.0760   21.8410 C.3   150  THR150      0.1862
    123  C         37.3330   30.2100   21.7650 C.2   150  THR150      0.2287
    124  O         37.9760   29.5750   20.9250 O.2   150  THR150     -0.2866
    125  CB        35.4320   29.5250   23.2000 C.3   150  THR150      0.1770
    126  OG1       35.8010   30.4730   24.2090 O.3   150  THR150     -0.2211
    127  CG2       36.1350   28.1990   23.4460 C.3   150  THR150      0.0375
@<TRIPOS>BOND
     1    53    54    1
     2   116   115    2
     3   121   122    1
     4   124   123    2
     5   111   110   ar
     6    56    55    2
     7   113   114    1
     8   104   105    1
     9   123   122    1
    10   115   114    1
    11   122   125    1
    12    55    54    1
    13   112   110   ar
    14   110   109    1
    15    54    57    1
    16   114   117    1
    17    58    57    1
    18   106   105    1
    19   106   107    2
    20   105   108    1
    21    57    59    1
    22   125   127    1
    23   125   126    1
    24    97    98    2
    25    97    96    1
    26   108   109    1
    27   117   118    1
    28   118   120    1
    29   118   119    1
    30    96    99    1
    31    96    95    1
    32    94    93    2
    33    73    72    1
    34    99   100    1
    35   102   101   ar
    36    72    69    1
    37    93    95   am
    38    93    92    1
    39   100   101    1
    40    90    87    1
    41   101   103   ar
    42    87    88    1
    43    87    86    1
    44    91    92    1
    45    67    65    1
    46    69    68    1
    47    69    70    1
    48    68    62   am
    49    88    89    2
    50    71    70    2
    51    86    76   am
    52    77    76    2
    53    70    74   am
    54    52    51    1
    55    66    65    1
    56    76    75    1
    57    64    65    1
    58    64    61    1
    59    62    61    1
    60    62    63    2
    61    61    60    1
    62    74    75    1
    63    51    50    1
    64    75    78    1
    65    50    49    1
    66    78    79    1
    67    49    48    1
    68    31    30    1
    69    80    79   ar
    70    80    82   ar
    71    43    40    1
    72    79    81   ar
    73    23    24    1
    74    23    22    1
    75    48    45    1
    76    42    41    2
    77    38    36    1
    78    82    84   ar
    79    81    83   ar
    80    24    25    2
    81    16    15    2
    82    39    40    1
    83    30    27    1
    84    22    15   am
    85    37    36    1
    86    40    41    1
    87    84    83   ar
    88    84    85    1
    89    36    33    1
    90    15    14    1
    91     4     3    2
    92    45    44    1
    93    45    46    1
    94    26    27    1
    95     7     6    1
    96    10    11    1
    97    10     9    1
    98    27    28    1
    99     5     6    1
   100     5     2    1
   101    13    11   am
   102    13    14    1
   103    47    46    2
   104     3     9   am
   105     3     2    1
   106    11    12    2
   107    29    28    2
   108    14    17    1
   109     6     8    1
   110    33    32    1
   111    33    34    1
   112     2     1    1
   113    17    18    1
   114    34    35    2
   115    18    19    1
   116    20    19   ar
   117    19    21   ar
