@<TRIPOS>MOLECULE
tmp/3sc2B00.pdb
 89 86 0 0 0
SMALL
GASTEIGER

@<TRIPOS>ATOM
      1  N         58.0660   49.4630   82.0990 N.3    15  ASN15      -0.1240
      2  CA        58.7360   50.3930   82.9690 C.3    15  ASN15       0.1653
      3  C         57.7760   51.4230   83.6090 C.2    15  ASN15       0.2266
      4  O         58.1450   52.1080   84.5480 O.2    15  ASN15      -0.2867
      5  CB        59.9930   51.0030   82.3730 C.3    15  ASN15       0.1155
      6  CG        61.1940   50.0960   82.4750 C.2    15  ASN15       0.2627
      7  OD1       61.7610   49.8740   83.5600 O.2    15  ASN15      -0.2716
      8  ND2       61.6250   49.6200   81.3050 N.am   15  ASN15      -0.0877
      9  N         54.8560   52.4660   86.2890 N.3    17  ARG17      -0.1245
     10  CA        54.4060   51.9320   87.6170 C.3    17  ARG17       0.1563
     11  C         52.9370   51.5020   87.6310 C.2    17  ARG17       0.2260
     12  O         52.4950   50.5910   88.3350 O.2    17  ARG17      -0.2867
     13  CB        54.6970   52.8140   88.8100 C.3    17  ARG17       0.0307
     14  CG        56.0980   53.4280   88.7710 C.3    17  ARG17       0.0489
     15  CD        56.0850   54.9550   88.8540 C.3    17  ARG17       0.2205
     16  NE        57.4310   55.5450   88.8190 N.pl3  17  ARG17      -0.0865
     17  CZ        57.8000   56.5210   87.9780 C.cat  17  ARG17       0.5346
     18  NH1       57.3640   56.5420   86.7110 N.pl3  17  ARG17       0.1354
     19  NH2       58.6120   57.5320   88.3140 N.pl3  17  ARG17       0.1354
     20  N         53.2190   48.0850   86.3210 N.3    20  GLN20      -0.1245
     21  CA        53.7210   47.1660   87.3220 C.3    20  GLN20       0.1566
     22  C         52.7600   46.9410   88.4820 C.2    20  GLN20       0.2260
     23  O         52.6790   45.8360   89.0600 O.2    20  GLN20      -0.2867
     24  CB        55.0730   47.5650   87.8230 C.3    20  GLN20       0.0367
     25  CG        55.8300   48.2860   86.7360 C.3    20  GLN20       0.0905
     26  CD        57.3080   48.3780   87.0470 C.2    20  GLN20       0.2608
     27  OE1       57.7330   48.2260   88.2070 O.2    20  GLN20      -0.2717
     28  NE2       58.0990   48.5840   86.0040 N.am   20  GLN20      -0.0878
     29  N         57.1260   44.0320   91.2410 N.3    26  ASN26      -0.1240
     30  CA        58.0010   44.9790   91.9510 C.3    26  ASN26       0.1653
     31  C         57.1490   45.8090   92.8920 C.2    26  ASN26       0.2266
     32  O         57.2100   47.0470   92.8850 O.2    26  ASN26      -0.2867
     33  CB        58.7070   45.8900   90.9160 C.3    26  ASN26       0.1155
     34  CG        59.7700   46.8270   91.4730 C.2    26  ASN26       0.2627
     35  OD1       60.4130   46.5060   92.4730 O.2    26  ASN26      -0.2716
     36  ND2       59.9960   47.9800   90.8730 N.am   26  ASN26      -0.0877
     37  N         58.6730   47.8490   95.1410 N.3    29  GLY29      -0.1225
     38  CA        59.4560   48.8350   94.3440 C.3    29  GLY29       0.1811
     39  C         60.9520   48.5880   94.5100 C.2    29  GLY29       0.2280
     40  O         61.7830   49.3820   94.0420 O.2    29  GLY29      -0.2866
     41  N         62.8750   46.4670   93.1510 N.3    31  MET31      -0.1230
     42  CA        63.7330   46.0210   92.0560 C.3    31  MET31       0.1702
     43  C         64.6140   47.1620   91.6390 C.2    31  MET31       0.2592
     44  O         64.1780   48.0920   90.9490 O.2    31  MET31      -0.2718
     45  CB        63.0020   45.3390   90.9100 C.3    31  MET31       0.0401
     46  CG        62.2140   44.1660   91.4630 C.3    31  MET31       0.0596
     47  SD        61.5320   43.1060   90.1810 S.3    31  MET31      -0.1393
     48  CE        63.0050   42.1750   89.6610 C.3    31  MET31       0.0692
     49  N         65.8140   47.1030   92.2150 N.am   32  ASN32      -0.1960
     50  CA        66.8320   48.1160   92.1020 C.3    32  ASN32       0.1819
     51  C         67.5690   48.1870   90.7970 C.2    32  ASN32       0.2621
     52  O         68.8120   48.1220   90.7440 O.2    32  ASN32      -0.2715
     53  CB        67.7950   48.1560   93.2900 C.3    32  ASN32       0.1195
     54  CG        68.2090   49.6090   93.4360 C.2    32  ASN32       0.2630
     55  OD1       67.6280   50.4760   92.7150 O.2    32  ASN32      -0.2716
     56  ND2       69.2000   49.8830   94.3170 N.am   32  ASN32      -0.0877
     57  N         66.7420   48.3390   89.7700 N.am   33  TYR33      -0.1960
     58  CA        67.1660   48.4170   88.4080 C.3    33  TYR33       0.1771
     59  C         65.9870   48.5750   87.4890 C.2    33  TYR33       0.2620
     60  O         64.8620   48.2640   87.8570 O.2    33  TYR33      -0.2715
     61  CB        68.0320   47.2330   88.0150 C.3    33  TYR33       0.0574
     62  CG        67.4090   45.8740   88.2620 C.ar   33  TYR33      -0.0198
     63  CD1       66.6190   45.2500   87.2970 C.ar   33  TYR33      -0.0009
     64  CD2       67.7230   45.1660   89.4240 C.ar   33  TYR33      -0.0009
     65  CE1       66.0780   43.9760   87.5000 C.ar   33  TYR33       0.0417
     66  CE2       67.2150   43.8830   89.6360 C.ar   33  TYR33       0.0417
     67  CZ        66.4020   43.2890   88.6690 C.ar   33  TYR33       0.1957
     68  OH        65.9110   42.0300   88.8730 O.3    33  TYR33      -0.2866
     69  N         66.2660   49.1010   86.3050 N.am   34  THR34      -0.1937
     70  CA        65.2490   49.3020   85.3180 C.3    34  THR34       0.2028
     71  C         64.8600   47.9440   84.7530 C.2    34  THR34       0.2642
     72  O         65.6810   47.0210   84.7350 O.2    34  THR34      -0.2714
     73  CB        65.8550   50.1620   84.1990 C.3    34  THR34       0.1808
     74  OG1       66.7730   51.0130   84.8350 O.3    34  THR34      -0.2208
     75  CG2       64.7940   51.0100   83.5240 C.3    34  THR34       0.0379
     76  N         63.6280   47.8540   84.2550 N.am   35  TRP35      -0.1973
     77  CA        63.1610   46.6450   83.6130 C.3    35  TRP35       0.1640
     78  C         63.7960   46.5060   82.2330 C.2    35  TRP35       0.2290
     79  O         63.7940   47.4750   81.4800 O.2    35  TRP35      -0.2864
     80  CB        61.6570   46.7400   83.3790 C.3    35  TRP35       0.0576
     81  CG        61.0860   45.4740   82.8410 C.ar   35  TRP35       0.0006
     82  CD1       60.7540   44.3960   83.5970 C.ar   35  TRP35       0.0946
     83  CD2       60.8520   45.1300   81.4640 C.ar   35  TRP35       0.0152
     84  NE1       60.2600   43.4050   82.8030 N.ar   35  TRP35      -0.2442
     85  CE2       60.3010   43.8160   81.4880 C.ar   35  TRP35       0.0810
     86  CE3       61.0350   45.8090   80.2340 C.ar   35  TRP35       0.0012
     87  CZ2       59.8880   43.1740   80.3240 C.ar   35  TRP35       0.0191
     88  CZ3       60.6790   45.1480   79.0900 C.ar   35  TRP35       0.0001
     89  CH2       60.1270   43.8490   79.1350 C.ar   35  TRP35       0.0015
@<TRIPOS>BOND
     1    88    89   ar
     2    88    86   ar
     3    89    87   ar
     4    86    83   ar
     5    87    85   ar
     6     8     6   am
     7    83    85   ar
     8    83    81   ar
     9    79    78    2
    10    85    84   ar
    11     1     2    1
    12    78    77    1
    13     5     6    1
    14     5     2    1
    15     6     7    2
    16    84    82   ar
    17    81    80    1
    18    81    82   ar
    19     2     3    1
    20    80    77    1
    21    75    73    1
    22     3     4    2
    23    77    76    1
    24    73    74    1
    25    73    70    1
    26    76    71   am
    27    72    71    2
    28    71    70    1
    29    70    69    1
    30    28    26   am
    31     9    10    1
    32    69    59   am
    33    20    21    1
    34    18    17    1
    35    25    26    1
    36    25    24    1
    37    26    27    2
    38    63    65   ar
    39    63    62   ar
    40    21    24    1
    41    21    22    1
    42    59    60    2
    43    59    58    1
    44    65    67   ar
    45    10    11    1
    46    10    13    1
    47    11    12    2
    48    17    19    1
    49    17    16    2
    50    61    62    1
    51    61    58    1
    52    62    64   ar
    53    58    57    1
    54    22    23    2
    55    67    68    1
    56    67    66   ar
    57    14    13    1
    58    14    15    1
    59    16    15    1
    60    64    66   ar
    61    48    47    1
    62    57    51   am
    63    47    46    1
    64    52    51    2
    65    51    50    1
    66    36    34   am
    67    45    46    1
    68    45    42    1
    69    33    34    1
    70    33    30    1
    71    44    43    2
    72    29    30    1
    73    34    35    2
    74    43    42    1
    75    43    49   am
    76    30    31    1
    77    42    41    1
    78    50    49    1
    79    50    53    1
    80    55    54    2
    81    32    31    2
    82    53    54    1
    83    54    56   am
    84    40    39    2
    85    38    39    1
    86    38    37    1
