@<TRIPOS>MOLECULE
tmp/3sc7A01.pdb
 94 89 0 0 0
SMALL
GASTEIGER

@<TRIPOS>ATOM
      1  N         35.2190  -28.1390  -18.0920 N.3   235  GLU235     -0.1245
      2  CA        33.8970  -27.5320  -18.2220 C.3   235  GLU235      0.1567
      3  C         32.8120  -28.5770  -18.1890 C.2   235  GLU235      0.2260
      4  O         33.0430  -29.7150  -18.5840 O.2   235  GLU235     -0.2867
      5  CB        33.7850  -26.7560  -19.5430 C.3   235  GLU235      0.0388
      6  CG        34.8540  -25.6900  -19.7480 C.3   235  GLU235      0.1160
      7  CD        34.7520  -24.5140  -18.7890 C.2   235  GLU235      0.3649
      8  OE1       33.6670  -24.2870  -18.1960 O.co2 235  GLU235     -0.2457
      9  OE2       35.7760  -23.8050  -18.6360 O.co2 235  GLU235     -0.2457
     10  N         29.2680  -26.0710  -12.3310 N.3   240  GLY240     -0.1210
     11  CA        29.8860  -25.2070  -13.3340 C.3   240  GLY240      0.1956
     12  C         31.3900  -25.2870  -13.2780 C.2   240  GLY240      0.2612
     13  O         31.9780  -25.3500  -12.1880 O.2   240  GLY240     -0.2717
     14  N         32.0190  -25.2890  -14.4520 N.am  241  GLY241     -0.1942
     15  CA        33.4680  -25.3660  -14.5400 C.3   241  GLY241      0.2014
     16  C         33.9480  -26.7830  -14.3240 C.2   241  GLY241      0.2638
     17  O         33.2270  -27.7470  -14.6250 O.2   241  GLY241     -0.2714
     18  N         35.1670  -26.9120  -13.8010 N.am  242  ASN242     -0.1972
     19  CA        35.8250  -28.2080  -13.6630 C.3   242  ASN242      0.1688
     20  C         35.0090  -29.1140  -12.7610 C.2   242  ASN242      0.2292
     21  O         34.3770  -28.6540  -11.8160 O.2   242  ASN242     -0.2864
     22  CB        37.2180  -28.0820  -13.0180 C.3   242  ASN242      0.1181
     23  CG        38.1520  -27.1300  -13.7530 C.2   242  ASN242      0.2629
     24  OD1       39.1470  -27.5540  -14.3590 O.2   242  ASN242     -0.2716
     25  ND2       37.8640  -25.8520  -13.6730 N.am  242  ASN242     -0.0877
     26  N         31.1200  -27.1890   -6.0500 N.3   272  ARG272     -0.1245
     27  CA        32.1830  -26.5080   -6.7790 C.3   272  ARG272      0.1563
     28  C         33.5420  -27.1350   -6.5170 C.2   272  ARG272      0.2260
     29  O         34.3710  -27.2170   -7.4230 O.2   272  ARG272     -0.2867
     30  CB        32.2300  -25.0320   -6.3870 C.3   272  ARG272      0.0307
     31  CG        31.3120  -24.1100   -7.2050 C.3   272  ARG272      0.0489
     32  CD        31.8820  -23.7830   -8.5850 C.3   272  ARG272      0.2205
     33  NE        33.1510  -23.0630   -8.4960 N.pl3 272  ARG272     -0.0865
     34  CZ        33.5920  -22.1610   -9.3750 C.cat 272  ARG272      0.5346
     35  NH1       32.8520  -21.8050  -10.4250 N.pl3 272  ARG272      0.1354
     36  NH2       34.7750  -21.5800   -9.1800 N.pl3 272  ARG272      0.1354
     37  N         37.8820  -31.3900   -7.5010 N.3   275  ASP275     -0.1239
     38  CA        38.4610  -31.4750   -8.8450 C.3   275  ASP275      0.1674
     39  C         39.7790  -32.2040   -8.8340 C.2   275  ASP275      0.2266
     40  O         40.5030  -32.1420   -7.8500 O.2   275  ASP275     -0.2867
     41  CB        38.7160  -30.0680   -9.3860 C.3   275  ASP275      0.1410
     42  CG        37.4580  -29.2240   -9.4610 C.2   275  ASP275      0.3668
     43  OD1       36.5070  -29.6550  -10.1320 O.co2 275  ASP275     -0.2456
     44  OD2       37.4650  -28.1070   -8.8880 O.co2 275  ASP275     -0.2456
     45  N         38.1700  -24.4650   -6.0900 N.3   298  SER298     -0.1202
     46  CA        37.8530  -24.1190   -7.4600 C.3   298  SER298      0.2020
     47  C         38.1070  -22.6280   -7.7430 C.2   298  SER298      0.2619
     48  O         37.7350  -22.1510   -8.8250 O.2   298  SER298     -0.2717
     49  CB        36.3780  -24.4410   -7.7400 C.3   298  SER298      0.2103
     50  OG        35.5320  -23.6300   -6.9680 O.3   298  SER298     -0.2182
     51  N         38.7240  -21.9010   -6.7970 N.am  299  TYR299     -0.1961
     52  CA        38.7660  -20.4180   -6.8590 C.3   299  TYR299      0.1771
     53  C         40.1700  -19.8590   -7.0690 C.2   299  TYR299      0.2620
     54  O         40.3940  -18.6680   -6.8500 O.2   299  TYR299     -0.2715
     55  CB        38.1030  -19.7670   -5.6230 C.3   299  TYR299      0.0574
     56  CG        36.8470  -20.4900   -5.1870 C.ar  299  TYR299     -0.0198
     57  CD1       36.8890  -21.4110   -4.1500 C.ar  299  TYR299     -0.0009
     58  CD2       35.6260  -20.2750   -5.8310 C.ar  299  TYR299     -0.0009
     59  CE1       35.7550  -22.1220   -3.7630 C.ar  299  TYR299      0.0417
     60  CE2       34.4850  -20.9670   -5.4500 C.ar  299  TYR299      0.0417
     61  CZ        34.5620  -21.8890   -4.4190 C.ar  299  TYR299      0.1957
     62  OH        33.4390  -22.5920   -4.0560 O.3   299  TYR299     -0.2866
     63  N         41.1020  -20.7140   -7.4890 N.am  300  GLY300     -0.1954
     64  CA        42.4820  -20.2630   -7.7250 C.3   300  GLY300      0.1869
     65  C         43.0770  -19.6060   -6.4930 C.2   300  GLY300      0.2309
     66  O         43.0310  -20.1540   -5.4010 O.2   300  GLY300     -0.2863
     67  N         42.0250  -17.0370   -4.9270 N.3   302  ASN302     -0.1240
     68  CA        41.0190  -16.2250   -4.2130 C.3   302  ASN302      0.1653
     69  C         40.6310  -16.6260   -2.7720 C.2   302  ASN302      0.2266
     70  O         40.2060  -15.7670   -2.0120 O.2   302  ASN302     -0.2867
     71  CB        39.7230  -16.0870   -5.0390 C.3   302  ASN302      0.1155
     72  CG        39.8670  -15.1540   -6.2360 C.2   302  ASN302      0.2627
     73  OD1       39.1150  -15.2760   -7.2100 O.2   302  ASN302     -0.2716
     74  ND2       40.7960  -14.2150   -6.1640 N.am  302  ASN302     -0.0877
     75  N         35.1920  -14.6550   -4.1900 N.3   417  ASP417     -0.1225
     76  CA        34.9940  -15.1290   -5.5620 C.3   417  ASP417      0.1790
     77  C         33.5010  -15.0790   -5.8960 C.2   417  ASP417      0.2440
     78  O         32.6590  -15.3360   -5.0270 O.2   417  ASP417     -0.2733
     79  CB        35.5100  -16.5690   -5.7010 C.3   417  ASP417      0.1423
     80  CG        35.5890  -17.0250   -7.1440 C.2   417  ASP417      0.3668
     81  OD1       34.5690  -17.4680   -7.7160 O.co2 417  ASP417     -0.2456
     82  OD2       36.6850  -16.9310   -7.7140 O.co2 417  ASP417     -0.2456
     83  N         33.1610  -14.7120   -7.1440 N.am  418  PRO418     -0.2718
     84  CA        31.7530  -14.7120   -7.5580 C.3   418  PRO418      0.1535
     85  C         31.0340  -16.0520   -7.3910 C.2   418  PRO418      0.2598
     86  O         29.8010  -16.0790   -7.2850 O.2   418  PRO418     -0.2715
     87  CB        31.8300  -14.3230   -9.0410 C.3   418  PRO418      0.0310
     88  CG        33.0450  -13.4850   -9.1290 C.3   418  PRO418      0.0237
     89  CD        34.0350  -14.1820   -8.2090 C.3   418  PRO418      0.0939
     90  N         31.7880  -17.1470   -7.3610 N.am  419  ALA419     -0.1978
     91  CA        31.1730  -18.4740   -7.2780 C.3   419  ALA419      0.1597
     92  C         31.1760  -19.0610   -5.8510 C.2   419  ALA419      0.2287
     93  O         30.8190  -20.2370   -5.6510 O.2   419  ALA419     -0.2864
     94  CB        31.8350  -19.4220   -8.2680 C.3   419  ALA419      0.0319
@<TRIPOS>BOND
     1     6     5    1
     2     6     7    1
     3     5     2    1
     4     7     9   ar
     5     7     8   ar
     6     4     3    2
     7     2     3    1
     8     2     1    1
     9    17    16    2
    10    15    14    1
    11    15    16    1
    12    14    12   am
    13    24    23    2
    14    16    18   am
    15    18    19    1
    16    23    25   am
    17    23    22    1
    18    19    22    1
    19    19    20    1
    20    11    12    1
    21    11    10    1
    22    12    13    2
    23    20    21    2
    24    35    34    1
    25    43    42   ar
    26    42    41    1
    27    42    44   ar
    28    41    38    1
    29    34    36    1
    30    34    33    2
    31    88    87    1
    32    88    89    1
    33    87    84    1
    34    38    39    1
    35    38    37    1
    36    39    40    2
    37    48    47    2
    38    32    33    1
    39    32    31    1
    40    94    91    1
    41    89    83    1
    42    47    46    1
    43    47    51   am
    44    49    46    1
    45    49    50    1
    46    64    63    1
    47    64    65    1
    48    81    80   ar
    49    82    80   ar
    50    84    85    1
    51    84    83    1
    52    63    53   am
    53    46    45    1
    54    29    28    2
    55    85    90   am
    56    85    86    2
    57    90    91    1
    58    91    92    1
    59    73    72    2
    60    31    30    1
    61    83    77   am
    62    80    79    1
    63    53    52    1
    64    53    54    2
    65    52    51    1
    66    52    55    1
    67    27    28    1
    68    27    30    1
    69    27    26    1
    70    65    66    2
    71    72    74   am
    72    72    71    1
    73    77    76    1
    74    77    78    2
    75    92    93    2
    76    58    60   ar
    77    58    56   ar
    78    79    76    1
    79    55    56    1
    80    76    75    1
    81    60    61   ar
    82    56    57   ar
    83    71    68    1
    84    67    68    1
    85    61    62    1
    86    61    59   ar
    87    68    69    1
    88    57    59   ar
    89    69    70    2
