@<TRIPOS>MOLECULE
tmp/3schA00.pdb
 132 124 0 0 0
SMALL
GASTEIGER

@<TRIPOS>ATOM
      1  N         33.3470   51.2850   24.5690 N.3    91  ARG91      -0.1245
      2  CA        33.0010   50.0310   25.2360 C.3    91  ARG91       0.1563
      3  C         31.4900   49.8100   25.2080 C.2    91  ARG91       0.2260
      4  O         30.7350   50.5770   25.8090 O.2    91  ARG91      -0.2867
      5  CB        33.5030   50.0490   26.6770 C.3    91  ARG91       0.0307
      6  CG        35.0450   49.9010   26.7110 C.3    91  ARG91       0.0489
      7  CD        35.5870   50.0030   28.1000 C.3    91  ARG91       0.2205
      8  NE        37.0620   50.2410   27.9850 N.pl3  91  ARG91      -0.0865
      9  CZ        37.8740   49.1840   27.9400 C.cat  91  ARG91       0.5346
     10  NH1       37.4290   47.9330   28.0220 N.pl3  91  ARG91       0.1354
     11  NH2       39.2080   49.3250   27.9280 N.pl3  91  ARG91       0.1354
     12  N         35.8320   56.5340   26.8650 N.3    97  TYR97      -0.1241
     13  CA        37.0730   57.2240   27.1840 C.3    97  TYR97       0.1605
     14  C         37.6970   57.8730   25.9440 C.2    97  TYR97       0.2264
     15  O         37.5200   57.4010   24.8180 O.2    97  TYR97      -0.2867
     16  CB        38.1030   56.2470   27.7570 C.3    97  TYR97       0.0534
     17  CG        37.6670   55.3720   28.9160 C.ar   97  TYR97      -0.0201
     18  CD1       37.2490   55.9200   30.1310 C.ar   97  TYR97      -0.0009
     19  CD2       37.7650   53.9830   28.8240 C.ar   97  TYR97      -0.0009
     20  CE1       36.9500   55.0980   31.2300 C.ar   97  TYR97       0.0417
     21  CE2       37.4710   53.1580   29.9080 C.ar   97  TYR97       0.0417
     22  CZ        37.0680   53.7170   31.1080 C.ar   97  TYR97       0.1957
     23  OH        36.8030   52.8810   32.1760 O.3    97  TYR97      -0.2866
     24  N         41.4120   58.8190   25.0680 N.3    99  TYR99      -0.1241
     25  CA        42.7980   58.7160   25.4870 C.3    99  TYR99       0.1605
     26  C         43.7660   59.6750   24.8210 C.2    99  TYR99       0.2264
     27  O         43.8000   59.7960   23.6010 O.2    99  TYR99      -0.2867
     28  CB        43.3100   57.3030   25.2600 C.3    99  TYR99       0.0534
     29  CG        42.5250   56.2230   25.9600 C.ar   99  TYR99      -0.0201
     30  CD1       41.3990   55.6620   25.3700 C.ar   99  TYR99      -0.0009
     31  CD2       42.9480   55.7160   27.1870 C.ar   99  TYR99      -0.0009
     32  CE1       40.7180   54.6140   25.9760 C.ar   99  TYR99       0.0417
     33  CE2       42.2720   54.6680   27.8030 C.ar   99  TYR99       0.0417
     34  CZ        41.1630   54.1180   27.1890 C.ar   99  TYR99       0.1957
     35  OH        40.5320   53.0380   27.7620 O.3    99  TYR99      -0.2866
     36  N         48.9130   57.7880   30.0760 N.3   114  LEU114     -0.1245
     37  CA        47.8310   58.4400   29.3480 C.3   114  LEU114      0.1561
     38  C         47.0540   59.4430   30.1890 C.2   114  LEU114      0.2260
     39  O         47.0260   59.3610   31.4160 O.2   114  LEU114     -0.2867
     40  CB        46.8120   57.3970   28.9040 C.3   114  LEU114      0.0270
     41  CG        47.2150   56.0510   28.3070 C.3   114  LEU114      0.0019
     42  CD1       46.0960   55.0450   28.5860 C.3   114  LEU114      0.0001
     43  CD2       47.4580   56.1850   26.8080 C.3   114  LEU114      0.0001
     44  N         43.3130   60.4000   30.4620 N.3   116  VAL116     -0.1245
     45  CA        42.0340   59.8780   30.0000 C.3   116  VAL116      0.1561
     46  C         40.8690   60.7810   30.3970 C.2   116  VAL116      0.2260
     47  O         40.7300   61.1530   31.5680 O.2   116  VAL116     -0.2867
     48  CB        41.7470   58.4660   30.5870 C.3   116  VAL116      0.0252
     49  CG1       40.5100   57.8830   29.9440 C.3   116  VAL116      0.0019
     50  CG2       42.9270   57.5390   30.3680 C.3   116  VAL116      0.0019
     51  N         36.9970   46.1100   32.0380 N.3   129  ASN129     -0.1240
     52  CA        37.9450   45.5970   31.0600 C.3   129  ASN129      0.1653
     53  C         38.2500   44.2060   31.6100 C.2   129  ASN129      0.2266
     54  O         37.5730   43.7580   32.5380 O.2   129  ASN129     -0.2867
     55  CB        39.2150   46.4460   30.9990 C.3   129  ASN129      0.1155
     56  CG        39.9030   46.5540   32.3340 C.2   129  ASN129      0.2627
     57  OD1       39.8460   45.6290   33.1480 O.2   129  ASN129     -0.2716
     58  ND2       40.5760   47.6820   32.5670 N.am  129  ASN129     -0.0877
     59  N         44.7960   44.3090   33.1010 N.3   132  HIS132     -0.1241
     60  CA        45.9610   44.5630   32.2610 C.3   132  HIS132      0.1621
     61  C         47.0990   43.6950   32.6960 C.2   132  HIS132      0.2264
     62  O         47.1670   43.2580   33.8380 O.2   132  HIS132     -0.2867
     63  CB        46.5380   45.9610   32.4790 C.3   132  HIS132      0.0745
     64  CG        45.5310   47.0510   32.4540 C.ar  132  HIS132      0.0817
     65  ND1       44.5600   47.1680   31.4870 N.ar  132  HIS132     -0.2268
     66  CD2       45.3750   48.1180   33.2780 C.ar  132  HIS132      0.1154
     67  CE1       43.8670   48.2690   31.7400 C.ar  132  HIS132      0.1986
     68  NE2       44.3260   48.8730   32.8150 N.ar  132  HIS132     -0.2212
     69  N         49.1530   49.4510   37.3730 N.3   136  GLU136     -0.1245
     70  CA        48.7080   50.7510   36.9150 C.3   136  GLU136      0.1567
     71  C         48.5210   51.7460   38.0560 C.2   136  GLU136      0.2260
     72  O         47.8590   51.4580   39.0610 O.2   136  GLU136     -0.2867
     73  CB        47.4120   50.5840   36.1350 C.3   136  GLU136      0.0388
     74  CG        46.7920   51.8710   35.6410 C.3   136  GLU136      0.1160
     75  CD        45.4610   51.6190   34.9670 C.2   136  GLU136      0.3649
     76  OE1       45.1350   50.4530   34.7010 O.co2 136  GLU136     -0.2457
     77  OE2       44.7250   52.5830   34.6990 O.co2 136  GLU136     -0.2457
     78  N         47.1810   55.5670   39.0240 N.3   138  LEU138     -0.1245
     79  CA        46.2190   56.5490   38.5260 C.3   138  LEU138      0.1561
     80  C         46.1270   57.7180   39.5080 C.2   138  LEU138      0.2260
     81  O         46.3790   57.5630   40.7100 O.2   138  LEU138     -0.2867
     82  CB        44.8300   55.9340   38.3400 C.3   138  LEU138      0.0270
     83  CG        44.6910   54.7770   37.3450 C.3   138  LEU138      0.0019
     84  CD1       44.6290   53.4700   38.1150 C.3   138  LEU138      0.0001
     85  CD2       43.4210   54.9310   36.5210 C.3   138  LEU138      0.0001
     86  N         38.8470   46.2100   36.1390 N.3   172  HIS172     -0.1226
     87  CA        38.3540   47.4650   36.7030 C.3   172  HIS172      0.1752
     88  C         37.6430   48.3210   35.6710 C.2   172  HIS172      0.2596
     89  O         37.7950   48.1020   34.4680 O.2   172  HIS172     -0.2718
     90  CB        39.5090   48.2570   37.2960 C.3   172  HIS172      0.0759
     91  CG        40.7000   48.3440   36.3980 C.ar  172  HIS172      0.0818
     92  ND1       41.4530   47.2550   36.0130 N.ar  172  HIS172     -0.2268
     93  CD2       41.2870   49.4230   35.8220 C.ar  172  HIS172      0.1154
     94  CE1       42.4470   47.6980   35.2450 C.ar  172  HIS172      0.1986
     95  NE2       42.3760   49.0030   35.1090 N.ar  172  HIS172     -0.2212
     96  N         36.8490   49.2830   36.1440 N.am  173  ALA173     -0.1966
     97  CA        36.1200   50.2130   35.2730 C.3   173  ALA173      0.1728
     98  C         36.0490   51.6260   35.8690 C.2   173  ALA173      0.2616
     99  O         36.1410   51.7920   37.0850 O.2   173  ALA173     -0.2715
    100  CB        34.7230   49.6850   34.9860 C.3   173  ALA173      0.0334
    101  N         35.8880   52.6390   35.0160 N.am  174  PHE174     -0.1974
    102  CA        35.8230   54.0290   35.4830 C.3   174  PHE174      0.1639
    103  C         34.7050   54.8830   34.8610 C.2   174  PHE174      0.2290
    104  O         34.3570   54.7160   33.6920 O.2   174  PHE174     -0.2864
    105  CB        37.1750   54.7190   35.2790 C.3   174  PHE174      0.0560
    106  CG        38.2940   54.1080   36.0720 C.ar  174  PHE174     -0.0200
    107  CD1       38.3520   54.2640   37.4470 C.ar  174  PHE174     -0.0042
    108  CD2       39.2880   53.3770   35.4440 C.ar  174  PHE174     -0.0042
    109  CE1       39.3800   53.7020   38.1800 C.ar  174  PHE174     -0.0003
    110  CE2       40.3190   52.8130   36.1710 C.ar  174  PHE174     -0.0003
    111  CZ        40.3650   52.9760   37.5410 C.ar  174  PHE174     -0.0000
    112  N         41.5670   61.6610   34.2610 N.3   185  LEU185     -0.1245
    113  CA        42.5570   60.8490   34.9620 C.3   185  LEU185      0.1561
    114  C         43.8940   60.7810   34.2480 C.2   185  LEU185      0.2260
    115  O         43.9510   60.8320   33.0250 O.2   185  LEU185     -0.2867
    116  CB        42.0850   59.3930   35.0540 C.3   185  LEU185      0.0270
    117  CG        40.8760   58.9700   35.8730 C.3   185  LEU185      0.0019
    118  CD1       40.4900   57.5510   35.5270 C.3   185  LEU185      0.0001
    119  CD2       41.2150   59.1070   37.3430 C.3   185  LEU185      0.0001
    120  N         46.5830   58.0640   33.8270 N.3   187  ALA187     -0.1245
    121  CA        46.7770   56.6430   34.0980 C.3   187  ALA187      0.1562
    122  C         48.1540   56.2290   33.5990 C.2   187  ALA187      0.2260
    123  O         48.4820   56.4350   32.4330 O.2   187  ALA187     -0.2867
    124  CB        45.7150   55.8300   33.3950 C.3   187  ALA187      0.0290
    125  N         50.4040   52.9650   33.1820 N.3   189  ASN189     -0.1240
    126  CA        50.6260   51.5210   33.1860 C.3   189  ASN189      0.1653
    127  C         52.1400   51.3420   33.2280 C.2   189  ASN189      0.2266
    128  O         52.8610   52.0850   32.5540 O.2   189  ASN189     -0.2867
    129  CB        50.1090   50.8900   31.8980 C.3   189  ASN189      0.1155
    130  CG        48.6190   51.0430   31.7380 C.2   189  ASN189      0.2627
    131  OD1       47.8450   50.3010   32.3490 O.2   189  ASN189     -0.2716
    132  ND2       48.1970   52.0220   30.9200 N.am  189  ASN189     -0.0877
@<TRIPOS>BOND
     1    27    26    2
     2     1     2    1
     3    15    14    2
     4    26    25    1
     5    24    25    1
     6     3     2    1
     7     3     4    2
     8     2     5    1
     9    28    25    1
    10    28    29    1
    11    30    29   ar
    12    30    32   ar
    13    14    13    1
    14    29    31   ar
    15    32    34   ar
    16     5     6    1
    17     6     7    1
    18    43    41    1
    19    12    13    1
    20    13    16    1
    21    31    33   ar
    22    34    35    1
    23    34    33   ar
    24    16    17    1
    25    11     9    1
    26     9     8    2
    27     9    10    1
    28     8     7    1
    29    41    42    1
    30    41    40    1
    31    19    17   ar
    32    19    21   ar
    33    40    37    1
    34    17    18   ar
    35    37    36    1
    36    37    38    1
    37    21    22   ar
    38    49    48    1
    39    45    46    1
    40    45    44    1
    41    45    48    1
    42    18    20   ar
    43    38    39    2
    44    50    48    1
    45    46    47    2
    46   132   130   am
    47    55    52    1
    48    55    56    1
    49    52    53    1
    50    52    51    1
    51    22    20   ar
    52    22    23    1
    53    65    67   ar
    54    65    64   ar
    55    53    54    2
    56   130   129    1
    57   130   131    2
    58    67    68   ar
    59   129   126    1
    60    60    63    1
    61    60    61    1
    62    60    59    1
    63    56    58   am
    64    56    57    2
    65   123   122    2
    66    64    63    1
    67    64    66   ar
    68   128   127    2
    69    61    62    2
    70    68    66   ar
    71   115   114    2
    72   125   126    1
    73   126   127    1
    74   124   121    1
    75   122   121    1
    76   104   103    2
    77   120   121    1
    78   114   113    1
    79   112   113    1
    80    89    88    2
    81    77    75   ar
    82    76    75   ar
    83   103   102    1
    84   113   116    1
    85    75    74    1
    86   100    97    1
    87   101   102    1
    88   101    98   am
    89   116   117    1
    90    95    94   ar
    91    95    93   ar
    92    94    92   ar
    93    97    98    1
    94    97    96    1
    95   105   102    1
    96   105   106    1
    97   108   106   ar
    98   108   110   ar
    99   118   117    1
   100    74    73    1
   101    88    96   am
   102    88    87    1
   103    93    91   ar
   104    98    99    2
   105   117   119    1
   106    92    91   ar
   107   106   107   ar
   108    73    70    1
   109    86    87    1
   110   110   111   ar
   111    91    90    1
   112    85    83    1
   113    87    90    1
   114    70    69    1
   115    70    71    1
   116    83    84    1
   117    83    82    1
   118   107   109   ar
   119   111   109   ar
   120    71    72    2
   121    82    79    1
   122    79    78    1
   123    79    80    1
   124    80    81    2
