@<TRIPOS>MOLECULE
tmp/3scmC00.pdb
 79 76 0 0 0
SMALL
GASTEIGER

@<TRIPOS>ATOM
      1  N         -0.8300  -86.4530  -52.4860 N.3    28  PRO28      -0.2102
      2  CA        -0.3440  -86.6160  -53.8670 C.3    28  PRO28       0.1504
      3  C         -0.9860  -85.5920  -54.8040 C.2    28  PRO28       0.2576
      4  O         -2.0040  -84.9930  -54.4560 O.2    28  PRO28      -0.2718
      5  CB        -0.7700  -88.0400  -54.2390 C.3    28  PRO28       0.0282
      6  CG        -1.8530  -88.3970  -53.2810 C.3    28  PRO28       0.0208
      7  CD        -1.6830  -87.5750  -52.0490 C.3    28  PRO28       0.0893
      8  N         -0.3880  -85.3820  -55.9710 N.am   29  ASP29      -0.1960
      9  CA        -0.8740  -84.3560  -56.8940 C.3    29  ASP29       0.1840
     10  C         -1.4550  -84.9780  -58.1550 C.2    29  ASP29       0.2622
     11  O         -0.8580  -84.9180  -59.2270 O.2    29  ASP29      -0.2715
     12  CB         0.2390  -83.3590  -57.2300 C.3    29  ASP29       0.1450
     13  CG         1.5100  -84.0370  -57.7160 C.2    29  ASP29       0.3671
     14  OD1        1.7960  -85.1830  -57.2860 O.co2  29  ASP29      -0.2456
     15  OD2        2.2250  -83.4150  -58.5340 O.co2  29  ASP29      -0.2456
     16  N         -2.6350  -85.5690  -58.0210 N.am   30  ASN30      -0.1972
     17  CA        -3.2420  -86.2690  -59.1410 C.3    30  ASN30       0.1688
     18  C         -3.4470  -85.4270  -60.4080 C.2    30  ASN30       0.2292
     19  O         -3.1290  -85.8760  -61.5140 O.2    30  ASN30      -0.2864
     20  CB        -4.5570  -86.9150  -58.7370 C.3    30  ASN30       0.1181
     21  CG        -5.2170  -87.6130  -59.8890 C.2    30  ASN30       0.2629
     22  OD1       -6.1600  -87.0900  -60.4870 O.2    30  ASN30      -0.2716
     23  ND2       -4.7010  -88.7860  -60.2450 N.am   30  ASN30      -0.0877
     24  N         -3.1650  -83.5110  -66.2260 N.3    50  VAL50      -0.1231
     25  CA        -3.1120  -84.7740  -65.4740 C.3    50  VAL50       0.1692
     26  C         -1.7310  -85.4290  -65.4300 C.2    50  VAL50       0.2592
     27  O         -1.3630  -86.0270  -64.4190 O.2    50  VAL50      -0.2718
     28  CB        -4.1300  -85.8030  -66.0280 C.3    50  VAL50       0.0266
     29  CG1       -4.0510  -87.1220  -65.2490 C.3    50  VAL50       0.0020
     30  CG2       -5.5460  -85.2450  -65.9650 C.3    50  VAL50       0.0020
     31  N         -0.9790  -85.3260  -66.5230 N.am   51  ASP51      -0.1960
     32  CA         0.2980  -86.0370  -66.6530 C.3    51  ASP51       0.1840
     33  C          1.4520  -85.3570  -65.9200 C.2    51  ASP51       0.2621
     34  O          1.3330  -84.2120  -65.4810 O.2    51  ASP51      -0.2715
     35  CB         0.6490  -86.2410  -68.1250 C.3    51  ASP51       0.1450
     36  CG        -0.2760  -87.2190  -68.8150 C.2    51  ASP51       0.3671
     37  OD1       -0.7320  -88.1840  -68.1630 O.co2  51  ASP51      -0.2456
     38  OD2       -0.5430  -87.0290  -70.0210 O.co2  51  ASP51      -0.2456
     39  N          2.5640  -86.0810  -65.7960 N.am   52  GLN52      -0.1977
     40  CA         3.7610  -85.6010  -65.0930 C.3    52  GLN52       0.1601
     41  C          4.3400  -84.3540  -65.7690 C.2    52  GLN52       0.2287
     42  O          4.6640  -83.3660  -65.1040 O.2    52  GLN52      -0.2864
     43  CB         4.8070  -86.7220  -65.0070 C.3    52  GLN52       0.0394
     44  CG         6.1210  -86.3330  -64.3190 C.3    52  GLN52       0.0908
     45  CD         6.0740  -86.4110  -62.7950 C.2    52  GLN52       0.2608
     46  OE1        5.0560  -86.7670  -62.1940 O.2    52  GLN52      -0.2717
     47  NE2        7.1940  -86.0860  -62.1650 N.am   52  GLN52      -0.0878
     48  N          5.0650  -81.6080  -62.8060 N.3    67  LYS67      -0.1245
     49  CA         4.8560  -82.3910  -61.5940 C.3    67  LYS67       0.1561
     50  C          6.0790  -82.3030  -60.6950 C.2    67  LYS67       0.2260
     51  O          5.9760  -82.2160  -59.4720 O.2    67  LYS67      -0.2867
     52  CB         4.5600  -83.8490  -61.9420 C.3    67  LYS67       0.0271
     53  CG         3.1900  -84.0750  -62.5610 C.3    67  LYS67       0.0035
     54  CD         2.2980  -84.8940  -61.6430 C.3    67  LYS67       0.0206
     55  CE         0.8330  -84.7460  -62.0210 C.3    67  LYS67       0.1093
     56  NZ         0.1490  -86.0650  -62.1230 N.3    67  LYS67      -0.1314
     57  N         -6.0110  -84.0300  -54.9930 N.3    93  ASP93      -0.1225
     58  CA        -5.0720  -84.9880  -54.3980 C.3    93  ASP93       0.1805
     59  C         -5.3700  -86.4720  -54.6390 C.2    93  ASP93       0.2598
     60  O         -4.6250  -87.3300  -54.1680 O.2    93  ASP93      -0.2718
     61  CB        -4.8220  -84.6970  -52.9050 C.3    93  ASP93       0.1424
     62  CG        -6.0870  -84.7180  -52.0740 C.2    93  ASP93       0.3668
     63  OD1       -6.1120  -84.0070  -51.0440 O.co2  93  ASP93      -0.2456
     64  OD2       -7.0500  -85.4310  -52.4380 O.co2  93  ASP93      -0.2456
     65  N         -6.4380  -86.7800  -55.3710 N.am   94  ARG94      -0.1966
     66  CA        -6.7270  -88.1660  -55.7330 C.3    94  ARG94       0.1729
     67  C         -7.2450  -88.2770  -57.1580 C.2    94  ARG94       0.2616
     68  O         -7.8560  -87.3490  -57.6720 O.2    94  ARG94      -0.2715
     69  CB        -7.7620  -88.8000  -54.7810 C.3    94  ARG94       0.0348
     70  CG        -7.4440  -88.7600  -53.2810 C.3    94  ARG94       0.0492
     71  CD        -6.4380  -89.8150  -52.8520 C.3    94  ARG94       0.2205
     72  NE        -6.3320  -89.8920  -51.3960 N.pl3  94  ARG94      -0.0865
     73  CZ        -5.6670  -89.0240  -50.6370 C.cat  94  ARG94       0.5346
     74  NH1       -5.0460  -87.9860  -51.1770 N.pl3  94  ARG94       0.1354
     75  NH2       -5.6370  -89.1850  -49.3250 N.pl3  94  ARG94       0.1354
     76  N         -7.0040  -89.4290  -57.7810 N.am   95  GLY95      -0.1955
     77  CA        -7.6240  -89.7770  -59.0540 C.3    95  GLY95       0.1869
     78  C         -9.0110  -90.3730  -58.8960 C.2    95  GLY95       0.2309
     79  O         -9.6260  -90.8080  -59.8770 O.2    95  GLY95      -0.2863
@<TRIPOS>BOND
     1    38    36   ar
     2    36    37   ar
     3    36    35    1
     4    35    32    1
     5    32    31    1
     6    32    33    1
     7    31    26   am
     8    24    25    1
     9    28    30    1
    10    28    25    1
    11    28    29    1
    12    33    39   am
    13    33    34    2
    14    39    40    1
    15    41    42    2
    16    41    40    1
    17    25    26    1
    18    26    27    2
    19    40    43    1
    20    43    44    1
    21    44    45    1
    22    48    49    1
    23    45    46    2
    24    45    47   am
    25    53    52    1
    26    53    54    1
    27    56    55    1
    28    55    54    1
    29    52    49    1
    30    49    50    1
    31    19    18    2
    32    50    51    2
    33    22    21    2
    34    18    17    1
    35    23    21   am
    36    21    20    1
    37    79    78    2
    38    11    10    2
    39    17    20    1
    40    17    16    1
    41    77    78    1
    42    77    76    1
    43    15    13   ar
    44    10    16   am
    45    10     9    1
    46    76    67   am
    47    13    14   ar
    48    13    12    1
    49    68    67    2
    50    12     9    1
    51    67    66    1
    52     9     8    1
    53     8     3   am
    54    66    65    1
    55    66    69    1
    56    65    59   am
    57    57    58    1
    58     3     4    2
    59     3     2    1
    60    69    70    1
    61    59    58    1
    62    59    60    2
    63    58    61    1
    64     5     2    1
    65     5     6    1
    66     2     1    1
    67     6     7    1
    68    70    71    1
    69    61    62    1
    70    71    72    1
    71     1     7    1
    72    64    62   ar
    73    62    63   ar
    74    72    73    2
    75    74    73    1
    76    73    75    1
