@<TRIPOS>MOLECULE
tmp/3scqB01.pdb
 146 145 0 0 0
SMALL
GASTEIGER

@<TRIPOS>ATOM
      1  N         -3.1320   -2.5270   -1.7020 N.3    25  GLN25      -0.1245
      2  CA        -2.3620   -1.3050   -1.8740 C.3    25  GLN25       0.1566
      3  C         -2.2900   -0.4180   -0.6320 C.2    25  GLN25       0.2260
      4  O         -1.3400    0.3540   -0.5070 O.2    25  GLN25      -0.2867
      5  CB        -2.8440   -0.5200   -3.0960 C.3    25  GLN25       0.0367
      6  CG        -2.7140   -1.3380   -4.3840 C.3    25  GLN25       0.0905
      7  CD        -3.1600   -0.5680   -5.6050 C.2    25  GLN25       0.2608
      8  OE1       -4.3160   -0.6740   -6.0370 O.2    25  GLN25      -0.2717
      9  NE2       -2.2450    0.2070   -6.1790 N.am   25  GLN25      -0.0878
     10  N        -14.4100    4.5870   -1.9790 N.3    82  ARG82      -0.1245
     11  CA       -14.3620    3.3270   -2.6810 C.3    82  ARG82       0.1563
     12  C        -13.1530    2.5630   -2.1650 C.2    82  ARG82       0.2260
     13  O        -12.0060    3.0230   -2.2940 O.2    82  ARG82      -0.2867
     14  CB       -14.2860    3.5260   -4.2040 C.3    82  ARG82       0.0307
     15  CG       -14.1330    2.1860   -4.9590 C.3    82  ARG82       0.0489
     16  CD       -14.2030    2.2810   -6.4980 C.3    82  ARG82       0.2205
     17  NE       -13.7030    1.0160   -7.0230 N.pl3  82  ARG82      -0.0865
     18  CZ       -12.6580    0.8740   -7.8350 C.cat  82  ARG82       0.5346
     19  NH1      -12.0170    1.9310   -8.3270 N.pl3  82  ARG82       0.1354
     20  NH2      -12.2810   -0.3420   -8.1850 N.pl3  82  ARG82       0.1354
     21  N         -9.9090   -6.9110   -6.1650 N.3   126  HIS126     -0.1226
     22  CA        -8.9450   -5.9970   -6.7580 C.3   126  HIS126      0.1752
     23  C         -7.5840   -6.6760   -6.9000 C.2   126  HIS126      0.2596
     24  O         -6.6800   -6.4420   -6.0980 O.2   126  HIS126     -0.2718
     25  CB        -8.8330   -4.7370   -5.8950 C.3   126  HIS126      0.0759
     26  CG        -8.3540   -3.5260   -6.6350 C.ar  126  HIS126      0.0818
     27  ND1       -9.1070   -2.3760   -6.7400 N.ar  126  HIS126     -0.2268
     28  CD2       -7.1890   -3.2730   -7.2810 C.ar  126  HIS126      0.1154
     29  CE1       -8.4240   -1.4650   -7.4130 C.ar  126  HIS126      0.1986
     30  NE2       -7.2570   -1.9840   -7.7520 N.ar  126  HIS126     -0.2212
     31  N         -7.4660   -7.5360   -7.9110 N.am  127  TYR127     -0.1976
     32  CA        -6.2180   -8.2290   -8.2800 C.3   127  TYR127      0.1639
     33  C         -5.7330   -9.3100   -7.3030 C.2   127  TYR127      0.2290
     34  O         -4.7130   -9.9640   -7.5590 O.2   127  TYR127     -0.2864
     35  CB        -5.0530   -7.2420   -8.5170 C.3   127  TYR127      0.0560
     36  CG        -5.2540   -6.1970   -9.6000 C.ar  127  TYR127     -0.0198
     37  CD1       -4.6900   -4.9290   -9.4730 C.ar  127  TYR127     -0.0009
     38  CD2       -5.9950   -6.4680  -10.7480 C.ar  127  TYR127     -0.0009
     39  CE1       -4.8670   -3.9430  -10.4610 C.ar  127  TYR127      0.0417
     40  CE2       -6.1810   -5.4940  -11.7490 C.ar  127  TYR127      0.0417
     41  CZ        -5.6150   -4.2380  -11.5910 C.ar  127  TYR127      0.1957
     42  OH        -5.7860   -3.2850  -12.5670 O.3   127  TYR127     -0.2866
     43  N        -12.5130   -5.2900  -10.3510 N.3   171  ASN171     -0.1225
     44  CA       -11.7670   -4.1300  -10.7870 C.3   171  ASN171      0.1785
     45  C        -10.8700   -4.4850  -11.9700 C.2   171  ASN171      0.2597
     46  O         -9.9360   -5.2970  -11.8470 O.2   171  ASN171     -0.2718
     47  CB       -10.9120   -3.5920   -9.6390 C.3   171  ASN171      0.1169
     48  CG       -10.0360   -2.4280  -10.0730 C.2   171  ASN171      0.2627
     49  OD1      -10.4880   -1.2960  -10.1230 O.2   171  ASN171     -0.2716
     50  ND2       -8.7760   -2.7140  -10.4060 N.am  171  ASN171     -0.0877
     51  N        -11.1750   -3.8940  -13.1190 N.am  172  GLU172     -0.1979
     52  CA       -10.3410   -3.9930  -14.3150 C.3   172  GLU172      0.1602
     53  C         -9.9600   -5.4190  -14.7350 C.2   172  GLU172      0.2287
     54  O         -8.7740   -5.7580  -14.7570 O.2   172  GLU172     -0.2864
     55  CB        -9.0850   -3.1330  -14.1230 C.3   172  GLU172      0.0415
     56  CG        -9.4040   -1.6590  -13.8510 C.3   172  GLU172      0.1163
     57  CD        -8.1780   -0.8540  -13.4430 C.2   172  GLU172      0.3649
     58  OE1       -7.3540   -1.3890  -12.6850 O.co2 172  GLU172     -0.2457
     59  OE2       -8.0500    0.3150  -13.8470 O.co2 172  GLU172     -0.2457
     60  N        -12.5920    3.3810  -14.8600 N.3   309  ASN309     -0.1240
     61  CA       -11.2940    3.9240  -14.5120 C.3   309  ASN309      0.1653
     62  C        -10.6840    4.5750  -15.7490 C.2   309  ASN309      0.2266
     63  O        -10.3980    3.8940  -16.7330 O.2   309  ASN309     -0.2867
     64  CB       -10.3850    2.8240  -13.9760 C.3   309  ASN309      0.1155
     65  CG       -10.8300    2.3050  -12.6170 C.2   309  ASN309      0.2627
     66  OD1      -11.7820    2.8190  -12.0060 O.2   309  ASN309     -0.2716
     67  ND2      -10.1420    1.2790  -12.1340 N.am  309  ASN309     -0.0877
     68  N         -7.7510    7.2800  -17.2960 N.3   311  TYR311     -0.1241
     69  CA        -6.4850    7.9660  -17.0440 C.3   311  TYR311      0.1605
     70  C         -5.9350    8.7750  -18.2050 C.2   311  TYR311      0.2264
     71  O         -5.4780    9.9080  -18.0260 O.2   311  TYR311     -0.2867
     72  CB        -5.4260    6.9570  -16.5770 C.3   311  TYR311      0.0534
     73  CG        -5.6280    6.5100  -15.1510 C.ar  311  TYR311     -0.0201
     74  CD1       -6.2370    5.2840  -14.8580 C.ar  311  TYR311     -0.0009
     75  CD2       -5.2290    7.3170  -14.0900 C.ar  311  TYR311     -0.0009
     76  CE1       -6.4370    4.8680  -13.5260 C.ar  311  TYR311      0.0417
     77  CE2       -5.4200    6.9090  -12.7560 C.ar  311  TYR311      0.0417
     78  CZ        -6.0180    5.6800  -12.4900 C.ar  311  TYR311      0.1957
     79  OH        -6.2090    5.2760  -11.1850 O.3   311  TYR311     -0.2866
     80  N          3.1280    5.1060  -18.9690 N.3   354  TRP354     -0.1241
     81  CA         1.8670    4.9400  -19.7160 C.3   354  TRP354      0.1605
     82  C          0.8910    6.1050  -19.5350 C.2   354  TRP354      0.2264
     83  O         -0.0890    6.2040  -20.2760 O.2   354  TRP354     -0.2867
     84  CB         1.1680    3.6240  -19.3300 C.3   354  TRP354      0.0550
     85  CG         0.8930    3.5100  -17.8500 C.ar  354  TRP354      0.0003
     86  CD1        1.6770    2.8830  -16.9210 C.ar  354  TRP354      0.0946
     87  CD2       -0.2310    4.0470  -17.1280 C.ar  354  TRP354      0.0152
     88  NE1        1.1120    2.9890  -15.6710 N.ar  354  TRP354     -0.2442
     89  CE2       -0.0570    3.6980  -15.7670 C.ar  354  TRP354      0.0810
     90  CE3       -1.3780    4.7640  -17.5010 C.ar  354  TRP354      0.0012
     91  CZ2       -0.9770    4.0570  -14.7720 C.ar  354  TRP354      0.0191
     92  CZ3       -2.2980    5.1210  -16.5050 C.ar  354  TRP354      0.0001
     93  CH2       -2.0880    4.7610  -15.1620 C.ar  354  TRP354      0.0015
     94  N        -12.0550    5.7890  -10.7870 N.3   382  ALA382     -0.1245
     95  CA       -10.6500    6.1400  -10.5650 C.3   382  ALA382      0.1562
     96  C        -10.1540    7.0910  -11.6380 C.2   382  ALA382      0.2260
     97  O        -10.4370    6.9160  -12.8310 O.2   382  ALA382     -0.2867
     98  CB        -9.7480    4.8860  -10.5180 C.3   382  ALA382      0.0290
     99  N         -8.3130    8.5510   -7.6380 N.3   429  TRP429     -0.1241
    100  CA        -7.2250    7.6540   -7.2760 C.3   429  TRP429      0.1605
    101  C         -5.9620    8.5010   -7.0630 C.2   429  TRP429      0.2264
    102  O         -5.4550    9.0700   -8.0240 O.2   429  TRP429     -0.2867
    103  CB        -6.9650    6.5540   -8.3390 C.3   429  TRP429      0.0550
    104  CG        -5.9080    5.6040   -7.8120 C.ar  429  TRP429      0.0003
    105  CD1       -4.5470    5.7910   -7.8210 C.ar  429  TRP429      0.0946
    106  CD2       -6.1370    4.3850   -7.1040 C.ar  429  TRP429      0.0152
    107  NE1       -3.9170    4.7460   -7.1740 N.ar  429  TRP429     -0.2442
    108  CE2       -4.8730    3.8700   -6.7270 C.ar  429  TRP429      0.0810
    109  CE3       -7.2900    3.6680   -6.7570 C.ar  429  TRP429      0.0012
    110  CZ2       -4.7340    2.6770   -6.0250 C.ar  429  TRP429      0.0191
    111  CZ3       -7.1490    2.4790   -6.0670 C.ar  429  TRP429      0.0001
    112  CH2       -5.8780    1.9990   -5.7040 C.ar  429  TRP429      0.0015
    113  N          2.0650    0.8940   -5.4650 N.3   436  GLU436     -0.1231
    114  CA         1.7290    0.9270   -6.9000 C.3   436  GLU436      0.1699
    115  C          2.2580   -0.3060   -7.6470 C.2   436  GLU436      0.2592
    116  O          3.0750   -0.2020   -8.5610 O.2   436  GLU436     -0.2718
    117  CB         2.1620    2.2600   -7.5530 C.3   436  GLU436      0.0402
    118  CG         1.8450    2.4280   -9.0660 C.3   436  GLU436      0.1161
    119  CD         0.3460    2.3800   -9.4220 C.2   436  GLU436      0.3649
    120  OE1       -0.5120    2.5600   -8.5340 O.co2 436  GLU436     -0.2457
    121  OE2        0.0260    2.1790  -10.6140 O.co2 436  GLU436     -0.2457
    122  N          1.7830   -1.4750   -7.2340 N.am  437  TRP437     -0.1976
    123  CA         2.0750   -2.7380   -7.9210 C.3   437  TRP437      0.1640
    124  C          3.5530   -2.9170   -8.3140 C.2   437  TRP437      0.2290
    125  O          4.4180   -2.9530   -7.4320 O.2   437  TRP437     -0.2864
    126  CB         1.1310   -2.9100   -9.1170 C.3   437  TRP437      0.0576
    127  CG        -0.3180   -2.7470   -8.7280 C.ar  437  TRP437      0.0006
    128  CD1       -1.1870   -1.7960   -9.1810 C.ar  437  TRP437      0.0946
    129  CD2       -1.0490   -3.5450   -7.7880 C.ar  437  TRP437      0.0152
    130  NE1       -2.4240   -1.9590   -8.5900 N.ar  437  TRP437     -0.2442
    131  CE2       -2.3680   -3.0290   -7.7350 C.ar  437  TRP437      0.0810
    132  CE3       -0.7240   -4.6550   -6.9920 C.ar  437  TRP437      0.0012
    133  CZ2       -3.3660   -3.5880   -6.9170 C.ar  437  TRP437      0.0191
    134  CZ3       -1.7260   -5.2170   -6.1740 C.ar  437  TRP437      0.0001
    135  CH2       -3.0270   -4.6710   -6.1450 C.ar  437  TRP437      0.0015
    136  N          0.5220    8.3920   -6.1410 N.3   445  PHE445     -0.1241
    137  CA        -0.7670    8.8120   -6.7010 C.3   445  PHE445      0.1605
    138  C         -1.6640    9.6230   -5.7460 C.2   445  PHE445      0.2264
    139  O         -2.7090   10.1110   -6.1480 O.2   445  PHE445     -0.2867
    140  CB        -1.5610    7.5740   -7.1720 C.3   445  PHE445      0.0534
    141  CG        -1.2680    7.1690   -8.5900 C.ar  445  PHE445     -0.0203
    142  CD1       -1.9150    7.8010   -9.6540 C.ar  445  PHE445     -0.0042
    143  CD2       -0.3500    6.1530   -8.8620 C.ar  445  PHE445     -0.0042
    144  CE1       -1.6470    7.4340  -10.9810 C.ar  445  PHE445     -0.0003
    145  CE2       -0.0620    5.7750  -10.1870 C.ar  445  PHE445     -0.0003
    146  CZ        -0.7130    6.4170  -11.2490 C.ar  445  PHE445     -0.0000
@<TRIPOS>BOND
     1    83    82    2
     2    81    82    1
     3    81    84    1
     4    81    80    1
     5    84    85    1
     6    70    71    2
     7    70    69    1
     8    85    87   ar
     9    85    86   ar
    10    90    87   ar
    11    90    92   ar
    12    68    69    1
    13    87    89   ar
    14    69    72    1
    15    86    88   ar
    16    63    62    2
    17    72    73    1
    18    92    93   ar
    19    89    88   ar
    20    89    91   ar
    21    62    61    1
    22    93    91   ar
    23    73    74   ar
    24    73    75   ar
    25    60    61    1
    26    74    76   ar
    27    54    53    2
    28    53    52    1
    29    61    64    1
    30    52    55    1
    31    52    51    1
    32    55    56    1
    33    75    77   ar
    34    64    65    1
    35    56    57    1
    36    59    57   ar
    37    76    78   ar
    38    57    58   ar
    39    51    45   am
    40    97    96    2
    41    77    78   ar
    42    65    67   am
    43    65    66    2
    44    42    41    1
    45    78    79    1
    46    45    46    2
    47    45    44    1
    48    40    41   ar
    49    40    38   ar
    50    96    95    1
    51    41    39   ar
    52   146   144   ar
    53   146   145   ar
    54   144   142   ar
    55    94    95    1
    56    44    43    1
    57    44    47    1
    58    38    36   ar
    59   121   119   ar
    60    95    98    1
    61    39    37   ar
    62    50    48   am
    63   145   143   ar
    64    49    48    2
    65    48    47    1
    66   142   141   ar
    67    36    37   ar
    68    36    35    1
    69   119   118    1
    70   119   120   ar
    71   128   127   ar
    72   128   130   ar
    73   126   127    1
    74   126   123    1
    75   118   117    1
    76   143   141   ar
    77   127   129   ar
    78   130   131   ar
    79   141   140    1
    80   116   115    2
    81    35    32    1
    82   103   104    1
    83   103   100    1
    84    19    18    1
    85   124   123    1
    86   124   125    2
    87    32    31    1
    88    32    33    1
    89    20    18    1
    90   102   101    2
    91   123   122    1
    92    31    23   am
    93    18    17    2
    94   105   104   ar
    95   105   107   ar
    96   104   106   ar
    97   129   131   ar
    98   129   132   ar
    99    30    29   ar
   100    30    28   ar
   101   131   133   ar
   102   115   122   am
   103   115   114    1
   104    99   100    1
   105    34    33    2
   106   117   114    1
   107    29    27   ar
   108    28    26   ar
   109   100   101    1
   110   107   108   ar
   111   140   137    1
   112   106   109   ar
   113   106   108   ar
   114    17    16    1
   115   132   134   ar
   116   133   135   ar
   117   114   113    1
   118    23    22    1
   119    23    24    2
   120    22    21    1
   121    22    25    1
   122   109   111   ar
   123    27    26   ar
   124   108   110   ar
   125   137   136    1
   126   137   138    1
   127    26    25    1
   128    16    15    1
   129     9     7   am
   130   134   135   ar
   131   139   138    2
   132   111   112   ar
   133     8     7    2
   134   110   112   ar
   135     7     6    1
   136    15    14    1
   137     6     5    1
   138    14    11    1
   139     5     2    1
   140    11    12    1
   141    11    10    1
   142    13    12    2
   143     2     1    1
   144     2     3    1
   145     3     4    2
