@<TRIPOS>MOLECULE
tmp/3sczA00.pdb
 84 77 0 0 0
SMALL
GASTEIGER

@<TRIPOS>ATOM
      1  N         45.5670  -50.5540   24.7380 N.3   115  ALA115     -0.1245
      2  CA        46.4370  -51.3590   25.5670 C.3   115  ALA115      0.1562
      3  C         47.3290  -50.3610   26.3080 C.2   115  ALA115      0.2260
      4  O         47.7420  -49.3680   25.7240 O.2   115  ALA115     -0.2867
      5  CB        47.2380  -52.2420   24.6820 C.3   115  ALA115      0.0290
      6  N         50.4600  -49.8570   29.6480 N.3   117  GLY117     -0.1225
      7  CA        51.2430  -50.1990   30.8300 C.3   117  GLY117      0.1811
      8  C         50.6640  -49.5570   32.0780 C.2   117  GLY117      0.2280
      9  O         50.2650  -48.3880   32.0700 O.2   117  GLY117     -0.2866
     10  N         59.0180  -49.0310   23.6740 N.3   183  TYR183     -0.1227
     11  CA        58.4780  -48.8770   25.0420 C.3   183  TYR183      0.1736
     12  C         59.4160  -47.9630   25.8750 C.2   183  TYR183      0.2595
     13  O         60.4880  -47.5680   25.4090 O.2   183  TYR183     -0.2718
     14  CB        58.3170  -50.2510   25.7280 C.3   183  TYR183      0.0548
     15  CG        57.3760  -51.2040   25.0340 C.ar  183  TYR183     -0.0200
     16  CD1       57.8330  -52.4170   24.5240 C.ar  183  TYR183     -0.0009
     17  CD2       56.0120  -50.9010   24.9120 C.ar  183  TYR183     -0.0009
     18  CE1       56.9630  -53.3190   23.8840 C.ar  183  TYR183      0.0417
     19  CE2       55.1230  -51.7860   24.2650 C.ar  183  TYR183      0.0417
     20  CZ        55.6050  -52.9990   23.7650 C.ar  183  TYR183      0.1957
     21  OH        54.7280  -53.8710   23.1310 O.3   183  TYR183     -0.2866
     22  N         59.0250  -47.6660   27.1050 N.am  184  GLU184     -0.1979
     23  CA        59.7080  -46.6510   27.9120 C.3   184  GLU184      0.1602
     24  C         60.8460  -47.2670   28.7020 C.2   184  GLU184      0.2287
     25  O         60.8250  -48.4520   28.9860 O.2   184  GLU184     -0.2864
     26  CB        58.7210  -46.0010   28.8710 C.3   184  GLU184      0.0415
     27  CG        57.5300  -45.2310   28.1390 C.3   184  GLU184      0.1163
     28  CD        56.4800  -46.1840   27.5290 C.2   184  GLU184      0.3649
     29  OE1       56.1700  -47.2340   28.1800 O.co2 184  GLU184     -0.2457
     30  OE2       55.9200  -45.8610   26.4440 O.co2 184  GLU184     -0.2457
     31  N         50.1930  -45.9210   30.7690 N.3   200  VAL200     -0.1231
     32  CA        50.9730  -45.4250   29.6460 C.3   200  VAL200      0.1692
     33  C         50.7180  -46.1830   28.3370 C.2   200  VAL200      0.2593
     34  O         50.6010  -47.4140   28.3180 O.2   200  VAL200     -0.2718
     35  CB        52.4840  -45.3820   30.0060 C.3   200  VAL200      0.0266
     36  CG1       52.9870  -46.7770   30.3160 C.3   200  VAL200      0.0020
     37  CG2       53.3140  -44.6820   28.8710 C.3   200  VAL200      0.0020
     38  N         50.6560  -45.4460   27.2410 N.am  201  GLY201     -0.1942
     39  CA        50.3920  -46.0630   25.9430 C.3   201  GLY201      0.2014
     40  C         50.7980  -45.2050   24.7610 C.2   201  GLY201      0.2638
     41  O         51.2960  -44.0910   24.9350 O.2   201  GLY201     -0.2714
     42  N         50.5600  -45.7360   23.5620 N.am  202  MET202     -0.1976
     43  CA        50.9980  -45.1230   22.3160 C.3   202  MET202      0.1605
     44  C         49.8810  -44.7100   21.3830 C.2   202  MET202      0.2287
     45  O         50.1130  -44.5590   20.1750 O.2   202  MET202     -0.2864
     46  CB        51.9040  -46.0920   21.5370 C.3   202  MET202      0.0413
     47  CG        53.1030  -46.5590   22.3000 C.3   202  MET202      0.0598
     48  SD        53.8960  -47.8960   21.3540 S.3   202  MET202     -0.1393
     49  CE        55.0630  -48.3270   22.6370 C.3   202  MET202      0.0692
     50  N         47.8350  -54.2830   30.0080 N.3   225  THR225     -0.1203
     51  CA        48.3890  -55.4750   29.3590 C.3   225  THR225      0.1994
     52  C         49.7340  -55.8720   29.9730 C.2   225  THR225      0.2617
     53  O         50.2620  -56.9640   29.6840 O.2   225  THR225     -0.2717
     54  CB        48.5930  -55.2920   27.8410 C.3   225  THR225      0.1784
     55  OG1       49.3730  -54.0980   27.5930 O.3   225  THR225     -0.2211
     56  CG2       47.2290  -55.2300   27.0900 C.3   225  THR225      0.0376
     57  N         50.2910  -54.9880   30.7990 N.am  226  ASN226     -0.1974
     58  CA        51.5970  -55.2200   31.4550 C.3   226  ASN226      0.1688
     59  C         51.7860  -54.1740   32.4890 C.2   226  ASN226      0.2292
     60  O         51.1490  -53.1390   32.4050 O.2   226  ASN226     -0.2864
     61  CB        52.7640  -55.1250   30.4520 C.3   226  ASN226      0.1181
     62  CG        52.7560  -53.8310   29.6660 C.2   226  ASN226      0.2629
     63  OD1       51.9300  -53.6400   28.7700 O.2   226  ASN226     -0.2716
     64  ND2       53.6720  -52.9290   30.0010 N.am  226  ASN226     -0.0877
     65  N         54.2330  -51.2190   33.7750 N.3   228  ALA228     -0.1245
     66  CA        55.2050  -50.3500   33.0560 C.3   228  ALA228      0.1562
     67  C         56.6570  -50.7250   33.3430 C.2   228  ALA228      0.2260
     68  O         56.9310  -51.3090   34.3840 O.2   228  ALA228     -0.2867
     69  CB        54.9700  -48.8590   33.4090 C.3   228  ALA228      0.0290
     70  N         58.8880  -56.2350   28.6650 N.3   236  LEU236     -0.1245
     71  CA        57.7640  -55.8500   27.8190 C.3   236  LEU236      0.1561
     72  C         57.9130  -56.4340   26.4070 C.2   236  LEU236      0.2260
     73  O         58.9930  -56.3610   25.8080 O.2   236  LEU236     -0.2867
     74  CB        57.6260  -54.3340   27.7540 C.3   236  LEU236      0.0270
     75  CG        57.6700  -53.3920   28.9710 C.3   236  LEU236      0.0019
     76  CD1       56.5570  -52.3970   28.8610 C.3   236  LEU236      0.0001
     77  CD2       57.6460  -54.0210   30.3470 C.3   236  LEU236      0.0001
     78  N         51.6930  -58.2430   25.0280 N.3   241  VAL241     -0.1245
     79  CA        50.5580  -57.3210   24.9270 C.3   241  VAL241      0.1561
     80  C         49.3670  -57.9390   24.1840 C.2   241  VAL241      0.2260
     81  O         48.2460  -57.9270   24.7000 O.2   241  VAL241     -0.2867
     82  CB        50.9710  -55.9440   24.3080 C.3   241  VAL241      0.0252
     83  CG1       49.7300  -55.0450   24.1260 C.3   241  VAL241      0.0019
     84  CG2       51.9840  -55.2390   25.2210 C.3   241  VAL241      0.0019
@<TRIPOS>BOND
     1    45    44    2
     2    48    47    1
     3    48    49    1
     4    44    43    1
     5    46    47    1
     6    46    43    1
     7    43    42    1
     8    21    20    1
     9    42    40   am
    10    10    11    1
    11    20    18   ar
    12    20    19   ar
    13    18    16   ar
    14    83    82    1
    15    80    81    2
    16    80    79    1
    17    19    17   ar
    18    82    79    1
    19    82    84    1
    20    16    15   ar
    21     5     2    1
    22     1     2    1
    23    40    41    2
    24    40    39    1
    25    17    15   ar
    26    79    78    1
    27    15    14    1
    28    11    14    1
    29    11    12    1
    30    13    12    2
    31     2     3    1
    32     4     3    2
    33    73    72    2
    34    12    22   am
    35    39    38    1
    36    72    71    1
    37    30    28   ar
    38    56    54    1
    39    22    23    1
    40    38    33   am
    41    28    27    1
    42    28    29   ar
    43    55    54    1
    44    74    71    1
    45    74    75    1
    46    71    70    1
    47    54    51    1
    48    23    24    1
    49    23    26    1
    50    27    26    1
    51    34    33    2
    52    33    32    1
    53    24    25    2
    54    63    62    2
    55    76    75    1
    56    37    35    1
    57    75    77    1
    58    51    52    1
    59    51    50    1
    60    32    35    1
    61    32    31    1
    62     6     7    1
    63    62    64   am
    64    62    61    1
    65    53    52    2
    66    52    57   am
    67    35    36    1
    68    61    58    1
    69    57    58    1
    70     7     8    1
    71    58    59    1
    72     9     8    2
    73    60    59    2
    74    66    67    1
    75    66    69    1
    76    66    65    1
    77    67    68    2
