@<TRIPOS>MOLECULE
tmp/3sd0A00.pdb
 158 149 0 0 0
SMALL
GASTEIGER

@<TRIPOS>ATOM
      1  N          6.4040  -39.3610  -17.5210 N.3    28  ILE28      -0.1231
      2  CA         7.2750  -38.5910  -16.6230 C.3    28  ILE28       0.1696
      3  C          8.4430  -37.9490  -17.3370 C.2    28  ILE28       0.2632
      4  O          9.2510  -37.2870  -16.6840 O.2    28  ILE28      -0.2714
      5  CB         7.8380  -39.4130  -15.4340 C.3    28  ILE28       0.0266
      6  CG1        8.8840  -40.4220  -15.9100 C.3    28  ILE28       0.0019
      7  CG2        6.7150  -40.0630  -14.6730 C.3    28  ILE28       0.0020
      8  CD1        9.4410  -41.3250  -14.8440 C.3    28  ILE28       0.0001
      9  N          8.5510  -38.1710  -18.6510 N.am   29  GLY29      -0.1718
     10  CA         9.6840  -37.6760  -19.4100 C.2    29  GLY29       0.1480
     11  C          9.6380  -37.8180  -20.9230 C.2    29  GLY29       0.2820
     12  O          9.2100  -38.8480  -21.4560 O.2    29  GLY29      -0.2669
     13  N         10.1050  -36.7550  -21.5830 N.am   30  ASN30      -0.1937
     14  CA        10.3360  -36.6480  -23.0200 C.3    30  ASN30       0.1691
     15  C         11.7630  -36.1170  -23.2340 C.2    30  ASN30       0.2292
     16  O         12.3360  -35.4620  -22.3420 O.2    30  ASN30      -0.2864
     17  CB         9.3940  -35.6030  -23.6170 C.3    30  ASN30       0.1181
     18  CG         8.0200  -36.1440  -23.9060 C.2    30  ASN30       0.2629
     19  OD1        7.2470  -36.4410  -22.9860 O.2    30  ASN30      -0.2716
     20  ND2        7.6840  -36.2470  -25.1960 N.am   30  ASN30      -0.0877
     21  N         14.9580  -38.9860  -27.2080 N.3    33  PHE33      -0.1241
     22  CA        15.1800  -40.4110  -27.1760 C.3    33  PHE33       0.1605
     23  C         13.8760  -41.1790  -27.3850 C.2    33  PHE33       0.2264
     24  O         13.8490  -42.1920  -28.1170 O.2    33  PHE33      -0.2867
     25  CB        15.8040  -40.7920  -25.8320 C.3    33  PHE33       0.0534
     26  CG        14.9890  -40.3790  -24.6700 C.ar   33  PHE33      -0.0203
     27  CD1       14.1810  -41.2880  -24.0280 C.ar   33  PHE33      -0.0042
     28  CD2       14.9910  -39.0540  -24.2350 C.ar   33  PHE33      -0.0042
     29  CE1       13.4000  -40.9010  -22.9350 C.ar   33  PHE33      -0.0003
     30  CE2       14.2040  -38.6430  -23.1520 C.ar   33  PHE33      -0.0003
     31  CZ        13.4110  -39.5750  -22.4970 C.ar   33  PHE33      -0.0000
     32  N          9.3830  -41.7750  -21.4640 N.3    36  VAL36      -0.1245
     33  CA         9.4920  -42.5470  -20.2400 C.3    36  VAL36       0.1561
     34  C          8.2140  -42.3540  -19.4260 C.2    36  VAL36       0.2260
     35  O          7.8180  -41.2100  -19.1420 O.2    36  VAL36      -0.2867
     36  CB        10.7180  -42.1440  -19.4080 C.3    36  VAL36       0.0252
     37  CG1       10.7900  -42.9740  -18.1460 C.3    36  VAL36       0.0019
     38  CG2       11.9960  -42.2880  -20.2160 C.3    36  VAL36       0.0019
     39  N          9.6120  -47.8670  -14.3260 N.3    49  ALA49      -0.1245
     40  CA         9.7050  -46.8660  -15.3950 C.3    49  ALA49       0.1562
     41  C          9.5220  -47.6560  -16.6720 C.2    49  ALA49       0.2260
     42  O          9.9500  -48.8010  -16.7380 O.2    49  ALA49      -0.2867
     43  CB        11.0720  -46.1680  -15.3850 C.3    49  ALA49       0.0290
     44  N         10.6520  -46.9780  -20.2630 N.3    51  LYS51      -0.1245
     45  CA        11.3500  -46.2690  -21.3350 C.3    51  LYS51       0.1561
     46  C         10.9100  -46.8730  -22.6770 C.2    51  LYS51       0.2260
     47  O         11.1630  -48.0480  -22.9580 O.2    51  LYS51      -0.2867
     48  CB        12.8630  -46.4220  -21.1430 C.3    51  LYS51       0.0271
     49  CG        13.7370  -45.4130  -21.8820 C.3    51  LYS51       0.0035
     50  CD        15.1990  -45.6240  -21.4140 C.3    51  LYS51       0.0206
     51  CE        16.2280  -44.6050  -21.9370 C.3    51  LYS51       0.1093
     52  NZ        17.0100  -45.1900  -23.0740 N.3    51  LYS51      -0.1314
     53  N         20.0520  -49.7180  -12.3010 N.3    76  VAL76      -0.1245
     54  CA        18.6400  -49.8900  -12.4980 C.3    76  VAL76       0.1561
     55  C         18.3750  -51.2480  -13.2230 C.2    76  VAL76       0.2260
     56  O         18.9910  -51.5610  -14.2200 O.2    76  VAL76      -0.2867
     57  CB        18.1180  -48.6280  -13.1880 C.3    76  VAL76       0.0252
     58  CG1       17.9620  -48.8170  -14.6870 C.3    76  VAL76       0.0019
     59  CG2       16.8770  -48.1450  -12.5400 C.3    76  VAL76       0.0019
     60  N         11.6600  -50.8820  -16.2490 N.3    98  LEU98      -0.1231
     61  CA        12.7960  -50.6840  -15.3500 C.3    98  LEU98       0.1693
     62  C         12.3350  -50.3160  -13.9430 C.2    98  LEU98       0.2592
     63  O         11.2520  -49.7260  -13.7530 O.2    98  LEU98      -0.2718
     64  CB        13.7420  -49.5950  -15.9030 C.3    98  LEU98       0.0284
     65  CG        14.4120  -49.8990  -17.2650 C.3    98  LEU98       0.0019
     66  CD1       14.3730  -48.7370  -18.2320 C.3    98  LEU98       0.0001
     67  CD2       15.8370  -50.4280  -17.0810 C.3    98  LEU98       0.0001
     68  N         13.1520  -50.6830  -12.9640 N.am   99  ASP99      -0.1960
     69  CA        13.0360  -50.1510  -11.6300 C.3    99  ASP99       0.1840
     70  C         12.8200  -48.6590  -11.6650 C.2    99  ASP99       0.2622
     71  O         13.4500  -47.9440  -12.4430 O.2    99  ASP99      -0.2715
     72  CB        14.3410  -50.3440  -10.8960 C.3    99  ASP99       0.1450
     73  CG        14.5280  -51.7520  -10.4130 C.2    99  ASP99       0.3671
     74  OD1       13.5020  -52.5290  -10.3770 O.co2  99  ASP99      -0.2456
     75  OD2       15.7260  -52.0230  -10.0700 O.co2  99  ASP99      -0.2456
     76  N         11.9400  -48.1900  -10.7910 N.am  100  TYR100     -0.1960
     77  CA        11.6780  -46.7790  -10.6810 C.3   100  TYR100      0.1771
     78  C         12.4170  -46.3230   -9.4740 C.2   100  TYR100      0.2619
     79  O         12.4700  -47.0680   -8.5010 O.2   100  TYR100     -0.2715
     80  CB        10.2020  -46.5360  -10.4700 C.3   100  TYR100      0.0574
     81  CG         9.9210  -45.0810  -10.2920 C.ar  100  TYR100     -0.0198
     82  CD1       10.0710  -44.2010  -11.3620 C.ar  100  TYR100     -0.0009
     83  CD2        9.5360  -44.5750   -9.0480 C.ar  100  TYR100     -0.0009
     84  CE1        9.8320  -42.8520  -11.1990 C.ar  100  TYR100      0.0417
     85  CE2        9.2910  -43.2480   -8.8790 C.ar  100  TYR100      0.0417
     86  CZ         9.4400  -42.3860   -9.9570 C.ar  100  TYR100      0.1957
     87  OH         9.1990  -41.0430   -9.7950 O.3   100  TYR100     -0.2866
     88  N         12.9840  -45.1210   -9.5400 N.am  101  VAL101     -0.1964
     89  CA        13.6740  -44.4870   -8.4200 C.3   101  VAL101      0.1712
     90  C         13.4180  -42.9830   -8.5290 C.2   101  VAL101      0.2458
     91  O         13.7270  -42.3790   -9.5330 O.2   101  VAL101     -0.2730
     92  CB        15.1810  -44.7720   -8.4730 C.3   101  VAL101      0.0289
     93  CG1       15.9300  -44.0190   -7.3860 C.3   101  VAL101      0.0023
     94  CG2       15.4640  -46.2920   -8.3940 C.3   101  VAL101      0.0023
     95  N         12.8570  -42.3670   -7.4850 N.am  102  PRO102     -0.2727
     96  CA        12.1640  -41.0930   -7.7470 C.3   102  PRO102      0.1402
     97  C         13.0470  -39.8470   -7.8870 C.2   102  PRO102      0.2269
     98  O         12.5980  -38.8560   -8.4770 O.2   102  PRO102     -0.2865
     99  CB        11.2330  -40.9480   -6.5350 C.3   102  PRO102      0.0296
    100  CG        11.9250  -41.7020   -5.4330 C.3   102  PRO102      0.0237
    101  CD        12.8250  -42.7400   -6.0590 C.3   102  PRO102      0.0939
    102  N         17.1100  -37.8480   -8.3520 N.3   104  THR104     -0.1218
    103  CA        18.3440  -37.8170   -9.1130 C.3   104  THR104      0.1862
    104  C         19.3540  -36.9330   -8.3550 C.2   104  THR104      0.2287
    105  O         18.9950  -35.9010   -7.7800 O.2   104  THR104     -0.2866
    106  CB        18.0950  -37.2530  -10.5440 C.3   104  THR104      0.1770
    107  OG1       17.8870  -35.8420  -10.4990 O.3   104  THR104     -0.2211
    108  CG2       16.8530  -37.8660  -11.1710 C.3   104  THR104      0.0375
    109  N         18.9400  -33.2360   -9.2270 N.3   107  ARG107     -0.1245
    110  CA        17.9470  -32.4690   -8.4460 C.3   107  ARG107      0.1563
    111  C         18.3880  -32.1770   -7.0110 C.2   107  ARG107      0.2260
    112  O         18.0870  -31.1230   -6.5030 O.2   107  ARG107     -0.2867
    113  CB        16.5640  -33.1380   -8.4320 C.3   107  ARG107      0.0307
    114  CG        15.9230  -33.2750   -9.7850 C.3   107  ARG107      0.0489
    115  CD        14.6900  -34.1510   -9.7150 C.3   107  ARG107      0.2205
    116  NE        13.4600  -33.3560   -9.7160 N.pl3 107  ARG107     -0.0865
    117  CZ        12.7900  -32.9670   -8.6270 C.cat 107  ARG107      0.5346
    118  NH1       13.2160  -33.3190   -7.4130 N.pl3 107  ARG107      0.1354
    119  NH2       11.6860  -32.2280   -8.7560 N.pl3 107  ARG107      0.1354
    120  N         22.2610  -36.1790  -13.6240 N.3   151  GLN151     -0.1231
    121  CA        20.8610  -36.4990  -13.9000 C.3   151  GLN151      0.1698
    122  C         20.5580  -37.9330  -14.2960 C.2   151  GLN151      0.2592
    123  O         19.3980  -38.2950  -14.4270 O.2   151  GLN151     -0.2718
    124  CB        20.2560  -35.5660  -14.9300 C.3   151  GLN151      0.0381
    125  CG        21.1780  -35.1980  -16.0270 C.3   151  GLN151      0.0905
    126  CD        21.9920  -33.9410  -15.6730 C.2   151  GLN151      0.2608
    127  OE1       23.2270  -34.0050  -15.4600 O.2   151  GLN151     -0.2717
    128  NE2       21.2940  -32.7910  -15.5940 N.am  151  GLN151     -0.0878
    129  N         21.6060  -38.7330  -14.4790 N.am  152  ASN152     -0.1974
    130  CA        21.5280  -40.1680  -14.7280 C.3   152  ASN152      0.1688
    131  C         21.9120  -40.9690  -13.5140 C.2   152  ASN152      0.2292
    132  O         22.2520  -42.1580  -13.6440 O.2   152  ASN152     -0.2864
    133  CB        22.5370  -40.5470  -15.8020 C.3   152  ASN152      0.1181
    134  CG        22.0690  -40.1960  -17.1500 C.2   152  ASN152      0.2629
    135  OD1       20.8750  -40.0820  -17.3580 O.2   152  ASN152     -0.2716
    136  ND2       22.9870  -39.9970  -18.0790 N.am  152  ASN152     -0.0877
    137  N         20.2370  -41.9810  -10.2530 N.3   154  LEU154     -0.1245
    138  CA        19.0110  -41.9620   -9.4950 C.3   154  LEU154      0.1561
    139  C         19.2840  -42.1820   -8.0280 C.2   154  LEU154      0.2260
    140  O         20.2300  -42.8960   -7.6940 O.2   154  LEU154     -0.2867
    141  CB        18.0590  -43.0030  -10.0470 C.3   154  LEU154      0.0270
    142  CG        17.7950  -42.8880  -11.5410 C.3   154  LEU154      0.0019
    143  CD1       17.0730  -44.0960  -11.9970 C.3   154  LEU154      0.0001
    144  CD2       17.0350  -41.6260  -11.8930 C.3   154  LEU154      0.0001
    145  N         21.4300  -45.2670  -14.3490 N.3   165  CYS165     -0.1221
    146  CA        20.4700  -45.5720  -15.3570 C.3   165  CYS165      0.1808
    147  C         20.8660  -44.8970  -16.6760 C.2   165  CYS165      0.2601
    148  O         21.9460  -44.3130  -16.7830 O.2   165  CYS165     -0.2717
    149  CB        19.0990  -45.0730  -14.9080 C.3   165  CYS165      0.0970
    150  SG        19.0060  -43.2720  -14.9400 S.3   165  CYS165     -0.0800
    151  N         19.9590  -44.9830  -17.6580 N.am  166  ASP166     -0.1973
    152  CA        20.1270  -44.4670  -19.0090 C.3   166  ASP166      0.1709
    153  C         21.2620  -45.1220  -19.7670 C.2   166  ASP166      0.2293
    154  O         22.3520  -44.5720  -19.8620 O.2   166  ASP166     -0.2864
    155  CB        20.3190  -42.9740  -18.9890 C.3   166  ASP166      0.1436
    156  CG        20.1280  -42.3600  -20.3290 C.2   166  ASP166      0.3671
    157  OD1       19.7940  -43.0910  -21.3040 O.co2 166  ASP166     -0.2456
    158  OD2       20.3010  -41.1170  -20.3950 O.co2 166  ASP166     -0.2456
@<TRIPOS>BOND
     1    24    23    2
     2    23    22    1
     3    21    22    1
     4    22    25    1
     5    25    26    1
     6    20    18   am
     7    26    28   ar
     8    26    27   ar
     9    28    30   ar
    10    27    29   ar
    11    18    17    1
    12    18    19    2
    13    17    14    1
    14    15    14    1
    15    15    16    2
    16    30    31   ar
    17    52    51    1
    18    14    13    1
    19    47    46    2
    20    29    31   ar
    21    46    45    1
    22    51    50    1
    23    49    50    1
    24    49    48    1
    25    13    11   am
    26    32    33    1
    27    12    11    2
    28    45    48    1
    29    45    44    1
    30   157   156   ar
    31    11    10    1
    32   158   156   ar
    33   156   155    1
    34    33    34    1
    35    33    36    1
    36    38    36    1
    37   154   153    2
    38   153   152    1
    39    34    35    2
    40    10     9    2
    41    36    37    1
    42   152   155    1
    43   152   151    1
    44     9     3    1
    45    66    65    1
    46   136   134   am
    47   151   147   am
    48     1     2    1
    49   135   134    2
    50     3     4    2
    51     3     2    1
    52    65    67    1
    53    65    64    1
    54   134   133    1
    55   148   147    2
    56    42    41    2
    57   147   146    1
    58    41    40    1
    59     2     5    1
    60    60    61    1
    61   125   126    1
    62   125   124    1
    63     6     5    1
    64     6     8    1
    65    64    61    1
    66   133   130    1
    67   126   128   am
    68   126   127    2
    69     5     7    1
    70    40    43    1
    71    40    39    1
    72   146   149    1
    73   146   145    1
    74    61    62    1
    75   150   149    1
    76   124   121    1
    77   130   129    1
    78   130   131    1
    79    58    57    1
    80   129   122   am
    81   123   122    2
    82   122   121    1
    83    56    55    2
    84    62    63    2
    85    62    68   am
    86   121   120    1
    87   132   131    2
    88    55    54    1
    89    57    59    1
    90    57    54    1
    91    68    69    1
    92    54    53    1
    93    71    70    2
    94   143   142    1
    95   144   142    1
    96    70    69    1
    97    70    76   am
    98    69    72    1
    99   142   141    1
   100    82    84   ar
   101    82    81   ar
   102    84    86   ar
   103   108   106    1
   104    72    73    1
   105    76    77    1
   106    77    80    1
   107    77    78    1
   108   106   107    1
   109   106   103    1
   110    80    81    1
   111    73    74   ar
   112    73    75   ar
   113    81    83   ar
   114   137   138    1
   115   141   138    1
   116    86    87    1
   117    86    85   ar
   118   114   115    1
   119   114   113    1
   120   116   115    1
   121   116   117    2
   122    88    78   am
   123    88    89    1
   124    91    90    2
   125   138   139    1
   126    78    79    2
   127   109   110    1
   128   103   104    1
   129   103   102    1
   130    83    85   ar
   131   119   117    1
   132   117   118    1
   133    90    89    1
   134    90    95   am
   135    98    97    2
   136    92    89    1
   137    92    94    1
   138    92    93    1
   139   110   113    1
   140   110   111    1
   141   104   105    2
   142   139   140    2
   143    97    96    1
   144    96    95    1
   145    96    99    1
   146    95   101    1
   147   111   112    2
   148    99   100    1
   149   101   100    1
