@<TRIPOS>MOLECULE
tmp/3sd5A00.pdb
 200 187 0 0 0
SMALL
GASTEIGER

@<TRIPOS>ATOM
      1  N         18.8580   16.4690   12.6550 N.3   546  MET546     -0.1245
      2  CA        19.0450   17.4480   13.7210 C.3   546  MET546      0.1570
      3  C         19.9390   18.6380   13.3600 C.2   546  MET546      0.2261
      4  O         20.8220   18.5370   12.5090 O.2   546  MET546     -0.2867
      5  CB        19.5730   16.7470   14.9750 C.3   546  MET546      0.0387
      6  CG        19.5910   17.6130   16.2150 C.3   546  MET546      0.0595
      7  SD        19.8950   16.6460   17.7000 S.3   546  MET546     -0.1393
      8  CE        21.4310   15.8370   17.2660 C.3   546  MET546      0.0692
      9  N         22.4640   19.8550   14.5850 N.3   548  SER548     -0.1217
     10  CA        23.7280   19.7410   15.2940 C.3   548  SER548      0.1889
     11  C         24.8760   20.2060   14.4110 C.2   548  SER548      0.2288
     12  O         24.6700   20.6020   13.2650 O.2   548  SER548     -0.2866
     13  CB        23.9640   18.2970   15.7390 C.3   548  SER548      0.2089
     14  OG        25.2560   18.1470   16.2990 O.3   548  SER548     -0.2183
     15  N         27.3970   18.1300   13.6580 N.3   550  LYS550     -0.1245
     16  CA        27.5530   16.9520   12.8160 C.3   550  LYS550      0.1561
     17  C         26.2380   16.6220   12.1210 C.2   550  LYS550      0.2260
     18  O         26.2090   15.8510   11.1610 O.2   550  LYS550     -0.2867
     19  CB        28.0260   15.7570   13.6470 C.3   550  LYS550      0.0271
     20  CG        29.4990   15.8070   14.0230 C.3   550  LYS550      0.0035
     21  CD        30.3700   15.6220   12.7910 C.3   550  LYS550      0.0206
     22  CE        31.8510   15.6860   13.1270 C.3   550  LYS550      0.1093
     23  NZ        32.6780   15.4040   11.9210 N.3   550  LYS550     -0.1314
     24  N         23.2030   14.7850   12.7670 N.3   552  PRO552     -0.2116
     25  CA        22.9540   13.3460   12.6260 C.3   552  PRO552      0.1372
     26  C         21.4950   13.0080   12.3130 C.2   552  PRO552      0.2244
     27  O         20.6370   13.8930   12.3290 O.2   552  PRO552     -0.2868
     28  CB        23.3410   12.8030   14.0000 C.3   552  PRO552      0.0268
     29  CG        22.9940   13.9100   14.9320 C.3   552  PRO552      0.0207
     30  CD        23.2230   15.2010   14.1800 C.3   552  PRO552      0.0892
     31  N         17.9640   11.6600   13.1770 N.3   554  TRP554     -0.1241
     32  CA        17.0670   11.3880   14.2940 C.3   554  TRP554      0.1605
     33  C         15.9700   10.4400   13.8220 C.2   554  TRP554      0.2264
     34  O         15.1610   10.8040   12.9680 O.2   554  TRP554     -0.2867
     35  CB        16.4510   12.6920   14.8000 C.3   554  TRP554      0.0550
     36  CG        15.5880   12.5310   16.0070 C.ar  554  TRP554      0.0003
     37  CD1       14.3920   11.8740   16.0810 C.ar  554  TRP554      0.0946
     38  CD2       15.8390   13.0560   17.3140 C.ar  554  TRP554      0.0152
     39  NE1       13.8900   11.9500   17.3580 N.ar  554  TRP554     -0.2442
     40  CE2       14.7590   12.6720   18.1330 C.ar  554  TRP554      0.0810
     41  CE3       16.8750   13.8100   17.8730 C.ar  554  TRP554      0.0012
     42  CZ2       14.6870   13.0150   19.4810 C.ar  554  TRP554      0.0191
     43  CZ3       16.8000   14.1500   19.2110 C.ar  554  TRP554      0.0001
     44  CH2       15.7140   13.7530   20.0000 C.ar  554  TRP554      0.0015
     45  N         19.4950    7.4450   17.3340 N.3   571  ILE571     -0.1245
     46  CA        20.2790    8.4730   16.6600 C.3   571  ILE571      0.1561
     47  C         21.4300    7.8630   15.8670 C.2   571  ILE571      0.2260
     48  O         22.2290    7.0960   16.4050 O.2   571  ILE571     -0.2867
     49  CB        20.8470    9.4980   17.6560 C.3   571  ILE571      0.0252
     50  CG1       19.7490   10.4610   18.1040 C.3   571  ILE571      0.0019
     51  CG2       21.9940   10.2640   17.0210 C.3   571  ILE571      0.0019
     52  CD1       20.1980   11.4630   19.1430 C.3   571  ILE571      0.0001
     53  N         24.7630    8.7690   13.8260 N.3   573  LYS573     -0.1245
     54  CA        25.7490    9.8220   13.5990 C.3   573  LYS573      0.1561
     55  C         26.9720    9.3200   12.8320 C.2   573  LYS573      0.2260
     56  O         27.3730    8.1610   12.9740 O.2   573  LYS573     -0.2867
     57  CB        26.1930   10.4250   14.9370 C.3   573  LYS573      0.0271
     58  CG        26.8140   11.7270   14.7260 C.3   573  LYS573      0.0035
     59  CD        27.2980   12.3700   16.0270 C.3   573  LYS573      0.0206
     60  CE        26.1700   12.5250   17.0370 C.3   573  LYS573      0.1093
     61  NZ        26.5910   13.2010   18.2800 N.3   573  LYS573     -0.1314
     62  N         31.9840   11.1740   14.3800 N.3   576  ASP576     -0.1239
     63  CA        32.5140   11.0330   15.7330 C.3   576  ASP576      0.1674
     64  C         32.8300    9.5810   16.0780 C.2   576  ASP576      0.2266
     65  O         31.9910    8.6900   15.9100 O.2   576  ASP576     -0.2867
     66  CB        31.5480   11.6250   16.7600 C.3   576  ASP576      0.1410
     67  CG        31.3290   13.1070   16.5580 C.2   576  ASP576      0.3668
     68  OD1       32.2880   13.7990   16.1600 O.co2 576  ASP576     -0.2456
     69  OD2       30.1980   13.5800   16.7950 O.co2 576  ASP576     -0.2456
     70  N         32.7030    6.7430   17.9430 N.3   578  LEU578     -0.1245
     71  CA        31.7950    6.3240   19.0030 C.3   578  LEU578      0.1561
     72  C         32.3450    5.2050   19.8810 C.2   578  LEU578      0.2260
     73  O         31.7010    4.8020   20.8480 O.2   578  LEU578     -0.2867
     74  CB        30.4360    5.9340   18.4210 C.3   578  LEU578      0.0270
     75  CG        29.6210    7.1210   17.9060 C.3   578  LEU578      0.0019
     76  CD1       28.3750    6.6460   17.1900 C.3   578  LEU578      0.0001
     77  CD2       29.2650    8.0500   19.0550 C.3   578  LEU578      0.0001
     78  N         32.9890    7.1070   23.0220 N.3   581  ASP581     -0.1239
     79  CA        31.7340    7.2430   23.7520 C.3   581  ASP581      0.1674
     80  C         31.2940    5.9260   24.3860 C.2   581  ASP581      0.2266
     81  O         30.7420    5.9130   25.4850 O.2   581  ASP581     -0.2867
     82  CB        30.6320    7.7800   22.8390 C.3   581  ASP581      0.1410
     83  CG        30.8860    9.2070   22.3970 C.2   581  ASP581      0.3668
     84  OD1       30.4230   10.1370   23.0920 O.co2 581  ASP581     -0.2456
     85  OD2       31.5530    9.3960   21.3590 O.co2 581  ASP581     -0.2456
     86  N         23.1490    6.4140   28.5300 N.3   607  TYR607     -0.1241
     87  CA        22.3570    6.0540   27.3580 C.3   607  TYR607      0.1605
     88  C         23.0590    5.0270   26.4790 C.2   607  TYR607      0.2264
     89  O         24.2900    4.9490   26.4520 O.2   607  TYR607     -0.2867
     90  CB        21.9820    7.2930   26.5420 C.3   607  TYR607      0.0534
     91  CG        23.1560    8.1480   26.1250 C.ar  607  TYR607     -0.0201
     92  CD1       23.9520    7.7920   25.0450 C.ar  607  TYR607     -0.0009
     93  CD2       23.4570    9.3220   26.8020 C.ar  607  TYR607     -0.0009
     94  CE1       25.0210    8.5760   24.6540 C.ar  607  TYR607      0.0417
     95  CE2       24.5220   10.1100   26.4190 C.ar  607  TYR607      0.0417
     96  CZ        25.3010    9.7330   25.3450 C.ar  607  TYR607      0.1957
     97  OH        26.3640   10.5210   24.9630 O.3   607  TYR607     -0.2866
     98  N         23.0090    5.8340   18.6420 N.3   619  ILE619     -0.1231
     99  CA        22.8020    6.2760   20.0190 C.3   619  ILE619      0.1692
    100  C         21.3290    6.2090   20.4160 C.2   619  ILE619      0.2592
    101  O         20.4460    6.4970   19.6110 O.2   619  ILE619     -0.2718
    102  CB        23.3140    7.7140   20.2280 C.3   619  ILE619      0.0266
    103  CG1       24.7670    7.8290   19.7730 C.3   619  ILE619      0.0019
    104  CG2       23.1650    8.1190   21.6830 C.3   619  ILE619      0.0020
    105  CD1       25.3420    9.2170   19.9200 C.3   619  ILE619      0.0001
    106  N         21.0700    5.8170   21.6600 N.am  620  GLU620     -0.1966
    107  CA        19.7070    5.7540   22.1890 C.3   620  GLU620      0.1733
    108  C         19.1630    7.1480   22.4700 C.2   620  GLU620      0.2616
    109  O         19.8670    8.0040   23.0050 O.2   620  GLU620     -0.2715
    110  CB        19.6620    4.9120   23.4690 C.3   620  GLU620      0.0429
    111  CG        18.3960    5.0880   24.2970 C.3   620  GLU620      0.1163
    112  CD        18.3920    4.2230   25.5450 C.2   620  GLU620      0.3649
    113  OE1       19.4050    3.5360   25.7940 O.co2 620  GLU620     -0.2457
    114  OE2       17.3780    4.2240   26.2740 O.co2 620  GLU620     -0.2457
    115  N         17.9050    7.3680   22.1090 N.am  621  ILE621     -0.1963
    116  CA        17.2500    8.6420   22.3720 C.3   621  ILE621      0.1727
    117  C         16.4700    8.6030   23.6780 C.2   621  ILE621      0.2616
    118  O         15.4650    7.9020   23.7900 O.2   621  ILE621     -0.2715
    119  CB        16.2820    9.0240   21.2410 C.3   621  ILE621      0.0290
    120  CG1       17.0470    9.2230   19.9360 C.3   621  ILE621      0.0022
    121  CG2       15.5410   10.2950   21.5930 C.3   621  ILE621      0.0023
    122  CD1       16.1760    9.6820   18.7920 C.3   621  ILE621      0.0001
    123  N         16.9440    9.3550   24.6660 N.am  622  VAL622     -0.1977
    124  CA        16.2350    9.4810   25.9300 C.3   622  VAL622      0.1596
    125  C         14.9810   10.3270   25.7470 C.2   622  VAL622      0.2287
    126  O         15.0580   11.5180   25.4520 O.2   622  VAL622     -0.2864
    127  CB        17.1180   10.1130   27.0170 C.3   622  VAL622      0.0276
    128  CG1       16.3040   10.3580   28.2750 C.3   622  VAL622      0.0022
    129  CG2       18.3190    9.2220   27.3080 C.3   622  VAL622      0.0022
    130  N         13.7450   14.5430   26.6510 N.3   625  ALA625     -0.1231
    131  CA        14.9170   15.2420   27.1720 C.3   625  ALA625      0.1694
    132  C         15.3410   16.3810   26.2520 C.2   625  ALA625      0.2593
    133  O         15.2240   16.2780   25.0320 O.2   625  ALA625     -0.2718
    134  CB        16.0660   14.2720   27.3750 C.3   625  ALA625      0.0304
    135  N         15.8320   17.4680   26.8390 N.am  626  THR626     -0.1939
    136  CA        16.3520   18.5790   26.0530 C.3   626  THR626      0.2028
    137  C         17.6130   19.1670   26.6730 C.2   626  THR626      0.2642
    138  O         17.9220   18.9100   27.8400 O.2   626  THR626     -0.2714
    139  CB        15.3110   19.6980   25.8670 C.3   626  THR626      0.1808
    140  OG1       15.9310   20.8140   25.2190 O.3   626  THR626     -0.2208
    141  CG2       14.7610   20.1460   27.2110 C.3   626  THR626      0.0379
    142  N         18.3340   19.9560   25.8850 N.am  627  THR627     -0.1950
    143  CA        19.6070   20.5220   26.3150 C.3   627  THR627      0.1897
    144  C         19.4240   21.6930   27.2820 C.2   627  THR627      0.2313
    145  O         18.4830   22.4790   27.1480 O.2   627  THR627     -0.2863
    146  CB        20.4400   20.9880   25.1030 C.3   627  THR627      0.1794
    147  OG1       20.6970   19.8690   24.2460 O.3   627  THR627     -0.2208
    148  CG2       21.7570   21.5730   25.5510 C.3   627  THR627      0.0378
    149  N         19.5610   24.9110   25.2080 N.3   630  LYS630     -0.1245
    150  CA        18.3330   25.2760   24.5120 C.3   630  LYS630      0.1561
    151  C         17.3190   25.8900   25.4660 C.2   630  LYS630      0.2260
    152  O         16.4560   26.6660   25.0510 O.2   630  LYS630     -0.2867
    153  CB        17.7210   24.0600   23.8150 C.3   630  LYS630      0.0271
    154  CG        18.6060   23.4230   22.7670 C.3   630  LYS630      0.0035
    155  CD        18.9380   24.4140   21.6690 C.3   630  LYS630      0.0206
    156  CE        19.4840   23.7060   20.4420 C.3   630  LYS630      0.1093
    157  NZ        20.5890   22.7890   20.8360 N.3   630  LYS630     -0.1314
    158  N         25.5020   22.8390   26.1260 N.3   688  ASP688     -0.1239
    159  CA        24.9190   22.0460   25.0490 C.3   688  ASP688      0.1674
    160  C         25.2610   20.5650   25.1730 C.2   688  ASP688      0.2266
    161  O         24.6940   19.7210   24.4780 O.2   688  ASP688     -0.2867
    162  CB        25.3570   22.5860   23.6860 C.3   688  ASP688      0.1410
    163  CG        24.5190   22.0400   22.5500 C.2   688  ASP688      0.3668
    164  OD1       23.4280   22.5930   22.2970 O.co2 688  ASP688     -0.2456
    165  OD2       24.9470   21.0550   21.9140 O.co2 688  ASP688     -0.2456
    166  N         22.1180   17.5450   29.2670 N.3   691  MET691     -0.1245
    167  CA        20.6790   17.5670   29.0330 C.3   691  MET691      0.1570
    168  C         19.8970   17.2390   30.2990 C.2   691  MET691      0.2261
    169  O         20.4700   16.8740   31.3250 O.2   691  MET691     -0.2867
    170  CB        20.2920   16.5950   27.9110 C.3   691  MET691      0.0387
    171  CG        21.0440   16.8130   26.6000 C.3   691  MET691      0.0595
    172  SD        20.5310   15.6780   25.2930 S.3   691  MET691     -0.1393
    173  CE        18.8340   16.1570   25.0330 C.3   691  MET691      0.0692
    174  N         21.6440   14.7790   32.5450 N.3   699  PHE699     -0.1241
    175  CA        22.6160   13.8250   32.0110 C.3   699  PHE699      0.1605
    176  C         23.5170   14.3920   30.9120 C.2   699  PHE699      0.2264
    177  O         23.0650   15.1250   30.0340 O.2   699  PHE699     -0.2867
    178  CB        21.9120   12.5550   31.5250 C.3   699  PHE699      0.0534
    179  CG        20.9860   12.7780   30.3660 C.ar  699  PHE699     -0.0203
    180  CD1       21.4170   12.5700   29.0650 C.ar  699  PHE699     -0.0042
    181  CD2       19.6830   13.1930   30.5780 C.ar  699  PHE699     -0.0042
    182  CE1       20.5680   12.7710   28.0020 C.ar  699  PHE699     -0.0003
    183  CE2       18.8240   13.3970   29.5190 C.ar  699  PHE699     -0.0003
    184  CZ        19.2660   13.1860   28.2260 C.ar  699  PHE699     -0.0000
    185  N         26.2320   14.3310   27.6240 N.3   701  ILE701     -0.1231
    186  CA        26.2640   13.6830   26.3130 C.3   701  ILE701      0.1692
    187  C         27.5460   13.9960   25.5420 C.2   701  ILE701      0.2592
    188  O         28.2700   14.9290   25.8800 O.2   701  ILE701     -0.2718
    189  CB        25.0540   14.0910   25.4460 C.3   701  ILE701      0.0266
    190  CG1       24.9810   15.6150   25.3160 C.3   701  ILE701      0.0019
    191  CG2       23.7670   13.5210   26.0270 C.3   701  ILE701      0.0020
    192  CD1       24.0770   16.0890   24.1970 C.3   701  ILE701      0.0001
    193  N         27.8170   13.2030   24.5080 N.am  702  ASP702     -0.1974
    194  CA        28.9600   13.4260   23.6230 C.3   702  ASP702      0.1709
    195  C         30.2810   13.4290   24.3830 C.2   702  ASP702      0.2293
    196  O         30.7460   14.4760   24.8300 O.2   702  ASP702     -0.2864
    197  CB        28.7890   14.7470   22.8750 C.3   702  ASP702      0.1436
    198  CG        29.5340   14.7720   21.5610 C.2   702  ASP702      0.3671
    199  OD1       30.5310   14.0330   21.4260 O.co2 702  ASP702     -0.2456
    200  OD2       29.1140   15.5250   20.6580 O.co2 702  ASP702     -0.2456
@<TRIPOS>BOND
     1    18    17    2
     2    23    22    1
     3    17    16    1
     4    26    27    2
     5    26    25    1
     6     4     3    2
     7    25    24    1
     8    25    28    1
     9     1     2    1
    10    24    30    1
    11    21    22    1
    12    21    20    1
    13    16    19    1
    14    16    15    1
    15    55    56    2
    16    55    54    1
    17    34    33    2
    18    31    32    1
    19    12    11    2
    20     3     2    1
    21    54    53    1
    22    54    57    1
    23    19    20    1
    24     2     5    1
    25    33    32    1
    26    28    29    1
    27    30    29    1
    28    32    35    1
    29    62    63    1
    30    11    10    1
    31     9    10    1
    32    58    57    1
    33    58    59    1
    34    35    36    1
    35     5     6    1
    36    10    13    1
    37    63    64    1
    38    63    66    1
    39    13    14    1
    40    47    48    2
    41    47    46    1
    42    65    64    2
    43    36    37   ar
    44    36    38   ar
    45    59    60    1
    46    37    39   ar
    47    68    67   ar
    48     6     7    1
    49    67    66    1
    50    67    69   ar
    51    46    45    1
    52    46    49    1
    53    51    49    1
    54    60    61    1
    55    76    75    1
    56     8     7    1
    57    38    41   ar
    58    38    40   ar
    59    39    40   ar
    60    49    50    1
    61    41    43   ar
    62    75    74    1
    63    75    77    1
    64    70    71    1
    65    50    52    1
    66    40    42   ar
    67    74    71    1
    68    98    99    1
    69   122   120    1
    70    71    72    1
    71    43    44   ar
    72    42    44   ar
    73   101   100    2
    74   103   105    1
    75   103   102    1
    76    72    73    2
    77   120   119    1
    78    99   102    1
    79    99   100    1
    80   102   104    1
    81   100   106   am
    82   156   157    1
    83   156   155    1
    84   200   198   ar
    85   119   121    1
    86   119   116    1
    87    85    83   ar
    88   199   198   ar
    89   198   197    1
    90   106   107    1
    91   155   154    1
    92   165   163   ar
    93   115   116    1
    94   115   108   am
    95   107   108    1
    96   107   110    1
    97   164   163   ar
    98   116   117    1
    99    83    82    1
   100    83    84   ar
   101   108   109    2
   102   163   162    1
   103   154   153    1
   104    82    79    1
   105   197   194    1
   106    78    79    1
   107   110   111    1
   108   194   195    1
   109   194   193    1
   110   117   118    2
   111   117   123   am
   112   162   159    1
   113    79    80    1
   114   153   150    1
   115   192   190    1
   116   147   146    1
   117   111   112    1
   118   195   196    2
   119    80    81    2
   120   161   160    2
   121   193   187   am
   122   150   149    1
   123   150   151    1
   124    94    92   ar
   125    94    96   ar
   126   123   124    1
   127    97    96    1
   128   133   132    2
   129   173   172    1
   130    92    91   ar
   131   159   160    1
   132   159   158    1
   133   152   151    2
   134   146   148    1
   135   146   143    1
   136   140   139    1
   137   172   171    1
   138   190   189    1
   139    96    95   ar
   140   189   191    1
   141   189   186    1
   142   126   125    2
   143   187   188    2
   144   187   186    1
   145   112   113   ar
   146   112   114   ar
   147   125   124    1
   148   139   136    1
   149   139   141    1
   150   142   143    1
   151   142   137   am
   152   124   127    1
   153   136   137    1
   154   136   135    1
   155    91    90    1
   156    91    93   ar
   157   132   135   am
   158   132   131    1
   159   186   185    1
   160   143   144    1
   161    95    93   ar
   162    89    88    2
   163    88    87    1
   164    90    87    1
   165   171   170    1
   166   130   131    1
   167   137   138    2
   168   127   129    1
   169   127   128    1
   170   145   144    2
   171   131   134    1
   172    87    86    1
   173   170   167    1
   174   182   184   ar
   175   182   180   ar
   176   184   183   ar
   177   167   166    1
   178   167   168    1
   179   180   179   ar
   180   183   181   ar
   181   177   176    2
   182   168   169    2
   183   179   181   ar
   184   179   178    1
   185   176   175    1
   186   178   175    1
   187   175   174    1
