@<TRIPOS>MOLECULE
tmp/3sd7A00.pdb
 99 98 0 0 0
SMALL
GASTEIGER

@<TRIPOS>ATOM
      1  N         74.0900   31.1990    3.2940 N.3    98  TYR98      -0.1241
      2  CA        75.4120   30.7550    2.8770 C.3    98  TYR98       0.1605
      3  C         75.6260   29.2680    3.1280 C.2    98  TYR98       0.2264
      4  O         76.1770   28.5630    2.2770 O.2    98  TYR98      -0.2867
      5  CB        76.4290   31.5640    3.6230 C.3    98  TYR98       0.0534
      6  CG        77.8510   31.3420    3.1870 C.ar   98  TYR98      -0.0201
      7  CD1       78.3500   31.9800    2.0740 C.ar   98  TYR98      -0.0009
      8  CD2       78.6820   30.5140    3.9010 C.ar   98  TYR98      -0.0009
      9  CE1       79.6590   31.8180    1.6800 C.ar   98  TYR98       0.0417
     10  CE2       80.0090   30.3450    3.5190 C.ar   98  TYR98       0.0417
     11  CZ        80.4770   31.0150    2.3990 C.ar   98  TYR98       0.1957
     12  OH        81.7820   30.8530    1.9760 O.3    98  TYR98      -0.2866
     13  N         73.7460   29.0720   -1.0880 N.3   102  LYS102     -0.1231
     14  CA        73.3140   30.1630   -1.9640 C.3   102  LYS102      0.1693
     15  C         74.4630   31.1090   -2.2270 C.2   102  LYS102      0.2592
     16  O         75.3380   31.2900   -1.3830 O.2   102  LYS102     -0.2718
     17  CB        72.1380   30.9110   -1.3610 C.3   102  LYS102      0.0285
     18  CG        70.9380   30.0120   -1.2540 C.3   102  LYS102      0.0035
     19  CD        69.7070   30.6860   -0.8540 C.3   102  LYS102      0.0206
     20  CE        68.6170   29.6410   -0.5490 C.3   102  LYS102      0.1093
     21  NZ        68.2710   28.6510   -1.6300 N.3   102  LYS102     -0.1314
     22  N         74.4820   31.6750   -3.4370 N.am  103  ILE103     -0.1966
     23  CA        75.4510   32.6860   -3.8010 C.3   103  ILE103      0.1727
     24  C         74.8090   34.0270   -3.4260 C.2   103  ILE103      0.2616
     25  O         73.6810   34.3400   -3.8640 O.2   103  ILE103     -0.2715
     26  CB        75.7320   32.6530   -5.3060 C.3   103  ILE103      0.0290
     27  CG1       76.4510   31.3520   -5.6510 C.3   103  ILE103      0.0022
     28  CG2       76.6190   33.8530   -5.6840 C.3   103  ILE103      0.0023
     29  CD1       76.5420   31.0860   -7.1400 C.3   103  ILE103      0.0001
     30  N         75.5220   34.7820   -2.5940 N.am  104  LEU104     -0.1977
     31  CA        75.0390   36.0560   -2.0810 C.3   104  LEU104      0.1596
     32  C         75.8960   37.1680   -2.6870 C.2   104  LEU104      0.2287
     33  O         77.1460   37.0880   -2.7290 O.2   104  LEU104     -0.2864
     34  CB        75.1340   36.0810   -0.5680 C.3   104  LEU104      0.0297
     35  CG        74.5090   34.8860    0.1610 C.3   104  LEU104      0.0022
     36  CD1       74.6170   35.0760    1.6860 C.3   104  LEU104      0.0001
     37  CD2       73.0510   34.6950   -0.2580 C.3   104  LEU104      0.0001
     38  N         82.9160   44.4520    5.9360 N.3   120  ARG120     -0.1245
     39  CA        84.0890   44.0040    6.6700 C.3   120  ARG120      0.1563
     40  C         83.9580   44.3580    8.1700 C.2   120  ARG120      0.2260
     41  O         84.2480   43.5200    9.0320 O.2   120  ARG120     -0.2867
     42  CB        85.3380   44.6160    6.0580 C.3   120  ARG120      0.0307
     43  CG        85.7640   43.9950    4.7850 C.3   120  ARG120      0.0489
     44  CD        86.9370   44.7420    4.1600 C.3   120  ARG120      0.2205
     45  NE        87.5860   43.9120    3.1690 N.pl3 120  ARG120     -0.0865
     46  CZ        88.6650   43.1480    3.3910 C.cat 120  ARG120      0.5346
     47  NH1       89.2780   43.1020    4.5670 N.pl3 120  ARG120      0.1354
     48  NH2       89.1360   42.4280    2.4100 N.pl3 120  ARG120      0.1354
     49  N         81.3110   40.3610    5.2810 N.3   125  ASP125     -0.1225
     50  CA        81.9150   40.3870    3.9490 C.3   125  ASP125      0.1805
     51  C         82.1310   38.9650    3.4380 C.2   125  ASP125      0.2598
     52  O         81.8850   38.6560    2.2580 O.2   125  ASP125     -0.2718
     53  CB        83.2660   41.1030    4.0140 C.3   125  ASP125      0.1424
     54  CG        84.0460   41.0010    2.7160 C.2   125  ASP125      0.3668
     55  OD1       83.5130   41.4020    1.6890 O.co2 125  ASP125     -0.2456
     56  OD2       85.2070   40.5300    2.7340 O.co2 125  ASP125     -0.2456
     57  N         82.5810   38.0980    4.3480 N.am  126  ARG126     -0.1966
     58  CA        82.8740   36.7110    4.0570 C.3   126  ARG126      0.1729
     59  C         81.7290   35.9060    3.4180 C.2   126  ARG126      0.2616
     60  O         81.9710   34.9030    2.7790 O.2   126  ARG126     -0.2715
     61  CB        83.3230   35.9990    5.3630 C.3   126  ARG126      0.0348
     62  CG        82.2300   35.9340    6.4310 C.3   126  ARG126      0.0492
     63  CD        82.6630   35.2320    7.7230 C.3   126  ARG126      0.2205
     64  NE        83.7700   35.9290    8.3710 N.pl3 126  ARG126     -0.0865
     65  CZ        84.4180   35.4900    9.4500 C.cat 126  ARG126      0.5346
     66  NH1       84.0690   34.3460   10.0410 N.pl3 126  ARG126      0.1354
     67  NH2       85.4240   36.2030    9.9440 N.pl3 126  ARG126      0.1354
     68  N         80.4880   36.3400    3.5850 N.am  127  TYR127     -0.1960
     69  CA        79.3360   35.5920    3.0300 C.3   127  TYR127      0.1771
     70  C         78.9800   35.9770    1.5930 C.2   127  TYR127      0.2620
     71  O         78.1750   35.3040    0.9700 O.2   127  TYR127     -0.2715
     72  CB        78.0930   35.7870    3.9250 C.3   127  TYR127      0.0574
     73  CG        78.3760   35.3660    5.3530 C.ar  127  TYR127     -0.0198
     74  CD1       78.7810   34.0770    5.6280 C.ar  127  TYR127     -0.0009
     75  CD2       78.3090   36.2760    6.4040 C.ar  127  TYR127     -0.0009
     76  CE1       79.1020   33.6790    6.9150 C.ar  127  TYR127      0.0417
     77  CE2       78.6070   35.8790    7.7210 C.ar  127  TYR127      0.0417
     78  CZ        79.0100   34.5790    7.9600 C.ar  127  TYR127      0.1957
     79  OH        79.3360   34.1590    9.2510 O.3   127  TYR127     -0.2866
     80  N         79.5800   37.0510    1.0790 N.am  128  PHE128     -0.1960
     81  CA        79.2700   37.5450   -0.2560 C.3   128  PHE128      0.1771
     82  C         80.3730   37.2190   -1.2640 C.2   128  PHE128      0.2619
     83  O         81.5510   37.4740   -1.0180 O.2   128  PHE128     -0.2715
     84  CB        79.0470   39.0620   -0.2260 C.3   128  PHE128      0.0574
     85  CG        77.8800   39.4600    0.6200 C.ar  128  PHE128     -0.0200
     86  CD1       76.6090   39.4150    0.0980 C.ar  128  PHE128     -0.0042
     87  CD2       78.0530   39.8590    1.9390 C.ar  128  PHE128     -0.0042
     88  CE1       75.5220   39.7350    0.8600 C.ar  128  PHE128     -0.0003
     89  CE2       76.9460   40.1920    2.7170 C.ar  128  PHE128     -0.0003
     90  CZ        75.6880   40.1100    2.1750 C.ar  128  PHE128     -0.0000
     91  N         79.9690   36.6730   -2.3900 N.am  129  LYS129     -0.1977
     92  CA        80.9220   36.3470   -3.4510 C.3   129  LYS129      0.1596
     93  C         81.4660   37.5920   -4.0960 C.2   129  LYS129      0.2287
     94  O         82.6800   37.6750   -4.3170 O.2   129  LYS129     -0.2864
     95  CB        80.2940   35.4280   -4.4800 C.3   129  LYS129      0.0298
     96  CG        81.2920   34.9040   -5.4980 C.3   129  LYS129      0.0038
     97  CD        80.6860   33.8140   -6.3890 C.3   129  LYS129      0.0206
     98  CE        81.7030   33.2450   -7.3920 C.3   129  LYS129      0.1093
     99  NZ        82.8960   32.5670   -6.7790 N.3   129  LYS129     -0.1314
@<TRIPOS>BOND
     1    98    99    1
     2    98    97    1
     3    29    27    1
     4    97    96    1
     5    28    26    1
     6    27    26    1
     7    96    95    1
     8    26    23    1
     9    95    92    1
    10    94    93    2
    11    93    92    1
    12    25    24    2
    13    23    22    1
    14    23    24    1
    15    92    91    1
    16    22    15   am
    17    24    30   am
    18    33    32    2
    19    32    31    1
    20    30    31    1
    21    91    82   am
    22    15    14    1
    23    15    16    2
    24    31    34    1
    25    14    17    1
    26    14    13    1
    27    21    20    1
    28    17    18    1
    29    82    83    2
    30    82    81    1
    31    18    19    1
    32    19    20    1
    33    34    35    1
    34    37    35    1
    35    81    84    1
    36    81    80    1
    37    84    85    1
    38    86    85   ar
    39    86    88   ar
    40    35    36    1
    41    85    87   ar
    42    88    90   ar
    43    71    70    2
    44    80    70   am
    45    70    69    1
    46     9     7   ar
    47     9    11   ar
    48    55    54   ar
    49    87    89   ar
    50    12    11    1
    51     7     6   ar
    52    90    89   ar
    53    52    51    2
    54     4     3    2
    55    11    10   ar
    56    48    46    1
    57    54    56   ar
    58    54    53    1
    59    60    59    2
    60     2     3    1
    61     2     1    1
    62     2     5    1
    63    69    68    1
    64    69    72    1
    65    45    46    2
    66    45    44    1
    67     6     5    1
    68     6     8   ar
    69    46    47    1
    70    59    68   am
    71    59    58    1
    72    51    50    1
    73    51    57   am
    74    10     8   ar
    75    72    73    1
    76    50    53    1
    77    50    49    1
    78    58    57    1
    79    58    61    1
    80    44    43    1
    81    43    42    1
    82    73    74   ar
    83    73    75   ar
    84    61    62    1
    85    74    76   ar
    86    38    39    1
    87    42    39    1
    88    75    77   ar
    89    62    63    1
    90    39    40    1
    91    76    78   ar
    92    77    78   ar
    93    63    64    1
    94    78    79    1
    95    40    41    2
    96    64    65    2
    97    65    67    1
    98    65    66    1
