@<TRIPOS>MOLECULE
tmp/3sdcC00.pdb
 79 76 0 0 0
SMALL
GASTEIGER

@<TRIPOS>ATOM
      1  N         -0.9490  -86.2580  -52.3630 N.3    28  PRO28      -0.2102
      2  CA        -0.3680  -86.3040  -53.7140 C.3    28  PRO28       0.1504
      3  C         -0.9670  -85.2220  -54.6150 C.2    28  PRO28       0.2576
      4  O         -1.9420  -84.5630  -54.2390 O.2    28  PRO28      -0.2718
      5  CB        -0.7480  -87.7020  -54.2230 C.3    28  PRO28       0.0282
      6  CG        -1.9430  -88.0870  -53.4230 C.3    28  PRO28       0.0208
      7  CD        -1.7740  -87.4450  -52.0750 C.3    28  PRO28       0.0893
      8  N         -0.3760  -85.0350  -55.7880 N.am   29  ASP29      -0.1960
      9  CA        -0.8440  -84.0280  -56.7250 C.3    29  ASP29       0.1840
     10  C         -1.4480  -84.7170  -57.9320 C.2    29  ASP29       0.2622
     11  O         -0.8200  -84.8100  -58.9830 O.2    29  ASP29      -0.2715
     12  CB         0.3080  -83.1040  -57.1320 C.3    29  ASP29       0.1450
     13  CG         1.6210  -83.8540  -57.3520 C.2    29  ASP29       0.3671
     14  OD1        1.8540  -84.9000  -56.6950 O.co2  29  ASP29      -0.2456
     15  OD2        2.4310  -83.3830  -58.1800 O.co2  29  ASP29      -0.2456
     16  N         -2.6640  -85.2250  -57.7690 N.am   30  ASN30      -0.1972
     17  CA        -3.3130  -85.9670  -58.8430 C.3    30  ASN30       0.1688
     18  C         -3.5390  -85.1000  -60.0730 C.2    30  ASN30       0.2292
     19  O         -3.2530  -85.5180  -61.2090 O.2    30  ASN30      -0.2864
     20  CB        -4.6430  -86.5660  -58.3960 C.3    30  ASN30       0.1181
     21  CG        -5.2960  -87.3770  -59.4890 C.2    30  ASN30       0.2629
     22  OD1       -6.2130  -86.9050  -60.1570 O.2    30  ASN30      -0.2716
     23  ND2       -4.8020  -88.5920  -59.7070 N.am   30  ASN30      -0.0877
     24  N         -3.2030  -83.2810  -65.8620 N.3    50  VAL50      -0.1231
     25  CA        -3.0830  -84.4980  -65.0690 C.3    50  VAL50       0.1692
     26  C         -1.6710  -85.0610  -65.0130 C.2    50  VAL50       0.2592
     27  O         -1.1930  -85.4180  -63.9380 O.2    50  VAL50      -0.2718
     28  CB        -4.0140  -85.6090  -65.5790 C.3    50  VAL50       0.0266
     29  CG1       -3.9850  -86.8060  -64.6130 C.3    50  VAL50       0.0020
     30  CG2       -5.4310  -85.0770  -65.7690 C.3    50  VAL50       0.0020
     31  N         -1.0180  -85.1540  -66.1660 N.am   51  ASP51      -0.1960
     32  CA         0.2540  -85.8620  -66.2650 C.3    51  ASP51       0.1840
     33  C          1.4260  -85.1490  -65.5880 C.2    51  ASP51       0.2621
     34  O          1.3430  -83.9640  -65.2440 O.2    51  ASP51      -0.2715
     35  CB         0.5810  -86.1760  -67.7250 C.3    51  ASP51       0.1450
     36  CG        -0.3970  -87.1620  -68.3430 C.2    51  ASP51       0.3671
     37  OD1       -0.5970  -88.2550  -67.7650 O.co2  51  ASP51      -0.2456
     38  OD2       -0.9660  -86.8400  -69.4100 O.co2  51  ASP51      -0.2456
     39  N          2.5080  -85.9030  -65.3890 N.am   52  GLN52      -0.1977
     40  CA         3.7140  -85.4250  -64.7120 C.3    52  GLN52       0.1601
     41  C          4.2100  -84.1280  -65.3510 C.2    52  GLN52       0.2287
     42  O          4.4930  -83.1500  -64.6490 O.2    52  GLN52      -0.2864
     43  CB         4.7960  -86.5140  -64.7310 C.3    52  GLN52       0.0394
     44  CG         6.1210  -86.1370  -64.0520 C.3    52  GLN52       0.0908
     45  CD         6.1550  -86.3940  -62.5400 C.2    52  GLN52       0.2608
     46  OE1        5.1330  -86.6960  -61.9040 O.2    52  GLN52      -0.2717
     47  NE2        7.3480  -86.2750  -61.9600 N.am   52  GLN52      -0.0878
     48  N          5.0090  -81.3390  -62.4410 N.3    67  LYS67      -0.1245
     49  CA         4.7960  -81.9350  -61.1160 C.3    67  LYS67       0.1561
     50  C          6.0570  -81.9300  -60.2750 C.2    67  LYS67       0.2260
     51  O          6.0190  -81.4970  -59.1240 O.2    67  LYS67      -0.2867
     52  CB         4.3090  -83.3680  -61.3250 C.3    67  LYS67       0.0271
     53  CG         2.9200  -83.4440  -61.8900 C.3    67  LYS67       0.0035
     54  CD         1.9570  -84.1110  -60.9590 C.3    67  LYS67       0.0206
     55  CE         0.6200  -84.2160  -61.6380 C.3    67  LYS67       0.1093
     56  NZ         0.1110  -85.5990  -61.5520 N.3    67  LYS67      -0.1314
     57  N         -6.2460  -83.8830  -54.8170 N.3    93  ASP93      -0.1225
     58  CA        -5.2960  -84.8240  -54.2340 C.3    93  ASP93       0.1805
     59  C         -5.6250  -86.3180  -54.3810 C.2    93  ASP93       0.2598
     60  O         -4.9030  -87.1580  -53.8490 O.2    93  ASP93      -0.2718
     61  CB        -4.9740  -84.4520  -52.7830 C.3    93  ASP93       0.1424
     62  CG        -6.1560  -84.6050  -51.8550 C.2    93  ASP93       0.3668
     63  OD1       -6.3250  -83.7360  -50.9810 O.co2  93  ASP93      -0.2456
     64  OD2       -6.9120  -85.5880  -51.9830 O.co2  93  ASP93      -0.2456
     65  N         -6.6950  -86.6540  -55.0960 N.am   94  ARG94      -0.1966
     66  CA        -6.9480  -88.0520  -55.4530 C.3    94  ARG94       0.1729
     67  C         -7.4980  -88.1580  -56.8670 C.2    94  ARG94       0.2616
     68  O         -8.1960  -87.2630  -57.3300 O.2    94  ARG94      -0.2715
     69  CB        -7.9430  -88.7190  -54.4930 C.3    94  ARG94       0.0348
     70  CG        -7.5930  -88.6880  -53.0170 C.3    94  ARG94       0.0492
     71  CD        -6.5560  -89.7180  -52.6400 C.3    94  ARG94       0.2205
     72  NE        -6.3690  -89.7900  -51.1940 N.pl3  94  ARG94      -0.0865
     73  CZ        -5.7110  -88.8890  -50.4670 C.cat  94  ARG94       0.5346
     74  NH1       -5.1810  -87.8130  -51.0310 N.pl3  94  ARG94       0.1354
     75  NH2       -5.5960  -89.0540  -49.1590 N.pl3  94  ARG94       0.1354
     76  N         -7.1960  -89.2650  -57.5370 N.am   95  GLY95      -0.1955
     77  CA        -7.8030  -89.5770  -58.8220 C.3    95  GLY95       0.1869
     78  C         -9.1760  -90.1890  -58.6550 C.2    95  GLY95       0.2309
     79  O         -9.8310  -90.5350  -59.6350 O.2    95  GLY95      -0.2863
@<TRIPOS>BOND
     1    38    36   ar
     2    36    37   ar
     3    36    35    1
     4    35    32    1
     5    32    31    1
     6    32    33    1
     7    31    26   am
     8    24    25    1
     9    30    28    1
    10    33    39   am
    11    33    34    2
    12    28    25    1
    13    28    29    1
    14    39    40    1
    15    41    40    1
    16    41    42    2
    17    25    26    1
    18    26    27    2
    19    43    40    1
    20    43    44    1
    21    44    45    1
    22    45    47   am
    23    45    46    2
    24    48    49    1
    25    53    52    1
    26    53    54    1
    27    55    56    1
    28    55    54    1
    29    52    49    1
    30    19    18    2
    31    49    50    1
    32    50    51    2
    33    22    21    2
    34    18    17    1
    35    23    21   am
    36    79    78    2
    37    21    20    1
    38    11    10    2
    39    17    20    1
    40    17    16    1
    41    77    78    1
    42    77    76    1
    43    15    13   ar
    44    10    16   am
    45    10     9    1
    46    76    67   am
    47    13    12    1
    48    13    14   ar
    49    68    67    2
    50    12     9    1
    51    67    66    1
    52     9     8    1
    53     8     3   am
    54    66    65    1
    55    66    69    1
    56    65    59   am
    57    57    58    1
    58     3     4    2
    59     3     2    1
    60    69    70    1
    61    59    58    1
    62    59    60    2
    63    58    61    1
    64     5     2    1
    65     5     6    1
    66     2     1    1
    67     6     7    1
    68    70    71    1
    69    61    62    1
    70    71    72    1
    71     1     7    1
    72    64    62   ar
    73    62    63   ar
    74    72    73    2
    75    74    73    1
    76    73    75    1
