@<TRIPOS>MOLECULE
tmp/3sddC00.pdb
 79 76 0 0 0
SMALL
GASTEIGER

@<TRIPOS>ATOM
      1  N         -0.9080  -86.2600  -52.7380 N.3    28  PRO28      -0.2102
      2  CA        -0.4050  -86.3280  -54.1150 C.3    28  PRO28       0.1504
      3  C         -1.0360  -85.2660  -55.0170 C.2    28  PRO28       0.2576
      4  O         -1.9640  -84.5680  -54.6040 O.2    28  PRO28      -0.2718
      5  CB        -0.7920  -87.7400  -54.5760 C.3    28  PRO28       0.0282
      6  CG        -1.8770  -88.1760  -53.6580 C.3    28  PRO28       0.0208
      7  CD        -1.6400  -87.4810  -52.3520 C.3    28  PRO28       0.0893
      8  N         -0.5150  -85.1460  -56.2330 N.am   29  ASP29      -0.1960
      9  CA        -0.9540  -84.1240  -57.1760 C.3    29  ASP29       0.1840
     10  C         -1.4780  -84.7640  -58.4580 C.2    29  ASP29       0.2622
     11  O         -0.8120  -84.7400  -59.4950 O.2    29  ASP29      -0.2715
     12  CB         0.1920  -83.1430  -57.4720 C.3    29  ASP29       0.1450
     13  CG         1.5180  -83.8430  -57.7860 C.2    29  ASP29       0.3671
     14  OD1        1.5920  -85.0910  -57.7320 O.co2  29  ASP29      -0.2456
     15  OD2        2.4980  -83.1310  -58.0900 O.co2  29  ASP29      -0.2456
     16  N         -2.6750  -85.3390  -58.3750 N.am   30  ASN30      -0.1972
     17  CA        -3.2630  -86.0660  -59.4990 C.3    30  ASN30       0.1688
     18  C         -3.4560  -85.2130  -60.7510 C.2    30  ASN30       0.2292
     19  O         -3.0660  -85.6190  -61.8480 O.2    30  ASN30      -0.2864
     20  CB        -4.5910  -86.7130  -59.0980 C.3    30  ASN30       0.1181
     21  CG        -5.2510  -87.4480  -60.2500 C.2    30  ASN30       0.2629
     22  OD1       -6.2590  -86.9960  -60.7910 O.2    30  ASN30      -0.2716
     23  ND2       -4.6770  -88.5820  -60.6390 N.am   30  ASN30      -0.0877
     24  N         -3.3130  -83.3680  -66.6310 N.3    50  VAL50      -0.1231
     25  CA        -3.2530  -84.6400  -65.8990 C.3    50  VAL50       0.1692
     26  C         -1.8380  -85.2220  -65.7910 C.2    50  VAL50       0.2592
     27  O         -1.4510  -85.7170  -64.7320 O.2    50  VAL50      -0.2718
     28  CB        -4.1940  -85.7040  -66.5230 C.3    50  VAL50       0.0266
     29  CG1       -4.2840  -86.9410  -65.6400 C.3    50  VAL50       0.0020
     30  CG2       -5.5860  -85.1330  -66.7590 C.3    50  VAL50       0.0020
     31  N         -1.0770  -85.1600  -66.8820 N.am   51  ASP51      -0.1960
     32  CA         0.2140  -85.8510  -66.9770 C.3    51  ASP51       0.1840
     33  C          1.3640  -85.1810  -66.2170 C.2    51  ASP51       0.2621
     34  O          1.2410  -84.0430  -65.7550 O.2    51  ASP51      -0.2715
     35  CB         0.5950  -86.0700  -68.4460 C.3    51  ASP51       0.1450
     36  CG        -0.2750  -87.1160  -69.1290 C.2    51  ASP51       0.3671
     37  OD1       -0.8610  -87.9710  -68.4290 O.co2  51  ASP51      -0.2456
     38  OD2       -0.3660  -87.0860  -70.3740 O.co2  51  ASP51      -0.2456
     39  N          2.4730  -85.9150  -66.0930 N.am   52  GLN52      -0.1977
     40  CA         3.6820  -85.4620  -65.3990 C.3    52  GLN52       0.1601
     41  C          4.1770  -84.1360  -65.9730 C.2    52  GLN52       0.2287
     42  O          4.3170  -83.1470  -65.2500 O.2    52  GLN52      -0.2864
     43  CB         4.7740  -86.5360  -65.4950 C.3    52  GLN52       0.0394
     44  CG         5.9720  -86.3220  -64.5780 C.3    52  GLN52       0.0908
     45  CD         5.6880  -86.6580  -63.1230 C.2    52  GLN52       0.2608
     46  OE1        4.6530  -87.2410  -62.7890 O.2    52  GLN52      -0.2717
     47  NE2        6.6160  -86.2920  -62.2470 N.am   52  GLN52      -0.0878
     48  N          4.8100  -81.1710  -62.9750 N.3    67  LYS67      -0.1245
     49  CA         4.5360  -81.8130  -61.6880 C.3    67  LYS67       0.1561
     50  C          5.7700  -81.9100  -60.7980 C.2    67  LYS67       0.2260
     51  O          5.6590  -81.8440  -59.5730 O.2    67  LYS67      -0.2867
     52  CB         3.9280  -83.2020  -61.8890 C.3    67  LYS67       0.0271
     53  CG         2.4450  -83.1920  -62.2140 C.3    67  LYS67       0.0035
     54  CD         1.8620  -84.5900  -62.1080 C.3    67  LYS67       0.0206
     55  CE         0.3860  -84.5960  -62.4580 C.3    67  LYS67       0.1093
     56  NZ        -0.2060  -85.9540  -62.3000 N.3    67  LYS67      -0.1314
     57  N         -6.1920  -83.6910  -55.3750 N.3    93  ASP93      -0.1225
     58  CA        -5.1820  -84.5580  -54.7620 C.3    93  ASP93       0.1805
     59  C         -5.3490  -86.0630  -55.0220 C.2    93  ASP93       0.2598
     60  O         -4.4910  -86.8540  -54.6340 O.2    93  ASP93      -0.2718
     61  CB        -5.0250  -84.2620  -53.2580 C.3    93  ASP93       0.1424
     62  CG        -6.3280  -84.3850  -52.4800 C.2    93  ASP93       0.3668
     63  OD1       -6.4010  -83.8210  -51.3680 O.co2  93  ASP93      -0.2456
     64  OD2       -7.2760  -85.0400  -52.9630 O.co2  93  ASP93      -0.2456
     65  N         -6.4400  -86.4520  -55.6810 N.am   94  ARG94      -0.1966
     66  CA        -6.6660  -87.8580  -56.0440 C.3    94  ARG94       0.1729
     67  C         -7.3650  -88.0270  -57.3910 C.2    94  ARG94       0.2616
     68  O         -8.0380  -87.1140  -57.8720 O.2    94  ARG94      -0.2715
     69  CB        -7.4430  -88.5920  -54.9470 C.3    94  ARG94       0.0348
     70  CG        -6.5640  -89.2470  -53.8960 C.3    94  ARG94       0.0492
     71  CD        -7.2900  -89.3490  -52.5660 C.3    94  ARG94       0.2205
     72  NE        -6.3740  -89.5530  -51.4440 N.pl3  94  ARG94      -0.0865
     73  CZ        -5.6340  -88.5950  -50.8890 C.cat  94  ARG94       0.5346
     74  NH1       -5.6780  -87.3520  -51.3490 N.pl3  94  ARG94       0.1354
     75  NH2       -4.8380  -88.8800  -49.8700 N.pl3  94  ARG94       0.1354
     76  N         -7.1960  -89.2060  -57.9870 N.am   95  GLY95      -0.1955
     77  CA        -7.7730  -89.5190  -59.2940 C.3    95  GLY95       0.1869
     78  C         -9.1500  -90.1510  -59.2380 C.2    95  GLY95       0.2309
     79  O         -9.6500  -90.6540  -60.2460 O.2    95  GLY95      -0.2863
@<TRIPOS>BOND
     1    38    36   ar
     2    36    35    1
     3    36    37   ar
     4    35    32    1
     5    32    31    1
     6    32    33    1
     7    31    26   am
     8    30    28    1
     9    24    25    1
    10    28    25    1
    11    28    29    1
    12    33    39   am
    13    33    34    2
    14    39    40    1
    15    41    40    1
    16    41    42    2
    17    25    26    1
    18    26    27    2
    19    43    40    1
    20    43    44    1
    21    44    45    1
    22    45    46    2
    23    45    47   am
    24    48    49    1
    25    55    56    1
    26    55    54    1
    27    53    54    1
    28    53    52    1
    29    52    49    1
    30    19    18    2
    31    49    50    1
    32    50    51    2
    33    22    21    2
    34    18    17    1
    35    23    21   am
    36    21    20    1
    37    79    78    2
    38    17    20    1
    39    17    16    1
    40    11    10    2
    41    77    78    1
    42    77    76    1
    43    10    16   am
    44    10     9    1
    45    15    13   ar
    46    76    67   am
    47    68    67    2
    48    13    14   ar
    49    13    12    1
    50    12     9    1
    51    67    66    1
    52     9     8    1
    53     8     3   am
    54    66    65    1
    55    66    69    1
    56    65    59   am
    57    57    58    1
    58    59    58    1
    59    59    60    2
    60     3     4    2
    61     3     2    1
    62    69    70    1
    63    58    61    1
    64     5     2    1
    65     5     6    1
    66     2     1    1
    67    70    71    1
    68     6     7    1
    69    61    62    1
    70    64    62   ar
    71     1     7    1
    72    71    72    1
    73    62    63   ar
    74    72    73    2
    75    74    73    1
    76    73    75    1
