@<TRIPOS>MOLECULE
tmp/3sdfA03.pdb
 158 155 0 0 0
SMALL
GASTEIGER

@<TRIPOS>ATOM
      1  N        -14.3870   17.1930    0.0880 N.3    78  LYS78      -0.1231
      2  CA       -14.2420   18.6360    0.2470 C.3    78  LYS78       0.1693
      3  C        -13.0390   18.9580    1.1330 C.2    78  LYS78       0.2592
      4  O        -12.2130   18.0880    1.4080 O.2    78  LYS78      -0.2718
      5  CB       -15.5140   19.2420    0.8420 C.3    78  LYS78       0.0285
      6  CG       -16.4910   18.2170    1.3950 C.3    78  LYS78       0.0035
      7  CD       -17.8430   18.8460    1.6900 C.3    78  LYS78       0.0206
      8  CE       -18.5980   18.0590    2.7490 C.3    78  LYS78       0.1093
      9  NZ       -18.7680   18.8390    4.0050 N.3    78  LYS78      -0.1314
     10  N        -12.9450   20.2080    1.5780 N.am   79  HIS79      -0.1976
     11  CA       -11.8400   20.6410    2.4460 C.3    79  HIS79       0.1656
     12  C        -10.4700   20.2430    1.8790 C.2    79  HIS79       0.2291
     13  O         -9.4720   20.2430    2.6060 O.2    79  HIS79      -0.2864
     14  CB       -12.0370   19.9280    3.8180 C.3    79  HIS79       0.0771
     15  CG       -13.1780   20.4420    4.6380 C.ar   79  HIS79       0.0820
     16  ND1      -14.2410   19.6470    5.0070 N.ar   79  HIS79      -0.2267
     17  CD2      -13.3920   21.6480    5.2140 C.ar   79  HIS79       0.1154
     18  CE1      -15.0750   20.3480    5.7530 C.ar   79  HIS79       0.1986
     19  NE2      -14.5830   21.5660    5.8940 N.ar   79  HIS79      -0.2212
     20  N         -7.0790   22.1770    2.7060 N.3    82  LEU82      -0.1245
     21  CA        -6.6410   22.0940    4.0940 C.3    82  LEU82       0.1561
     22  C         -5.9620   20.7570    4.3940 C.2    82  LEU82       0.2260
     23  O         -6.3890   19.7100    3.8990 O.2    82  LEU82      -0.2867
     24  CB        -7.8490   22.2850    5.0150 C.3    82  LEU82       0.0270
     25  CG        -7.7180   23.2000    6.2350 C.3    82  LEU82       0.0019
     26  CD1       -7.7040   24.6720    5.8250 C.3    82  LEU82       0.0001
     27  CD2       -8.8590   22.9350    7.2050 C.3    82  LEU82       0.0001
     28  N         -5.4590   19.0980   10.1130 N.3    86  LEU86      -0.1245
     29  CA        -6.2900   20.2660   10.4280 C.3    86  LEU86       0.1561
     30  C         -7.7260   20.1360    9.9250 C.2    86  LEU86       0.2260
     31  O         -8.6230   20.8390   10.3970 O.2    86  LEU86      -0.2867
     32  CB        -5.6640   21.5440    9.8600 C.3    86  LEU86       0.0270
     33  CG        -4.4100   22.1090   10.5330 C.3    86  LEU86       0.0019
     34  CD1       -3.8060   23.2170    9.6820 C.3    86  LEU86       0.0001
     35  CD2       -4.7020   22.6160   11.9440 C.3    86  LEU86       0.0001
     36  N        -11.5080   18.9550    9.2900 N.3    88  PRO88      -0.2102
     37  CA       -12.5610   18.4840   10.1900 C.3    88  PRO88       0.1504
     38  C        -12.9500   17.0530    9.8430 C.2    88  PRO88       0.2576
     39  O        -12.7890   16.6360    8.6960 O.2    88  PRO88      -0.2718
     40  CB       -13.7320   19.4290    9.8910 C.3    88  PRO88       0.0282
     41  CG       -13.1450   20.5440    9.0840 C.3    88  PRO88       0.0208
     42  CD       -12.0200   19.9550    8.3390 C.3    88  PRO88       0.0893
     43  N        -13.4530   16.3090   10.8240 N.am   89  THR89      -0.1939
     44  CA       -13.8700   14.9270   10.5920 C.3    89  THR89       0.2028
     45  C        -15.2910   14.8870   10.0400 C.2    89  THR89       0.2642
     46  O        -16.1210   15.7220   10.3970 O.2    89  THR89      -0.2714
     47  CB       -13.7980   14.0860   11.8780 C.3    89  THR89       0.1808
     48  OG1      -14.7020   14.6150   12.8550 O.3    89  THR89      -0.2208
     49  CG2      -12.3830   14.0750   12.4440 C.3    89  THR89       0.0379
     50  N        -15.5700   13.9080    9.1830 N.am   90  GLU90      -0.1963
     51  CA       -16.8780   13.8100    8.5280 C.3    90  GLU90       0.1733
     52  C        -17.7920   12.7320    9.0980 C.2    90  GLU90       0.2616
     53  O        -18.9890   12.7160    8.8000 O.2    90  GLU90      -0.2715
     54  CB       -16.7020   13.5880    7.0270 C.3    90  GLU90       0.0429
     55  CG       -16.1860   14.8040    6.2890 C.3    90  GLU90       0.1163
     56  CD       -15.8140   14.5010    4.8550 C.2    90  GLU90       0.3649
     57  OE1      -14.7660   15.0030    4.4060 O.co2  90  GLU90      -0.2457
     58  OE2      -16.5610   13.7630    4.1750 O.co2  90  GLU90      -0.2457
     59  N        -17.2270   11.8310    9.8990 N.am   91  GLY91      -0.1955
     60  CA       -17.9810   10.7270   10.4890 C.3    91  GLY91       0.1869
     61  C        -18.3800    9.6740    9.4730 C.2    91  GLY91       0.2309
     62  O        -18.5570    9.9730    8.2900 O.2    91  GLY91      -0.2863
     63  N        -25.2540    8.6300   10.9530 N.3   250  VAL250     -0.1231
     64  CA       -23.8860    9.0640   10.7310 C.3   250  VAL250      0.1692
     65  C        -23.1930    8.9340   12.0830 C.2   250  VAL250      0.2592
     66  O        -23.7030    9.4220   13.0930 O.2   250  VAL250     -0.2718
     67  CB       -23.8330   10.5240   10.2280 C.3   250  VAL250      0.0266
     68  CG1      -22.4070   10.9290    9.9040 C.3   250  VAL250      0.0020
     69  CG2      -24.7130   10.6990    8.9900 C.3   250  VAL250      0.0020
     70  N        -22.0490    8.2610   12.1090 N.am  251  ALA251     -0.1966
     71  CA       -21.3590    7.9810   13.3690 C.3   251  ALA251      0.1713
     72  C        -20.1260    8.8600   13.5660 C.2   251  ALA251      0.2458
     73  O        -19.3950    9.1160   12.6100 O.2   251  ALA251     -0.2730
     74  CB       -20.9740    6.5220   13.4290 C.3   251  ALA251      0.0333
     75  N        -19.8860    9.3280   14.8080 N.am  252  PRO252     -0.2716
     76  CA       -18.6540   10.0870   15.0030 C.3   252  PRO252      0.1536
     77  C        -17.4320    9.1720   14.9070 C.2   252  PRO252      0.2598
     78  O        -17.4800    8.0210   15.3550 O.2   252  PRO252     -0.2715
     79  CB       -18.8080   10.6610   16.4150 C.3   252  PRO252      0.0310
     80  CG       -19.7440    9.7240   17.1040 C.3   252  PRO252      0.0237
     81  CD       -20.6900    9.2390   16.0430 C.3   252  PRO252      0.0939
     82  N        -16.3610    9.6820   14.3070 N.am  253  ASN253     -0.1973
     83  CA       -15.1460    8.9010   14.0840 C.3   253  ASN253      0.1688
     84  C        -14.5290    8.3560   15.3650 C.2   253  ASN253      0.2292
     85  O        -14.7320    8.9080   16.4510 O.2   253  ASN253     -0.2864
     86  CB       -14.1090    9.7310   13.3250 C.3   253  ASN253      0.1181
     87  CG       -14.5100    9.9930   11.8860 C.2   253  ASN253      0.2629
     88  OD1      -15.3860    9.3230   11.3370 O.2   253  ASN253     -0.2716
     89  ND2      -13.8580   10.9600   11.2600 N.am  253  ASN253     -0.0877
     90  N        -11.2190   20.5450   16.7330 N.3   311  GLY311     -0.1225
     91  CA       -11.6480   21.9360   16.8210 C.3   311  GLY311      0.1811
     92  C        -12.4910   22.2060   18.0510 C.2   311  GLY311      0.2280
     93  O        -13.4020   21.4390   18.3740 O.2   311  GLY311     -0.2866
     94  N        -13.2200   19.9550   22.4220 N.3   314  PRO314     -0.2116
     95  CA       -14.5080   19.4300   22.8610 C.3   314  PRO314      0.1372
     96  C        -14.4040   18.4530   24.0250 C.2   314  PRO314      0.2244
     97  O        -13.3930   17.7620   24.1850 O.2   314  PRO314     -0.2868
     98  CB       -15.0260   18.7090   21.6110 C.3   314  PRO314      0.0268
     99  CG       -13.7950   18.2410   20.9270 C.3   314  PRO314      0.0207
    100  CD       -12.7690   19.3170   21.1700 C.3   314  PRO314      0.0892
    101  N        -18.9520   14.7410   25.2540 N.3   317  GLU317     -0.1231
    102  CA       -20.3460   14.9690   24.8640 C.3   317  GLU317      0.1699
    103  C        -20.4570   15.8060   23.6010 C.2   317  GLU317      0.2592
    104  O        -21.3110   15.5450   22.7480 O.2   317  GLU317     -0.2718
    105  CB       -21.1270   15.6460   25.9900 C.3   317  GLU317      0.0402
    106  CG       -21.6070   14.7010   27.0780 C.3   317  GLU317      0.1161
    107  CD       -22.3540   15.4220   28.1870 C.2   317  GLU317      0.3649
    108  OE1      -22.0060   16.5830   28.4960 O.co2 317  GLU317     -0.2457
    109  OE2      -23.2900   14.8210   28.7560 O.co2 317  GLU317     -0.2457
    110  N        -19.5960   16.8110   23.4820 N.am  318  GLU318     -0.1966
    111  CA       -19.6010   17.6910   22.3190 C.3   318  GLU318      0.1733
    112  C        -19.1510   16.9510   21.0630 C.2   318  GLU318      0.2616
    113  O        -19.7160   17.1370   19.9860 O.2   318  GLU318     -0.2715
    114  CB       -18.7050   18.9070   22.5630 C.3   318  GLU318      0.0429
    115  CG       -19.2440   19.8760   23.6020 C.3   318  GLU318      0.1163
    116  CD       -18.2940   21.0270   23.8730 C.2   318  GLU318      0.3649
    117  OE1      -17.1330   20.7650   24.2500 O.co2 318  GLU318     -0.2457
    118  OE2      -18.7100   22.1930   23.7080 O.co2 318  GLU318     -0.2457
    119  N        -18.1310   16.1120   21.2100 N.am  319  TYR319     -0.1960
    120  CA       -17.6020   15.3450   20.0890 C.3   319  TYR319      0.1771
    121  C        -18.6660   14.4260   19.4980 C.2   319  TYR319      0.2619
    122  O        -19.0940   14.6080   18.3590 O.2   319  TYR319     -0.2715
    123  CB       -16.3840   14.5280   20.5250 C.3   319  TYR319      0.0574
    124  CG       -15.7730   13.7010   19.4170 C.ar  319  TYR319     -0.0198
    125  CD1      -14.9830   14.2910   18.4390 C.ar  319  TYR319     -0.0009
    126  CD2      -15.9840   12.3310   19.3480 C.ar  319  TYR319     -0.0009
    127  CE1      -14.4220   13.5400   17.4240 C.ar  319  TYR319      0.0417
    128  CE2      -15.4270   11.5710   18.3370 C.ar  319  TYR319      0.0417
    129  CZ       -14.6470   12.1800   17.3780 C.ar  319  TYR319      0.1957
    130  OH       -14.0900   11.4280   16.3690 O.3   319  TYR319     -0.2866
    131  N        -19.0880   13.4380   20.2810 N.am  320  LEU320     -0.1963
    132  CA       -20.1000   12.4870   19.8360 C.3   320  LEU320      0.1728
    133  C        -21.3960   13.1960   19.4570 C.2   320  LEU320      0.2617
    134  O        -22.2240   12.6490   18.7290 O.2   320  LEU320     -0.2715
    135  CB       -20.3700   11.4450   20.9230 C.3   320  LEU320      0.0311
    136  CG       -19.1490   10.6980   21.4650 C.3   320  LEU320      0.0022
    137  CD1      -19.5110    9.9150   22.7180 C.3   320  LEU320      0.0001
    138  CD2      -18.5660    9.7790   20.4030 C.3   320  LEU320      0.0001
    139  N        -21.5640   14.4170   19.9540 N.am  321  GLY321     -0.1940
    140  CA       -22.7530   15.1980   19.6710 C.3   321  GLY321      0.2014
    141  C        -23.8960   14.8750   20.6130 C.2   321  GLY321      0.2640
    142  O        -23.8760   13.8540   21.3010 O.2   321  GLY321     -0.2714
    143  N        -24.8970   15.7490   20.6440 N.am  322  THR322     -0.1936
    144  CA       -26.0400   15.5590   21.4970 C.3   322  THR322      0.2028
    145  C        -27.0440   14.5990   20.8760 C.2   322  THR322      0.2642
    146  O        -27.7240   13.9310   21.5770 O.2   322  THR322     -0.2714
    147  CB       -26.6540   16.8900   21.9420 C.3   322  THR322      0.1808
    148  OG1      -27.7550   16.6290   22.8010 O.3   322  THR322     -0.2208
    149  CG2      -27.1190   17.6490   20.7790 C.3   322  THR322      0.0379
    150  N        -27.0480   14.4940   19.5610 N.am  323  GLU323     -0.1976
    151  CA       -27.8670   13.5270   18.8430 C.3   323  GLU323      0.1602
    152  C        -27.4930   12.1010   19.2460 C.2   323  GLU323      0.2287
    153  O        -28.3410   11.3460   19.7280 O.2   323  GLU323     -0.2864
    154  CB       -27.7120   13.7200   17.3340 C.3   323  GLU323      0.0415
    155  CG       -28.8050   13.0570   16.5030 C.3   323  GLU323      0.1163
    156  CD       -28.4310   12.9320   15.0350 C.2   323  GLU323      0.3649
    157  OE1      -27.2840   13.2730   14.6680 O.co2 323  GLU323     -0.2457
    158  OE2      -29.2870   12.4830   14.2440 O.co2 323  GLU323     -0.2457
@<TRIPOS>BOND
     1     1     2    1
     2     2     5    1
     3     2     3    1
     4     5     6    1
     5     3     4    2
     6     3    10   am
     7     6     7    1
     8    10    11    1
     9     7     8    1
    10    12    11    1
    11    12    13    2
    12    11    14    1
    13    20    21    1
    14     8     9    1
    15    14    15    1
    16    23    22    2
    17    21    22    1
    18    21    24    1
    19    58    56   ar
    20    57    56   ar
    21    15    16   ar
    22    15    17   ar
    23    56    55    1
    24    16    18   ar
    25    24    25    1
    26    17    19   ar
    27    18    19   ar
    28    26    25    1
    29    25    27    1
    30    55    54    1
    31    54    51    1
    32    62    61    2
    33    42    41    1
    34    42    36    1
    35    51    52    1
    36    51    50    1
    37    39    38    2
    38    53    52    2
    39    69    67    1
    40    41    40    1
    41    52    59   am
    42    50    45   am
    43    36    37    1
    44    61    60    1
    45    34    33    1
    46    38    37    1
    47    38    43   am
    48    32    29    1
    49    32    33    1
    50    40    37    1
    51    59    60    1
    52    68    67    1
    53    30    31    2
    54    30    29    1
    55    45    46    2
    56    45    44    1
    57    28    29    1
    58    67    64    1
    59    33    35    1
    60    44    43    1
    61    44    47    1
    62    64    63    1
    63    64    65    1
    64    89    87   am
    65    88    87    2
    66    47    49    1
    67    47    48    1
    68    87    86    1
    69    65    70   am
    70    65    66    2
    71    70    71    1
    72    73    72    2
    73    86    83    1
    74    71    74    1
    75    71    72    1
    76    72    75   am
    77    83    82    1
    78    83    84    1
    79   158   156   ar
    80    82    77   am
    81   157   156   ar
    82    75    76    1
    83    75    81    1
    84    77    76    1
    85    77    78    2
    86    76    79    1
    87   156   155    1
    88    84    85    2
    89    81    80    1
    90   130   129    1
    91    79    80    1
    92   155   154    1
    93    90    91    1
    94    91    92    1
    95   154   151    1
    96   129   127   ar
    97   129   128   ar
    98   127   125   ar
    99    92    93    2
   100   128   126   ar
   101   122   121    2
   102   125   124   ar
   103   134   133    2
   104   151   152    1
   105   151   150    1
   106   152   153    2
   107   126   124   ar
   108   124   123    1
   109   133   132    1
   110   133   139   am
   111   121   120    1
   112   121   131   am
   113   150   145   am
   114   140   139    1
   115   140   141    1
   116   132   131    1
   117   132   135    1
   118   113   112    2
   119   120   123    1
   120   120   119    1
   121   138   136    1
   122   141   143   am
   123   141   142    2
   124   143   144    1
   125   149   147    1
   126   145   144    1
   127   145   146    2
   128   135   136    1
   129    99   100    1
   130    99    98    1
   131   112   119   am
   132   112   111    1
   133   100    94    1
   134   136   137    1
   135   144   147    1
   136    98    95    1
   137   147   148    1
   138   111   114    1
   139   111   110    1
   140    94    95    1
   141   114   115    1
   142   104   103    2
   143    95    96    1
   144   110   103   am
   145   103   102    1
   146   115   116    1
   147   118   116   ar
   148   116   117   ar
   149    96    97    2
   150   102   101    1
   151   102   105    1
   152   105   106    1
   153   106   107    1
   154   107   108   ar
   155   107   109   ar
