@<TRIPOS>MOLECULE
tmp/3sdgA00.pdb
 204 201 0 0 0
SMALL
GASTEIGER

@<TRIPOS>ATOM
      1  N          7.0080   35.8500    3.4200 N.3    62  LEU62      -0.1245
      2  CA         6.7600   34.5430    4.0560 C.3    62  LEU62       0.1561
      3  C          5.7820   34.7270    5.2400 C.2    62  LEU62       0.2260
      4  O          4.9500   33.8790    5.4590 O.2    62  LEU62      -0.2867
      5  CB         8.0930   33.9210    4.5650 C.3    62  LEU62       0.0270
      6  CG         7.9470   32.5850    5.2570 C.3    62  LEU62       0.0019
      7  CD1        7.5160   31.4900    4.2090 C.3    62  LEU62       0.0001
      8  CD2        9.2710   32.2110    6.0310 C.3    62  LEU62       0.0001
      9  N          2.2200   34.5360    3.9700 N.3    65  LEU65      -0.1231
     10  CA         1.8170   33.1500    3.8050 C.3    65  LEU65       0.1693
     11  C          1.4970   32.4830    5.1240 C.2    65  LEU65       0.2591
     12  O          0.5420   31.7290    5.2250 O.2    65  LEU65      -0.2718
     13  CB         2.9380   32.3690    3.1210 C.3    65  LEU65       0.0284
     14  CG         3.0640   32.4930    1.6260 C.3    65  LEU65       0.0019
     15  CD1        4.1570   31.4590    1.2250 C.3    65  LEU65       0.0001
     16  CD2        1.7300   32.1600    0.9580 C.3    65  LEU65       0.0001
     17  N          2.3220   32.7320    6.1390 N.am   66  ALA66      -0.1980
     18  CA         2.1090   32.1070    7.4280 C.3    66  ALA66       0.1597
     19  C          0.7040   32.5050    7.9300 C.2    66  ALA66       0.2287
     20  O         -0.0110   31.6750    8.4990 O.2    66  ALA66      -0.2864
     21  CB         3.2120   32.5030    8.4260 C.3    66  ALA66       0.0319
     22  N          1.6580   23.9000   -1.0140 N.3    72  MET72      -0.1230
     23  CA         1.9860   24.6850    0.1630 C.3    72  MET72       0.1702
     24  C          3.5020   24.9510    0.2050 C.2    72  MET72       0.2592
     25  O          3.9270   26.0840    0.3280 O.2    72  MET72      -0.2718
     26  CB         1.5660   23.9660    1.4780 C.3    72  MET72       0.0401
     27  CG         1.8210   24.9050    2.7050 C.3    72  MET72       0.0596
     28  SD         1.5180   24.0500    4.2950 S.3    72  MET72      -0.1393
     29  CE         2.9210   22.9140    4.3780 C.3    72  MET72       0.0692
     30  N          4.3050   23.8920    0.0930 N.am   73  TRP73      -0.1976
     31  CA         5.7610   24.1000    0.1360 C.3    73  TRP73       0.1640
     32  C          6.2850   24.8770   -1.0990 C.2    73  TRP73       0.2290
     33  O          7.1670   25.7250   -0.9730 O.2    73  TRP73      -0.2864
     34  CB         6.5000   22.7650    0.2940 C.3    73  TRP73       0.0576
     35  CG         6.2080   22.1520    1.6870 C.ar   73  TRP73       0.0006
     36  CD1        5.4480   21.0180    1.9640 C.ar   73  TRP73       0.0946
     37  CD2        6.7250   22.6190    2.9390 C.ar   73  TRP73       0.0152
     38  NE1        5.4620   20.7800    3.3330 N.ar   73  TRP73      -0.2442
     39  CE2        6.2080   21.7420    3.9570 C.ar   73  TRP73       0.0810
     40  CE3        7.4970   23.7380    3.3170 C.ar   73  TRP73       0.0012
     41  CZ2        6.5070   21.9090    5.3150 C.ar   73  TRP73       0.0191
     42  CZ3        7.8020   23.9110    4.7010 C.ar   73  TRP73       0.0001
     43  CH2        7.3220   22.9770    5.6620 C.ar   73  TRP73       0.0015
     44  N          4.8300   27.1930   -2.7730 N.3    75  THR75      -0.1203
     45  CA         4.5430   28.6030   -2.6380 C.3    75  THR75       0.1994
     46  C          5.5480   29.2730   -1.6620 C.2    75  THR75       0.2618
     47  O          5.9640   30.4060   -1.8590 O.2    75  THR75      -0.2717
     48  CB         3.0420   28.8120   -2.1410 C.3    75  THR75       0.1784
     49  OG1        2.1290   28.1840   -3.0480 O.3    75  THR75      -0.2211
     50  CG2        2.6960   30.3150   -2.1840 C.3    75  THR75       0.0376
     51  N          5.8910   28.5830   -0.5790 N.am   76  GLY76      -0.1942
     52  CA         6.8670   29.1130    0.3780 C.3    76  GLY76       0.2014
     53  C          8.2750   29.1670   -0.2320 C.2    76  GLY76       0.2638
     54  O          8.9790   30.1940   -0.1200 O.2    76  GLY76      -0.2714
     55  N          8.7020   28.1010   -0.8890 N.am   77  ILE77      -0.1977
     56  CA        10.0290   28.1520   -1.5760 C.3    77  ILE77       0.1596
     57  C         10.0570   29.2360   -2.6330 C.2    77  ILE77       0.2287
     58  O         11.0400   29.9490   -2.8240 O.2    77  ILE77      -0.2864
     59  CB        10.4130   26.7530   -2.1920 C.3    77  ILE77       0.0276
     60  CG1       10.5060   25.7160   -0.9990 C.3    77  ILE77       0.0022
     61  CG2       11.6730   26.8110   -3.0300 C.3    77  ILE77       0.0022
     62  CD1       10.7120   24.2320   -1.5090 C.3    77  ILE77       0.0001
     63  N         11.2050   32.7600   -1.9600 N.3    80  PHE80      -0.1241
     64  CA        12.7010   32.9730   -1.9660 C.3    80  PHE80       0.1605
     65  C         13.2710   32.9660   -3.3660 C.2    80  PHE80       0.2264
     66  O         14.0840   33.8270   -3.7530 O.2    80  PHE80      -0.2867
     67  CB        13.3630   31.9210   -1.0480 C.3    80  PHE80       0.0534
     68  CG        13.0200   32.1610    0.3720 C.ar   80  PHE80      -0.0203
     69  CD1       13.7590   33.0560    1.1430 C.ar   80  PHE80      -0.0042
     70  CD2       11.8250   31.6050    0.9040 C.ar   80  PHE80      -0.0042
     71  CE1       13.3660   33.3360    2.4890 C.ar   80  PHE80      -0.0003
     72  CE2       11.3870   31.9300    2.2380 C.ar   80  PHE80      -0.0003
     73  CZ        12.1510   32.8090    3.0150 C.ar   80  PHE80      -0.0000
     74  N         14.7090   36.6210   -4.2530 N.3    84  PHE84      -0.1241
     75  CA        16.1430   36.7460   -4.4860 C.3    84  PHE84       0.1605
     76  C         16.4670   36.7940   -5.9720 C.2    84  PHE84       0.2264
     77  O         17.4340   37.4260   -6.3740 O.2    84  PHE84      -0.2867
     78  CB        16.9080   35.6410   -3.7670 C.3    84  PHE84       0.0534
     79  CG        16.9220   35.8500   -2.2430 C.ar   84  PHE84      -0.0203
     80  CD1       17.8080   36.7820   -1.6790 C.ar   84  PHE84      -0.0042
     81  CD2       16.0490   35.2250   -1.4290 C.ar   84  PHE84      -0.0042
     82  CE1       17.8450   37.0280   -0.2550 C.ar   84  PHE84      -0.0003
     83  CE2       16.0650   35.4820    0.0190 C.ar   84  PHE84      -0.0003
     84  CZ        16.9330   36.3480    0.5690 C.ar   84  PHE84      -0.0000
     85  N         22.7080   37.5130    7.5340 N.3   108  TRP108     -0.1241
     86  CA        22.2850   36.2540    6.8110 C.3   108  TRP108      0.1605
     87  C         21.9640   35.1740    7.8540 C.2   108  TRP108      0.2264
     88  O         20.9150   34.4830    7.8260 O.2   108  TRP108     -0.2867
     89  CB        23.3940   35.7510    5.8300 C.3   108  TRP108      0.0550
     90  CG        22.8010   34.6990    4.9990 C.ar  108  TRP108      0.0003
     91  CD1       23.0390   33.3540    5.0810 C.ar  108  TRP108      0.0946
     92  CD2       21.7210   34.8630    4.0220 C.ar  108  TRP108      0.0152
     93  NE1       22.2520   32.6920    4.1700 N.ar  108  TRP108     -0.2442
     94  CE2       21.4080   33.5760    3.5360 C.ar  108  TRP108      0.0810
     95  CE3       21.0400   35.9690    3.5030 C.ar  108  TRP108      0.0012
     96  CZ2       20.4360   33.3550    2.5360 C.ar  108  TRP108      0.0191
     97  CZ3       20.0560   35.7670    2.5180 C.ar  108  TRP108      0.0001
     98  CH2       19.7520   34.4670    2.0510 C.ar  108  TRP108      0.0015
     99  N         18.4420   33.1830    8.3680 N.3   112  MET112     -0.1245
    100  CA        18.4060   31.6580    8.1900 C.3   112  MET112      0.1570
    101  C         17.8690   30.9790    9.4370 C.2   112  MET112      0.2261
    102  O         17.1260   30.0450    9.3710 O.2   112  MET112     -0.2867
    103  CB        19.8200   31.1580    7.8910 C.3   112  MET112      0.0387
    104  CG        20.2970   31.4850    6.4560 C.3   112  MET112      0.0595
    105  SD        19.2500   30.7920    5.1230 S.3   112  MET112     -0.1393
    106  CE        19.8180   29.0750    5.1960 C.3   112  MET112      0.0692
    107  N         14.1160   31.4490    9.3990 N.3   115  TRP115     -0.1241
    108  CA        13.4230   30.6620    8.3700 C.3   115  TRP115      0.1605
    109  C         13.4940   29.1190    8.6600 C.2   115  TRP115      0.2264
    110  O         12.5500   28.3810    8.3930 O.2   115  TRP115     -0.2867
    111  CB        14.0600   30.9530    7.0160 C.3   115  TRP115      0.0550
    112  CG        13.8790   32.4140    6.6410 C.ar  115  TRP115      0.0003
    113  CD1       12.8110   33.2260    7.0210 C.ar  115  TRP115      0.0946
    114  CD2       14.7450   33.2130    5.8560 C.ar  115  TRP115      0.0152
    115  NE1       12.9920   34.4970    6.5170 N.ar  115  TRP115     -0.2442
    116  CE2       14.1600   34.5250    5.7900 C.ar  115  TRP115      0.0810
    117  CE3       15.9630   32.9770    5.1910 C.ar  115  TRP115      0.0012
    118  CZ2       14.7280   35.5770    5.0450 C.ar  115  TRP115      0.0191
    119  CZ3       16.5560   34.0550    4.4470 C.ar  115  TRP115      0.0001
    120  CH2       15.9190   35.3440    4.3890 C.ar  115  TRP115      0.0015
    121  N         10.8750   28.5320   11.3830 N.3   118  TYR118     -0.1227
    122  CA         9.5320   28.4940   10.7750 C.3   118  TYR118      0.1736
    123  C          9.2650   27.1530   10.0020 C.2   118  TYR118      0.2596
    124  O          8.2810   26.5090   10.1840 O.2   118  TYR118     -0.2718
    125  CB         9.2510   29.7270    9.8780 C.3   118  TYR118      0.0548
    126  CG         7.7870   29.7200    9.5620 C.ar  118  TYR118     -0.0200
    127  CD1        6.8430   29.7540   10.6070 C.ar  118  TYR118     -0.0009
    128  CD2        7.3350   29.5350    8.2740 C.ar  118  TYR118     -0.0009
    129  CE1        5.4690   29.6640   10.3430 C.ar  118  TYR118      0.0417
    130  CE2        5.9670   29.4690    8.0030 C.ar  118  TYR118      0.0417
    131  CZ         5.0480   29.5370    9.0370 C.ar  118  TYR118      0.1957
    132  OH         3.6840   29.4370    8.7600 O.3   118  TYR118     -0.2866
    133  N         10.2140   26.7120    9.1800 N.am  119  THR119     -0.1953
    134  CA        10.1030   25.4480    8.5320 C.3   119  THR119      0.1897
    135  C          9.9060   24.3070    9.5210 C.2   119  THR119      0.2313
    136  O          9.0610   23.4770    9.2950 O.2   119  THR119     -0.2863
    137  CB        11.4240   25.1340    7.6970 C.3   119  THR119      0.1794
    138  OG1       11.6970   26.2420    6.7910 O.3   119  THR119     -0.2208
    139  CG2       11.2680   23.7570    6.9350 C.3   119  THR119      0.0378
    140  N          6.4570   24.2760   10.9420 N.3   122  VAL122     -0.1245
    141  CA         5.4420   23.7720   10.0360 C.3   122  VAL122      0.1561
    142  C          5.5190   22.2350    9.9160 C.2   122  VAL122      0.2260
    143  O          4.5180   21.5640    9.8000 O.2   122  VAL122     -0.2867
    144  CB         5.5820   24.4410    8.6340 C.3   122  VAL122      0.0252
    145  CG1        4.5750   23.8230    7.6070 C.3   122  VAL122      0.0019
    146  CG2        5.3930   25.9720    8.7740 C.3   122  VAL122      0.0019
    147  N         16.9550   23.9500    4.2010 N.3   146  ASN146     -0.1240
    148  CA        17.2150   25.3630    3.9960 C.3   146  ASN146      0.1653
    149  C         18.6300   25.6710    3.4740 C.2   146  ASN146      0.2266
    150  O         18.7810   26.5400    2.6040 O.2   146  ASN146     -0.2867
    151  CB        16.9050   26.0950    5.3290 C.3   146  ASN146      0.1155
    152  CG        15.3990   26.4360    5.3810 C.2   146  ASN146      0.2627
    153  OD1       14.9500   27.1750    4.5070 O.2   146  ASN146     -0.2716
    154  ND2       14.6400   25.7470    6.1650 N.am  146  ASN146     -0.0877
    155  N         18.5800   24.9140   -0.0920 N.3   149  ASN149     -0.1225
    156  CA        17.9510   25.9710   -0.9040 C.3   149  ASN149      0.1785
    157  C         18.8770   27.1440   -1.0850 C.2   149  ASN149      0.2597
    158  O         19.0070   27.6720   -2.1990 O.2   149  ASN149     -0.2718
    159  CB        16.6550   26.4600   -0.2510 C.3   149  ASN149      0.1169
    160  CG        15.5330   25.5270   -0.4860 C.2   149  ASN149      0.2627
    161  OD1       15.7510   24.3280   -0.8350 O.2   149  ASN149     -0.2716
    162  ND2       14.3050   26.0070   -0.2180 N.am  149  ASN149     -0.0877
    163  N         19.5190   27.5490    0.0150 N.am  150  GLU150     -0.1979
    164  CA        20.5230   28.6710   -0.0740 C.3   150  GLU150      0.1602
    165  C         21.5880   28.3880   -1.1510 C.2   150  GLU150      0.2287
    166  O         21.7790   29.1710   -2.1430 O.2   150  GLU150     -0.2864
    167  CB        21.1580   28.9210    1.3070 C.3   150  GLU150      0.0415
    168  CG        22.4140   29.8620    1.2210 C.3   150  GLU150      0.1163
    169  CD        23.2600   29.8260    2.4840 C.2   150  GLU150      0.3649
    170  OE1       22.7340   29.9640    3.5620 O.co2 150  GLU150     -0.2457
    171  OE2       24.4650   29.6950    2.4060 O.co2 150  GLU150     -0.2457
    172  N         19.7890   27.7500   -4.8780 N.3   153  LEU153     -0.1231
    173  CA        19.2690   29.0070   -5.4810 C.3   153  LEU153      0.1693
    174  C         20.3890   29.9050   -5.9600 C.2   153  LEU153      0.2592
    175  O         20.3470   30.3960   -7.1330 O.2   153  LEU153     -0.2718
    176  CB        18.3700   29.7890   -4.5180 C.3   153  LEU153      0.0284
    177  CG        17.0340   29.0770   -4.2170 C.3   153  LEU153      0.0019
    178  CD1       16.2900   29.7310   -3.0040 C.3   153  LEU153      0.0001
    179  CD2       16.0390   28.9110   -5.4630 C.3   153  LEU153      0.0001
    180  N         21.3690   30.1210   -5.0890 N.am  154  PHE154     -0.1976
    181  CA        22.4590   31.0530   -5.3920 C.3   154  PHE154      0.1639
    182  C         23.3710   30.5390   -6.4640 C.2   154  PHE154      0.2290
    183  O         23.7570   31.3370   -7.3280 O.2   154  PHE154     -0.2864
    184  CB        23.2110   31.5700   -4.1360 C.3   154  PHE154      0.0560
    185  CG        22.2530   32.2250   -3.1230 C.ar  154  PHE154     -0.0200
    186  CD1       21.0040   32.7140   -3.5560 C.ar  154  PHE154     -0.0042
    187  CD2       22.5110   32.2240   -1.7560 C.ar  154  PHE154     -0.0042
    188  CE1       20.0740   33.2660   -2.6530 C.ar  154  PHE154     -0.0003
    189  CE2       21.5880   32.8190   -0.8310 C.ar  154  PHE154     -0.0003
    190  CZ        20.3780   33.3270   -1.2880 C.ar  154  PHE154     -0.0000
    191  N         12.0590   18.5830   -1.0020 N.3   177  TRP177     -0.1241
    192  CA        11.3810   18.9530    0.2700 C.3   177  TRP177      0.1605
    193  C         10.2020   18.0260    0.5600 C.2   177  TRP177      0.2264
    194  O         10.0910   17.5130    1.6630 O.2   177  TRP177     -0.2867
    195  CB        10.8950   20.3860    0.3040 C.3   177  TRP177      0.0550
    196  CG        11.9600   21.4030    0.5880 C.ar  177  TRP177      0.0003
    197  CD1       13.1510   21.6250   -0.1270 C.ar  177  TRP177      0.0946
    198  CD2       11.9140   22.4010    1.6150 C.ar  177  TRP177      0.0152
    199  NE1       13.8520   22.6750    0.4630 N.ar  177  TRP177     -0.2442
    200  CE2       13.1110   23.1640    1.5280 C.ar  177  TRP177      0.0810
    201  CE3       10.9980   22.7040    2.6330 C.ar  177  TRP177      0.0012
    202  CZ2       13.4040   24.2120    2.4410 C.ar  177  TRP177      0.0191
    203  CZ3       11.2790   23.7580    3.5250 C.ar  177  TRP177      0.0001
    204  CH2       12.4650   24.4650    3.4440 C.ar  177  TRP177      0.0015
@<TRIPOS>BOND
     1   183   182    2
     2   175   174    2
     3   182   181    1
     4    77    76    2
     5    76    75    1
     6   174   173    1
     7   174   180   am
     8   173   172    1
     9   173   176    1
    10   179   177    1
    11   181   180    1
    12   181   184    1
    13   176   177    1
    14    75    74    1
    15    75    78    1
    16   177   178    1
    17   184   185    1
    18    78    79    1
    19    66    65    2
    20   186   185   ar
    21   186   188   ar
    22    65    64    1
    23   185   187   ar
    24    49    48    1
    25    61    59    1
    26    58    57    2
    27    44    45    1
    28   188   190   ar
    29    45    48    1
    30    45    46    1
    31    57    56    1
    32    79    80   ar
    33    79    81   ar
    34   158   157    2
    35    59    56    1
    36    59    60    1
    37    50    48    1
    38   166   165    2
    39    64    63    1
    40    64    67    1
    41    47    46    2
    42   187   189   ar
    43    80    82   ar
    44    46    51   am
    45    56    55    1
    46    62    60    1
    47    81    83   ar
    48   190   189   ar
    49   165   164    1
    50    32    33    2
    51    32    31    1
    52   157   156    1
    53   157   163   am
    54    67    68    1
    55    22    23    1
    56   191   192    1
    57   156   159    1
    58   156   155    1
    59    55    53   am
    60   161   160    2
    61    51    52    1
    62   160   159    1
    63   160   162   am
    64    82    84   ar
    65    53    54    2
    66    53    52    1
    67   197   199   ar
    68   197   196   ar
    69   164   163    1
    70   164   167    1
    71    83    84   ar
    72    30    31    1
    73    30    24   am
    74    31    34    1
    75    23    24    1
    76    23    26    1
    77    24    25    2
    78   192   195    1
    79   192   193    1
    80    34    35    1
    81   195   196    1
    82    68    70   ar
    83    68    69   ar
    84   199   200   ar
    85   193   194    2
    86   196   198   ar
    87    70    72   ar
    88    16    14    1
    89    69    71   ar
    90   168   167    1
    91   168   169    1
    92    15    14    1
    93    26    27    1
    94   200   198   ar
    95   200   202   ar
    96   198   201   ar
    97    14    13    1
    98    35    36   ar
    99    35    37   ar
   100    36    38   ar
   101    98    97   ar
   102    98    96   ar
   103    72    73   ar
   104   171   169   ar
   105   202   204   ar
   106   169   170   ar
   107    71    73   ar
   108    97    95   ar
   109    96    94   ar
   110   150   149    2
   111   201   203   ar
   112    27    28    1
   113    37    40   ar
   114    37    39   ar
   115    13    10    1
   116    40    42   ar
   117    38    39   ar
   118     1     2    1
   119   204   203   ar
   120   149   148    1
   121    95    92   ar
   122    94    92   ar
   123    94    93   ar
   124    10     9    1
   125    10    11    1
   126    39    41   ar
   127   148   147    1
   128   148   151    1
   129    92    90   ar
   130     2     5    1
   131     2     3    1
   132    93    91   ar
   133     7     6    1
   134    28    29    1
   135   120   119   ar
   136   120   118   ar
   137   119   117   ar
   138   153   152    2
   139     5     6    1
   140    42    43   ar
   141    90    91   ar
   142    90    89    1
   143   118   116   ar
   144   105   106    1
   145   105   104    1
   146    11    12    2
   147    11    17   am
   148   117   114   ar
   149     3     4    2
   150     6     8    1
   151    41    43   ar
   152   151   152    1
   153   152   154   am
   154   116   114   ar
   155   116   115   ar
   156    89    86    1
   157   114   112   ar
   158    17    18    1
   159   104   103    1
   160   115   113   ar
   161   112   111    1
   162   112   113   ar
   163   138   137    1
   164    86    85    1
   165    86    87    1
   166   139   137    1
   167   111   108    1
   168    18    19    1
   169    18    21    1
   170   145   144    1
   171   137   134    1
   172    88    87    2
   173   103   100    1
   174    19    20    2
   175   130   128   ar
   176   130   131   ar
   177   100    99    1
   178   100   101    1
   179   128   126   ar
   180   108   109    1
   181   108   107    1
   182   110   109    2
   183   134   133    1
   184   134   135    1
   185   144   146    1
   186   144   141    1
   187   132   131    1
   188   131   129   ar
   189   133   123   am
   190   136   135    2
   191   102   101    2
   192   126   125    1
   193   126   127   ar
   194   143   142    2
   195   125   122    1
   196   142   141    1
   197   123   124    2
   198   123   122    1
   199   141   140    1
   200   129   127   ar
   201   122   121    1
