@<TRIPOS>MOLECULE
tmp/3sdiK00.pdb
 127 120 0 0 0
SMALL
GASTEIGER

@<TRIPOS>ATOM
      1  N         11.7720 -139.9840    9.3450 N.3     1  THR1       -0.1218
      2  CA        11.4990 -138.7790    8.5250 C.3     1  THR1        0.1862
      3  C         12.1100 -138.8710    7.1370 C.2     1  THR1        0.2287
      4  O         13.2410 -139.3430    6.9570 O.2     1  THR1       -0.2866
      5  CB        12.0280 -137.4990    9.1950 C.3     1  THR1        0.1770
      6  OG1       11.1350 -137.1140   10.2340 O.3     1  THR1       -0.2211
      7  CG2       12.1120 -136.3530    8.2130 C.3     1  THR1        0.0375
      8  N          5.3990 -138.1780    9.8610 N.3    19  ARG19      -0.1231
      9  CA         5.4560 -139.0600   11.0350 C.3    19  ARG19       0.1694
     10  C          6.4290 -138.5400   12.0850 C.2    19  ARG19       0.2592
     11  O          7.5330 -138.0910   11.7630 O.2    19  ARG19      -0.2718
     12  CB         5.8420 -140.4930   10.6200 C.3    19  ARG19       0.0321
     13  CG         6.0690 -141.4630   11.7880 C.3    19  ARG19       0.0489
     14  CD         6.2690 -142.8850   11.3220 C.3    19  ARG19       0.2205
     15  NE         5.0250 -143.4420   10.7880 N.pl3  19  ARG19      -0.0865
     16  CZ         4.8200 -144.7270   10.5300 C.cat  19  ARG19       0.5346
     17  NH1        5.7750 -145.6240   10.7530 N.pl3  19  ARG19       0.1354
     18  NH2        3.6500 -145.1090   10.0380 N.pl3  19  ARG19       0.1354
     19  N          6.0090 -138.6060   13.3420 N.am   20  ALA20      -0.1966
     20  CA         6.9100 -138.3540   14.4600 C.3    20  ALA20       0.1728
     21  C          7.0460 -139.5920   15.3440 C.2    20  ALA20       0.2617
     22  O          6.0450 -140.2410   15.7000 O.2    20  ALA20      -0.2715
     23  CB         6.4320 -137.1550   15.2810 C.3    20  ALA20       0.0334
     24  N          8.2830 -139.9020   15.7070 N.am   21  THR21      -0.1937
     25  CA         8.5800 -141.0470   16.5820 C.3    21  THR21       0.2028
     26  C          9.3770 -140.6720   17.8470 C.2    21  THR21       0.2642
     27  O         10.1080 -139.6710   17.8720 O.2    21  THR21      -0.2714
     28  CB         9.3400 -142.1630   15.8090 C.3    21  THR21       0.1808
     29  OG1       10.3980 -141.5820   15.0350 O.3    21  THR21      -0.2208
     30  CG2        8.4100 -142.8950   14.8520 C.3    21  THR21       0.0379
     31  N          9.2030 -141.4680   18.8970 N.am   22  ALA22      -0.1963
     32  CA        10.0720 -141.4380   20.0750 C.3    22  ALA22       0.1728
     33  C         10.4920 -142.8900   20.3340 C.2    22  ALA22       0.2616
     34  O          9.7350 -143.6740   20.9230 O.2    22  ALA22      -0.2715
     35  CB         9.3450 -140.8460   21.2810 C.3    22  ALA22       0.0334
     36  N         11.6840 -143.2520   19.8620 N.am   23  GLY23      -0.1955
     37  CA        12.0780 -144.6600   19.8090 C.3    23  GLY23       0.1869
     38  C         11.1930 -145.3320   18.7720 C.2    23  GLY23       0.2309
     39  O         11.1160 -144.8710   17.6340 O.2    23  GLY23      -0.2863
     40  N          4.5780 -141.2780   17.6760 N.3    27  ALA27      -0.1231
     41  CA         4.0350 -140.1880   18.4780 C.3    27  ALA27       0.1694
     42  C          2.9190 -139.4610   17.7340 C.2    27  ALA27       0.2592
     43  O          1.9170 -139.0570   18.3410 O.2    27  ALA27      -0.2718
     44  CB         5.1310 -139.2330   18.8670 C.3    27  ALA27       0.0304
     45  N          3.0820 -139.3200   16.4190 N.am   28  SER28      -0.1952
     46  CA         2.0610 -138.7030   15.5960 C.3    28  SER28       0.1924
     47  C          2.2220 -139.0570   14.1210 C.2    28  SER28       0.2314
     48  O          3.3400 -139.2870   13.6450 O.2    28  SER28      -0.2863
     49  CB         2.0710 -137.1800   15.8080 C.3    28  SER28       0.2116
     50  OG         1.3380 -136.4920   14.8170 O.3    28  SER28      -0.2180
     51  N          1.9810 -134.5570   11.3800 N.3    31  VAL31      -0.1231
     52  CA         2.9040 -133.5250   11.8210 C.3    31  VAL31       0.1692
     53  C          3.3180 -132.6430   10.6300 C.2    31  VAL31       0.2592
     54  O          3.4540 -133.1360    9.4960 O.2    31  VAL31      -0.2718
     55  CB         4.0960 -134.2070   12.5740 C.3    31  VAL31       0.0266
     56  CG1        5.4060 -134.1100   11.8120 C.3    31  VAL31       0.0020
     57  CG2        4.1960 -133.7400   14.0230 C.3    31  VAL31       0.0020
     58  N          3.4840 -131.3390   10.8770 N.am   32  LYS32      -0.1966
     59  CA         3.8390 -130.3900    9.8070 C.3    32  LYS32       0.1728
     60  C          5.3500 -130.1610    9.6590 C.2    32  LYS32       0.2616
     61  O          5.9280 -129.3460   10.3530 O.2    32  LYS32      -0.2715
     62  CB         3.1070 -129.0590    9.9930 C.3    32  LYS32       0.0311
     63  CG         2.0340 -128.7840    8.9510 C.3    32  LYS32       0.0038
     64  CD         0.7340 -129.5980    9.1860 C.3    32  LYS32       0.0206
     65  CE        -0.2780 -129.3940    8.0400 C.3    32  LYS32       0.1093
     66  NZ        -1.3530 -130.4320    8.0450 N.3    32  LYS32      -0.1314
     67  N          5.9780 -130.8650    8.7330 N.am   33  LYS33      -0.1977
     68  CA         7.4280 -130.7990    8.5930 C.3    33  LYS33       0.1596
     69  C          7.9050 -129.7070    7.6480 C.2    33  LYS33       0.2287
     70  O          9.1000 -129.5950    7.3760 O.2    33  LYS33      -0.2864
     71  CB         7.9950 -132.1610    8.1780 C.3    33  LYS33       0.0298
     72  CG         7.9500 -133.2060    9.2860 C.3    33  LYS33       0.0038
     73  CD         8.4180 -134.5490    8.8020 C.3    33  LYS33       0.0206
     74  CE         8.3550 -135.5600    9.9230 C.3    33  LYS33       0.1093
     75  NZ         8.6410 -136.9490    9.4640 N.3    33  LYS33      -0.1314
     76  N         11.9210 -129.8240    7.7970 N.3    45  MET45      -0.1230
     77  CA        12.4160 -130.2430    9.0940 C.3    45  MET45       0.1702
     78  C         12.7000 -131.7570    9.2140 C.2    45  MET45       0.2592
     79  O         11.8530 -132.5870    8.8930 O.2    45  MET45      -0.2718
     80  CB        11.4200 -129.8110   10.1650 C.3    45  MET45       0.0401
     81  CG        10.9690 -128.3630   10.0740 C.3    45  MET45       0.0596
     82  SD         9.7790 -128.0470   11.3810 S.3    45  MET45      -0.1393
     83  CE         8.8290 -126.6810   10.7040 C.3    45  MET45       0.0692
     84  N         13.9060 -132.0940    9.6810 N.am   46  ALA46      -0.1966
     85  CA        14.2840 -133.4730   10.0230 C.3    46  ALA46       0.1728
     86  C         15.2040 -133.4880   11.2440 C.2    46  ALA46       0.2617
     87  O         16.0350 -132.5810   11.4310 O.2    46  ALA46      -0.2715
     88  CB        14.9640 -134.1530    8.8520 C.3    46  ALA46       0.0334
     89  N         15.0590 -134.5270   12.0620 N.am   47  GLY47      -0.1940
     90  CA        15.8300 -134.6550   13.2780 C.3    47  GLY47       0.2014
     91  C         14.9420 -134.3910   14.4630 C.2    47  GLY47       0.2639
     92  O         13.7990 -134.8330   14.4920 O.2    47  GLY47      -0.2714
     93  N         15.4810 -133.6730   15.4420 N.am   48  GLY48      -0.1939
     94  CA        14.7360 -133.2710   16.6240 C.3    48  GLY48       0.2014
     95  C         13.5970 -132.3360   16.2620 C.2    48  GLY48       0.2639
     96  O         13.8070 -131.2930   15.6330 O.2    48  GLY48      -0.2714
     97  N         12.3830 -132.7280   16.6330 N.am   49  ALA49      -0.1963
     98  CA        11.2040 -131.9460   16.3000 C.3    49  ALA49       0.1728
     99  C         11.3330 -130.5370   16.8780 C.2    49  ALA49       0.2616
    100  O         11.2730 -129.5520   16.1350 O.2    49  ALA49      -0.2715
    101  CB         9.9530 -132.6240   16.8110 C.3    49  ALA49       0.0334
    102  N         11.5320 -130.4580   18.1940 N.am   50  ALA50      -0.1977
    103  CA        11.6460 -129.1920   18.9030 C.3    50  ALA50       0.1597
    104  C         12.7360 -128.3120   18.2930 C.2    50  ALA50       0.2287
    105  O         12.4570 -127.2020   17.8740 O.2    50  ALA50      -0.2864
    106  CB        11.9090 -129.4410   20.3820 C.3    50  ALA50       0.0319
    107  N         14.0210 -128.3500   15.4140 N.3    52  CYS52      -0.1221
    108  CA        13.5980 -127.9090   14.0910 C.3    52  CYS52       0.1808
    109  C         12.5000 -126.8420   14.1760 C.2    52  CYS52       0.2601
    110  O         12.7040 -125.7010   13.7540 O.2    52  CYS52      -0.2717
    111  CB        13.1470 -129.0990   13.2620 C.3    52  CYS52       0.0970
    112  SG        14.5230 -130.0540   12.6130 S.3    52  CYS52      -0.0800
    113  N         11.3570 -127.2160   14.7390 N.am   53  GLN53      -0.1979
    114  CA        10.2320 -126.3080   14.9340 C.3    53  GLN53       0.1601
    115  C         10.7220 -124.9730   15.4550 C.2    53  GLN53       0.2287
    116  O         10.5400 -123.9410   14.8090 O.2    53  GLN53      -0.2864
    117  CB         9.2220 -126.8990   15.9300 C.3    53  GLN53       0.0394
    118  CG         7.7730 -126.5950   15.5860 C.3    53  GLN53       0.0908
    119  CD         6.8080 -127.3840   16.4340 C.2    53  GLN53       0.2608
    120  OE1        6.8100 -127.2710   17.6620 O.2    53  GLN53      -0.2717
    121  NE2        5.9660 -128.1810   15.7900 N.am   53  GLN53      -0.0878
    122  N         20.0370 -131.2780   16.9380 N.3    96  SER96      -0.1217
    123  CA        19.9430 -132.3630   15.9820 C.3    96  SER96       0.1889
    124  C         18.9340 -131.9910   14.9090 C.2    96  SER96       0.2288
    125  O         17.7270 -132.1020   15.1140 O.2    96  SER96      -0.2866
    126  CB        19.5200 -133.6350   16.7100 C.3    96  SER96       0.2089
    127  OG        19.8330 -134.7750   15.9450 O.3    96  SER96      -0.2183
@<TRIPOS>BOND
     1     4     3    2
     2     3     2    1
     3    70    69    2
     4    69    68    1
     5    76    77    1
     6    65    66    1
     7    65    64    1
     8    71    68    1
     9    71    72    1
    10     7     5    1
    11     2     5    1
    12     2     1    1
    13    68    67    1
    14    67    60   am
    15    73    72    1
    16    73    74    1
    17    88    85    1
    18    79    78    2
    19    63    64    1
    20    63    62    1
    21    77    78    1
    22    77    80    1
    23     5     6    1
    24    78    84   am
    25    75    74    1
    26    54    53    2
    27    60    59    1
    28    60    61    2
    29    84    85    1
    30    59    62    1
    31    59    58    1
    32     8     9    1
    33    85    86    1
    34    18    16    1
    35    81    80    1
    36    81    82    1
    37    16    17    1
    38    16    15    2
    39    12     9    1
    40    12    13    1
    41    53    58   am
    42    53    52    1
    43    83    82    1
    44    15    14    1
    45     9    10    1
    46    86    87    2
    47    86    89   am
    48    14    13    1
    49    51    52    1
    50    11    10    2
    51    56    55    1
    52    52    55    1
    53    89    90    1
    54    10    19   am
    55    55    57    1
    56   112   111    1
    57   111   108    1
    58    90    91    1
    59    19    20    1
    60    48    47    2
    61   110   109    2
    62   108   109    1
    63   108   107    1
    64    47    46    1
    65   109   113   am
    66    20    23    1
    67    20    21    1
    68    91    92    2
    69    91    93   am
    70   113   114    1
    71   116   115    2
    72    50    49    1
    73    30    28    1
    74   124   125    2
    75   124   123    1
    76   114   115    1
    77   114   117    1
    78    29    28    1
    79    21    22    2
    80    21    24   am
    81    93    94    1
    82   118   117    1
    83   118   119    1
    84    46    49    1
    85    46    45    1
    86    96    95    2
    87    24    25    1
    88   121   119   am
    89    28    25    1
    90   127   126    1
    91   123   126    1
    92   123   122    1
    93   100    99    2
    94    95    94    1
    95    95    97   am
    96    98    97    1
    97    98   101    1
    98    98    99    1
    99    45    42   am
   100   119   120    2
   101    25    26    1
   102    99   102   am
   103    39    38    2
   104    40    41    1
   105    42    43    2
   106    42    41    1
   107    26    27    2
   108    26    31   am
   109   105   104    2
   110   102   103    1
   111   104   103    1
   112    41    44    1
   113    38    37    1
   114    31    32    1
   115   103   106    1
   116    37    36    1
   117    36    33   am
   118    32    33    1
   119    32    35    1
   120    33    34    2
