@<TRIPOS>MOLECULE
tmp/3sdiZ00.pdb
 105 104 0 0 0
SMALL
GASTEIGER

@<TRIPOS>ATOM
      1  N         53.2340 -164.8630   27.4190 N.3   104  PRO104     -0.2116
      2  CA        54.6470 -164.8820   27.0630 C.3   104  PRO104      0.1372
      3  C         55.6470 -164.8030   28.2100 C.2   104  PRO104      0.2244
      4  O         55.3220 -164.3240   29.2810 O.2   104  PRO104     -0.2868
      5  CB        54.7890 -163.6240   26.1960 C.3   104  PRO104      0.0268
      6  CG        53.4170 -163.3180   25.7370 C.3   104  PRO104      0.0207
      7  CD        52.5910 -163.6340   26.9240 C.3   104  PRO104      0.0892
      8  N         58.2460 -162.6820   29.6550 N.3   106  TYR106     -0.1241
      9  CA        58.6350 -161.2660   29.4830 C.3   106  TYR106      0.1605
     10  C         60.1410 -161.0820   29.5920 C.2   106  TYR106      0.2264
     11  O         60.6380 -160.5550   30.5890 O.2   106  TYR106     -0.2867
     12  CB        57.8810 -160.3080   30.4340 C.3   106  TYR106      0.0534
     13  CG        56.5710 -159.7160   29.8860 C.ar  106  TYR106     -0.0201
     14  CD1       55.7070 -160.4760   29.0610 C.ar  106  TYR106     -0.0009
     15  CD2       56.1720 -158.4050   30.2100 C.ar  106  TYR106     -0.0009
     16  CE1       54.4790 -159.9440   28.5500 C.ar  106  TYR106      0.0417
     17  CE2       54.9300 -157.8570   29.7080 C.ar  106  TYR106      0.0417
     18  CZ        54.1040 -158.6460   28.8810 C.ar  106  TYR106      0.1957
     19  OH        52.9180 -158.1480   28.3830 O.3   106  TYR106     -0.2866
     20  N         69.6640 -163.1670   18.8970 N.3   124  SER124     -0.1202
     21  CA        68.7670 -162.5460   19.8710 C.3   124  SER124      0.2020
     22  C         67.3030 -162.7290   19.5120 C.2   124  SER124      0.2619
     23  O         66.9630 -162.8800   18.3460 O.2   124  SER124     -0.2717
     24  CB        69.0960 -161.0670   20.0730 C.3   124  SER124      0.2103
     25  OG        69.1140 -160.3610   18.8420 O.3   124  SER124     -0.2182
     26  N         66.4470 -162.7340   20.5340 N.am  125  PHE125     -0.1961
     27  CA        65.0150 -163.0310   20.3750 C.3   125  PHE125      0.1771
     28  C         64.1450 -161.9350   20.9770 C.2   125  PHE125      0.2620
     29  O         64.5280 -161.3130   21.9670 O.2   125  PHE125     -0.2715
     30  CB        64.6730 -164.3510   21.0800 C.3   125  PHE125      0.0574
     31  CG        65.6000 -165.4790   20.7460 C.ar  125  PHE125     -0.0200
     32  CD1       66.9140 -165.4870   21.2160 C.ar  125  PHE125     -0.0042
     33  CD2       65.1550 -166.5480   19.9750 C.ar  125  PHE125     -0.0042
     34  CE1       67.7840 -166.5340   20.9000 C.ar  125  PHE125     -0.0003
     35  CE2       66.0180 -167.5980   19.6450 C.ar  125  PHE125     -0.0003
     36  CZ        67.3340 -167.5960   20.1180 C.ar  125  PHE125     -0.0000
     37  N         62.9650 -161.7130   20.4080 N.am  126  ASP126     -0.1958
     38  CA        61.9700 -160.8870   21.0830 C.3   126  ASP126      0.1825
     39  C         61.2490 -161.8010   22.0640 C.2   126  ASP126      0.2464
     40  O         61.4840 -163.0170   22.0390 O.2   126  ASP126     -0.2730
     41  CB        61.0190 -160.1930   20.0920 C.3   126  ASP126      0.1450
     42  CG        60.0560 -161.1510   19.4020 C.2   126  ASP126      0.3671
     43  OD1       59.3010 -160.6950   18.5070 O.co2 126  ASP126     -0.2456
     44  OD2       60.0380 -162.3540   19.7330 O.co2 126  ASP126     -0.2456
     45  N         60.3930 -161.2390   22.9480 N.am  127  PRO127     -0.2715
     46  CA        59.7470 -162.0800   23.9620 C.3   127  PRO127      0.1536
     47  C         58.9380 -163.2730   23.4470 C.2   127  PRO127      0.2598
     48  O         58.7080 -164.2050   24.2160 O.2   127  PRO127     -0.2715
     49  CB        58.8420 -161.1020   24.7040 C.3   127  PRO127      0.0310
     50  CG        59.5050 -159.8260   24.5700 C.3   127  PRO127      0.0237
     51  CD        60.1850 -159.8080   23.2330 C.3   127  PRO127      0.0939
     52  N         58.5200 -163.2730   22.1850 N.am  128  VAL128     -0.1978
     53  CA        57.7160 -164.3960   21.6770 C.3   128  VAL128      0.1596
     54  C         58.3710 -165.3030   20.6140 C.2   128  VAL128      0.2287
     55  O         57.6810 -166.0570   19.9400 O.2   128  VAL128     -0.2864
     56  CB        56.2880 -163.9590   21.2180 C.3   128  VAL128      0.0276
     57  CG1       55.4040 -163.6800   22.4150 C.3   128  VAL128      0.0022
     58  CG2       56.3530 -162.7440   20.3080 C.3   128  VAL128      0.0022
     59  N         60.7520 -164.5320   17.9550 N.3   130  SER130     -0.1202
     60  CA        61.2730 -164.0230   16.7040 C.3   130  SER130      0.2020
     61  C         62.7580 -163.8310   16.9180 C.2   130  SER130      0.2619
     62  O         63.1660 -163.3380   17.9550 O.2   130  SER130     -0.2717
     63  CB        60.5530 -162.7140   16.3710 C.3   130  SER130      0.2103
     64  OG        61.4060 -161.6970   15.8930 O.3   130  SER130     -0.2182
     65  N         63.5800 -164.2560   15.9720 N.am  131  TYR131     -0.1961
     66  CA        65.0170 -164.2360   16.2130 C.3   131  TYR131      0.1771
     67  C         65.8270 -164.0650   14.9640 C.2   131  TYR131      0.2619
     68  O         65.3450 -164.3130   13.8680 O.2   131  TYR131     -0.2715
     69  CB        65.4730 -165.4980   16.9340 C.3   131  TYR131      0.0574
     70  CG        65.6150 -166.7410   16.0750 C.ar  131  TYR131     -0.0198
     71  CD1       66.8780 -167.1700   15.6280 C.ar  131  TYR131     -0.0009
     72  CD2       64.4980 -167.5120   15.7340 C.ar  131  TYR131     -0.0009
     73  CE1       67.0180 -168.3290   14.8500 C.ar  131  TYR131      0.0417
     74  CE2       64.6290 -168.6700   14.9560 C.ar  131  TYR131      0.0417
     75  CZ        65.8910 -169.0740   14.5200 C.ar  131  TYR131      0.1957
     76  OH        66.0150 -170.2100   13.7550 O.3   131  TYR131     -0.2866
     77  N         67.0750 -163.6650   15.1530 N.am  132  GLU132     -0.1977
     78  CA        67.9710 -163.3640   14.0600 C.3   132  GLU132      0.1602
     79  C         69.3990 -163.4680   14.5830 C.2   132  GLU132      0.2287
     80  O         69.6590 -163.2280   15.7680 O.2   132  GLU132     -0.2864
     81  CB        67.6770 -161.9450   13.5410 C.3   132  GLU132      0.0415
     82  CG        68.4610 -161.4740   12.2990 C.3   132  GLU132      0.1163
     83  CD        69.0300 -160.0350   12.4580 C.2   132  GLU132      0.3649
     84  OE1       70.1600 -159.7730   11.9490 O.co2 132  GLU132     -0.2457
     85  OE2       68.3600 -159.1700   13.0980 O.co2 132  GLU132     -0.2457
     86  N         73.1430 -162.0000   14.6610 N.3   134  GLU134     -0.1245
     87  CA        73.7630 -160.6770   14.5520 C.3   134  GLU134      0.1567
     88  C         75.2050 -160.6600   15.0230 C.2   134  GLU134      0.2260
     89  O         75.6700 -161.5920   15.6730 O.2   134  GLU134     -0.2867
     90  CB        72.9670 -159.6560   15.3750 C.3   134  GLU134      0.0388
     91  CG        71.6020 -159.3080   14.7860 C.3   134  GLU134      0.1160
     92  CD        70.5960 -158.8330   15.8290 C.2   134  GLU134      0.3649
     93  OE1       69.6110 -158.1750   15.4170 O.co2 134  GLU134     -0.2457
     94  OE2       70.7800 -159.1270   17.0430 O.co2 134  GLU134     -0.2457
     95  N         74.4980 -157.1510   20.0580 N.3   137  ARG137     -0.1245
     96  CA        73.1380 -156.9240   20.5340 C.3   137  ARG137      0.1563
     97  C         73.1380 -156.6000   22.0150 C.2   137  ARG137      0.2260
     98  O         73.8460 -157.2350   22.7930 O.2   137  ARG137     -0.2867
     99  CB        72.2620 -158.1510   20.2250 C.3   137  ARG137      0.0307
    100  CG        70.9010 -158.2340   20.9210 C.3   137  ARG137      0.0489
    101  CD        69.9200 -157.1640   20.4940 C.3   137  ARG137      0.2205
    102  NE        69.6370 -157.2090   19.0650 N.pl3 137  ARG137     -0.0865
    103  CZ        68.7370 -156.4470   18.4480 C.cat 137  ARG137      0.5346
    104  NH1       68.0110 -155.5580   19.1160 N.pl3 137  ARG137      0.1354
    105  NH2       68.5650 -156.5750   17.1450 N.pl3 137  ARG137      0.1354
@<TRIPOS>BOND
     1    84    83   ar
     2    82    83    1
     3    82    81    1
     4    83    85   ar
     5    81    78    1
     6    76    75    1
     7    68    67    2
     8    78    79    1
     9    78    77    1
    10    75    73   ar
    11    75    74   ar
    12    87    86    1
    13    87    88    1
    14    87    90    1
    15    79    80    2
    16    91    90    1
    17    91    92    1
    18    73    71   ar
    19    74    72   ar
    20    67    77   am
    21    67    66    1
    22    88    89    2
    23    93    92   ar
    24    71    70   ar
    25    72    70   ar
    26    92    94   ar
    27    64    63    1
    28    65    66    1
    29    65    61   am
    30    70    69    1
    31    66    69    1
    32    63    60    1
    33    60    61    1
    34    60    59    1
    35    61    62    2
    36   105   103    1
    37    23    22    2
    38   103   102    2
    39   103   104    1
    40    43    42   ar
    41    25    24    1
    42    20    21    1
    43   102   101    1
    44    42    44   ar
    45    42    41    1
    46    22    21    1
    47    22    26   am
    48    35    33   ar
    49    35    36   ar
    50    21    24    1
    51    55    54    2
    52    33    31   ar
    53    95    96    1
    54    41    38    1
    55    36    34   ar
    56    99    96    1
    57    99   100    1
    58    58    56    1
    59    27    26    1
    60    27    28    1
    61    27    30    1
    62    37    28   am
    63    37    38    1
    64   101   100    1
    65    96    97    1
    66    54    53    1
    67    31    30    1
    68    31    32   ar
    69    34    32   ar
    70    28    29    2
    71    38    39    1
    72    56    53    1
    73    56    57    1
    74    53    52    1
    75    97    98    2
    76    40    39    2
    77    39    45   am
    78    52    47   am
    79    45    51    1
    80    45    46    1
    81    51    50    1
    82    47    46    1
    83    47    48    2
    84    46    49    1
    85    50    49    1
    86     6     5    1
    87     6     7    1
    88     5     2    1
    89     7     1    1
    90     2     1    1
    91     2     3    1
    92     3     4    2
    93    19    18    1
    94    16    18   ar
    95    16    14   ar
    96    18    17   ar
    97    14    13   ar
    98     9    10    1
    99     9     8    1
   100     9    12    1
   101    10    11    2
   102    17    15   ar
   103    13    15   ar
   104    13    12    1
