@<TRIPOS>MOLECULE
tmp/3sdkY00.pdb
 135 129 0 0 0
SMALL
GASTEIGER

@<TRIPOS>ATOM
      1  N         57.0060 -152.4850    8.5200 N.3     1  THR1       -0.1218
      2  CA        57.2580 -153.5100    7.4670 C.3     1  THR1        0.1862
      3  C         56.6300 -153.1110    6.1470 C.2     1  THR1        0.2287
      4  O         55.5070 -152.6050    6.0990 O.2     1  THR1       -0.2866
      5  CB        56.7130 -154.9170    7.8710 C.3     1  THR1        0.1770
      6  OG1       57.4210 -155.3970    9.0180 O.3     1  THR1       -0.2211
      7  CG2       56.8940 -155.9140    6.7660 C.3     1  THR1        0.0375
      8  N         63.2790 -154.4370    8.6700 N.3    19  ARG19      -0.1231
      9  CA        63.2240 -153.7320    9.9560 C.3    19  ARG19       0.1694
     10  C         62.2290 -154.3380   10.9410 C.2    19  ARG19       0.2592
     11  O         61.0910 -154.6560   10.5840 O.2    19  ARG19      -0.2718
     12  CB        62.9190 -152.2410    9.7520 C.3    19  ARG19       0.0321
     13  CG        62.5350 -151.5050   11.0320 C.3    19  ARG19       0.0489
     14  CD        62.4170 -150.0130   10.8320 C.3    19  ARG19       0.2205
     15  NE        63.7280 -149.3780   10.7660 N.pl3  19  ARG19      -0.0865
     16  CZ        63.9290 -148.1010   10.4670 C.cat  19  ARG19       0.5346
     17  NH1       62.9030 -147.3070   10.2040 N.pl3  19  ARG19       0.1354
     18  NH2       65.1630 -147.6200   10.4280 N.pl3  19  ARG19       0.1354
     19  N         62.6740 -154.4820   12.1860 N.am   20  ALA20      -0.1966
     20  CA        61.8120 -154.9120   13.2740 C.3    20  ALA20       0.1728
     21  C         61.7740 -153.8070   14.3070 C.2    20  ALA20       0.2617
     22  O         62.8050 -153.2140   14.6190 O.2    20  ALA20      -0.2715
     23  CB        62.3330 -156.1920   13.8980 C.3    20  ALA20       0.0334
     24  N         60.5840 -153.5380   14.8350 N.am   21  THR21      -0.1937
     25  CA        60.3910 -152.5070   15.8520 C.3    21  THR21       0.2028
     26  C         59.6070 -153.0330   17.0510 C.2    21  THR21       0.2642
     27  O         58.8700 -154.0080   16.9510 O.2    21  THR21      -0.2714
     28  CB        59.6070 -151.2900   15.2950 C.3    21  THR21       0.1808
     29  OG1       58.3280 -151.7290   14.8190 O.3    21  THR21      -0.2208
     30  CG2       60.3570 -150.5850   14.1740 C.3    21  THR21       0.0379
     31  N         59.7740 -152.3560   18.1810 N.am   22  ALA22      -0.1963
     32  CA        58.9030 -152.5040   19.3290 C.3    22  ALA22       0.1728
     33  C         58.5600 -151.0920   19.7890 C.2    22  ALA22       0.2616
     34  O         59.4280 -150.3660   20.2790 O.2    22  ALA22      -0.2715
     35  CB        59.6030 -153.2660   20.4200 C.3    22  ALA22       0.0334
     36  N         57.2980 -150.7020   19.6160 N.am   23  GLY23      -0.1955
     37  CA        56.8830 -149.3120   19.7930 C.3    23  GLY23       0.1869
     38  C         57.7090 -148.4310   18.8650 C.2    23  GLY23       0.2309
     39  O         57.7610 -148.6650   17.6580 O.2    23  GLY23      -0.2863
     40  N         60.9930 -148.0380   19.3660 N.3    25  TRP25      -0.1241
     41  CA        62.3130 -148.6530   19.3640 C.3    25  TRP25       0.1605
     42  C         62.5560 -149.4480   18.0810 C.2    25  TRP25       0.2264
     43  O         61.8100 -150.3810   17.7640 O.2    25  TRP25      -0.2867
     44  CB        62.4450 -149.5620   20.5810 C.3    25  TRP25       0.0550
     45  CG        63.6820 -150.3880   20.6240 C.ar   25  TRP25       0.0003
     46  CD1       63.7590 -151.7460   20.5190 C.ar   25  TRP25       0.0946
     47  CD2       65.0250 -149.9230   20.8160 C.ar   25  TRP25       0.0152
     48  NE1       65.0660 -152.1550   20.6240 N.ar   25  TRP25      -0.2442
     49  CE2       65.8640 -151.0580   20.8030 C.ar   25  TRP25       0.0810
     50  CE3       65.6010 -148.6570   20.9880 C.ar   25  TRP25       0.0012
     51  CZ2       67.2490 -150.9690   20.9650 C.ar   25  TRP25       0.0191
     52  CZ3       66.9740 -148.5670   21.1390 C.ar   25  TRP25       0.0001
     53  CH2       67.7820 -149.7190   21.1330 C.ar   25  TRP25       0.0015
     54  N         64.2450 -152.2100   16.6220 N.3    27  ALA27      -0.1245
     55  CA        64.7970 -153.4130   17.2630 C.3    27  ALA27       0.1562
     56  C         65.9350 -154.0380   16.4630 C.2    27  ALA27       0.2260
     57  O         66.9390 -154.4610   17.0390 O.2    27  ALA27      -0.2867
     58  CB        63.7070 -154.4350   17.5310 C.3    27  ALA27       0.0290
     59  N         66.7320 -158.1090    9.6390 N.3    31  VAL31      -0.1231
     60  CA        65.8030 -159.2180    9.7580 C.3    31  VAL31       0.1692
     61  C         65.4440 -159.7710    8.3850 C.2    31  VAL31       0.2592
     62  O         65.3840 -159.0270    7.4060 O.2    31  VAL31      -0.2718
     63  CB        64.5580 -158.7780   10.5800 C.3    31  VAL31       0.0266
     64  CG1       63.2700 -159.2850    9.9810 C.3    31  VAL31       0.0020
     65  CG2       64.6990 -159.2200   12.0180 C.3    31  VAL31       0.0020
     66  N         65.2320 -161.0830    8.3150 N.am   32  LYS32      -0.1966
     67  CA        64.8840 -161.7360    7.0610 C.3    32  LYS32       0.1728
     68  C         63.3840 -161.9840    6.9690 C.2    32  LYS32       0.2616
     69  O         62.8660 -162.8680    7.6350 O.2    32  LYS32      -0.2715
     70  CB        65.6680 -163.0430    6.8990 C.3    32  LYS32       0.0311
     71  CG        66.8650 -162.9440    5.9450 C.3    32  LYS32       0.0038
     72  CD        68.0450 -162.1350    6.5420 C.3    32  LYS32       0.0206
     73  CE        69.3070 -162.2250    5.6680 C.3    32  LYS32       0.1093
     74  NZ        69.0060 -161.9700    4.2200 N.3    32  LYS32      -0.1314
     75  N         62.6950 -161.2090    6.1380 N.am   33  LYS33      -0.1977
     76  CA        61.2370 -161.2800    6.0550 C.3    33  LYS33       0.1596
     77  C         60.7290 -162.1510    4.9100 C.2    33  LYS33       0.2287
     78  O         59.5170 -162.2590    4.6950 O.2    33  LYS33      -0.2864
     79  CB        60.6290 -159.8730    5.9650 C.3    33  LYS33       0.0298
     80  CG        60.6880 -159.0800    7.2600 C.3    33  LYS33       0.0038
     81  CD        60.2510 -157.6520    7.0320 C.3    33  LYS33       0.0206
     82  CE        60.2870 -156.8600    8.3190 C.3    33  LYS33       0.1093
     83  NZ        60.0460 -155.4120    8.0770 N.3    33  LYS33      -0.1314
     84  N         56.7580 -162.1290    5.1420 N.3    45  MET45      -0.1230
     85  CA        56.2840 -161.9590    6.5090 C.3    45  MET45       0.1702
     86  C         56.0230 -160.4990    6.8790 C.2    45  MET45       0.2592
     87  O         56.9170 -159.6620    6.7980 O.2    45  MET45      -0.2718
     88  CB        57.3100 -162.5470    7.4780 C.3    45  MET45       0.0401
     89  CG        57.6860 -163.9840    7.1870 C.3    45  MET45       0.0596
     90  SD        58.7310 -164.6710    8.4810 S.3    45  MET45      -0.1393
     91  CE        60.3710 -164.2780    7.9300 C.3    45  MET45       0.0692
     92  N         54.8000 -160.2000    7.2980 N.am   46  ALA46      -0.1966
     93  CA        54.4850 -158.9000    7.8910 C.3    46  ALA46       0.1728
     94  C         53.5300 -159.0910    9.0540 C.2    46  ALA46       0.2617
     95  O         52.6300 -159.9270    8.9940 O.2    46  ALA46      -0.2715
     96  CB        53.8850 -157.9820    6.8700 C.3    46  ALA46       0.0334
     97  N         53.7300 -158.3100   10.1070 N.am   47  GLY47      -0.1940
     98  CA        52.9240 -158.3940   11.3180 C.3    47  GLY47       0.2014
     99  C         53.8260 -158.7730   12.4680 C.2    47  GLY47       0.2639
    100  O         54.9470 -158.2780   12.5720 O.2    47  GLY47      -0.2714
    101  N         53.3510 -159.6650   13.3270 N.am   48  GLY48      -0.1939
    102  CA        54.1400 -160.0970   14.4740 C.3    48  GLY48       0.2014
    103  C         55.3000 -160.9510   14.0150 C.2    48  GLY48       0.2639
    104  O         55.1140 -161.9240   13.2690 O.2    48  GLY48      -0.2714
    105  N         56.4980 -160.5750   14.4570 N.am   49  ALA49      -0.1963
    106  CA        57.7380 -161.2580   14.0780 C.3    49  ALA49       0.1728
    107  C         57.7040 -162.7550   14.3770 C.2    49  ALA49       0.2616
    108  O         58.0720 -163.5640   13.5230 O.2    49  ALA49      -0.2715
    109  CB        58.9190 -160.6070   14.7630 C.3    49  ALA49       0.0334
    110  N         57.2480 -163.1200   15.5740 N.am   50  ALA50      -0.1977
    111  CA        57.2000 -164.5200   15.9790 C.3    50  ALA50       0.1597
    112  C         56.1270 -165.2620   15.2070 C.2    50  ALA50       0.2287
    113  O         56.4030 -166.2880   14.5810 O.2    50  ALA50      -0.2864
    114  CB        56.9770 -164.6500   17.4680 C.3    50  ALA50       0.0319
    115  N         54.7750 -164.8200   12.3810 N.3    52  CYS52      -0.1221
    116  CA        55.1780 -165.0330   11.0000 C.3    52  CYS52       0.1808
    117  C         56.2830 -166.0740   10.8660 C.2    52  CYS52       0.2601
    118  O         56.1610 -167.0150   10.0900 O.2    52  CYS52      -0.2717
    119  CB        55.6370 -163.7120   10.3810 C.3    52  CYS52       0.0970
    120  SG        54.2950 -162.5780   10.0110 S.3    52  CYS52      -0.0800
    121  N         57.3570 -165.8900   11.6170 N.am   53  GLN53      -0.1979
    122  CA        58.4980 -166.7800   11.5520 C.3    53  GLN53       0.1601
    123  C         58.1120 -168.2000   11.9490 C.2    53  GLN53       0.2287
    124  O         58.4800 -169.1610   11.2700 O.2    53  GLN53      -0.2864
    125  CB        59.5850 -166.2640   12.4790 C.3    53  GLN53       0.0394
    126  CG        60.9830 -166.5430   12.0270 C.3    53  GLN53       0.0908
    127  CD        61.9870 -165.9620   12.9830 C.2    53  GLN53       0.2608
    128  OE1       61.9640 -166.2440   14.1920 O.2    53  GLN53      -0.2717
    129  NE2       62.8750 -165.1410   12.4610 N.am   53  GLN53      -0.0878
    130  N         48.7870 -162.1110   14.7530 N.3    96  SER96      -0.1217
    131  CA        48.9210 -160.9690   13.8630 C.3    96  SER96       0.1889
    132  C         49.9350 -161.2410   12.7680 C.2    96  SER96       0.2288
    133  O         51.1470 -161.2280   13.0040 O.2    96  SER96      -0.2866
    134  CB        49.3140 -159.7140   14.6490 C.3    96  SER96       0.2089
    135  OG        49.3430 -158.5760   13.8040 O.3    96  SER96      -0.2183
@<TRIPOS>BOND
     1    74    73    1
     2    78    77    2
     3    77    76    1
     4    84    85    1
     5    73    72    1
     6    71    72    1
     7    71    70    1
     8    79    76    1
     9    79    80    1
    10    76    75    1
    11     4     3    2
    12    75    68   am
    13     3     2    1
    14    85    86    1
    15    85    88    1
    16     7     5    1
    17    87    86    2
    18    96    93    1
    19    86    92   am
    20    70    67    1
    21    68    67    1
    22    68    69    2
    23    81    80    1
    24    81    82    1
    25    67    66    1
    26    89    88    1
    27    89    90    1
    28    92    93    1
    29    62    61    2
    30     2     5    1
    31     2     1    1
    32     5     6    1
    33    93    94    1
    34    91    90    1
    35    83    82    1
    36    66    61   am
    37    61    60    1
    38     8     9    1
    39    95    94    2
    40    94    97   am
    41    59    60    1
    42    12     9    1
    43    12    13    1
    44    60    63    1
    45     9    10    1
    46    64    63    1
    47   120   119    1
    48   118   117    2
    49    97    98    1
    50    17    16    1
    51   119   116    1
    52    18    16    1
    53    16    15    2
    54    63    65    1
    55    11    10    2
    56    15    14    1
    57    14    13    1
    58   117   116    1
    59   117   121   am
    60    10    19   am
    61   116   115    1
    62   124   123    2
    63    98    99    1
    64   122   121    1
    65   122   123    1
    66   122   125    1
    67   126   125    1
    68   126   127    1
    69    19    20    1
    70   129   127   am
    71    99   100    2
    72    99   101   am
    73   132   133    2
    74   132   131    1
    75   127   128    2
    76   104   103    2
    77    20    23    1
    78    20    21    1
    79   101   102    1
    80   108   107    2
    81   135   134    1
    82   131   134    1
    83   131   130    1
    84   103   105   am
    85   103   102    1
    86   106   107    1
    87   106   105    1
    88   106   109    1
    89    30    28    1
    90    21    22    2
    91    21    24   am
    92   107   110   am
    93   113   112    2
    94    29    28    1
    95    24    25    1
    96   112   111    1
    97    28    25    1
    98   110   111    1
    99    25    26    1
   100   111   114    1
   101    56    57    2
   102    56    55    1
   103    54    55    1
   104    27    26    2
   105    26    31   am
   106    55    58    1
   107    39    38    2
   108    43    42    2
   109    42    41    1
   110    31    32    1
   111    38    37    1
   112    32    33    1
   113    32    35    1
   114    41    40    1
   115    41    44    1
   116    36    33   am
   117    36    37    1
   118    33    34    2
   119    46    45   ar
   120    46    48   ar
   121    44    45    1
   122    45    47   ar
   123    48    49   ar
   124    49    47   ar
   125    49    51   ar
   126    47    50   ar
   127    51    53   ar
   128    50    52   ar
   129    53    52   ar
