@<TRIPOS>MOLECULE
tmp/3sdrA00.pdb
 110 101 0 0 0
SMALL
GASTEIGER

@<TRIPOS>ATOM
      1  N        112.3110   26.3930   36.7940 N.3   495  ARG495     -0.1245
      2  CA       111.0000   25.9930   36.2830 C.3   495  ARG495      0.1563
      3  C        110.5380   26.8040   35.0740 C.2   495  ARG495      0.2260
      4  O        109.3690   27.1830   35.0050 O.2   495  ARG495     -0.2867
      5  CB       109.9380   26.1380   37.3850 C.3   495  ARG495      0.0307
      6  CG       110.2020   25.3490   38.6460 C.3   495  ARG495      0.0489
      7  CD       108.9710   25.3490   39.5270 C.3   495  ARG495      0.2205
      8  NE       108.8940   26.5160   40.4000 N.pl3 495  ARG495     -0.0865
      9  CZ       107.7570   27.0280   40.8660 C.cat 495  ARG495      0.5346
     10  NH1      106.5940   26.4910   40.5250 N.pl3 495  ARG495      0.1354
     11  NH2      107.7810   28.0850   41.6680 N.pl3 495  ARG495      0.1354
     12  N        111.2610   35.2130   45.4710 N.3   530  ASP530     -0.1225
     13  CA       110.4160   34.6250   46.4990 C.3   530  ASP530      0.1805
     14  C        111.2380   33.7530   47.4470 C.2   530  ASP530      0.2597
     15  O        111.1740   33.9140   48.6680 O.2   530  ASP530     -0.2718
     16  CB       109.3240   33.7850   45.8570 C.3   530  ASP530      0.1424
     17  CG       108.3800   33.2220   46.8780 C.2   530  ASP530      0.3668
     18  OD1      107.8090   34.0330   47.6380 O.co2 530  ASP530     -0.2456
     19  OD2      108.2360   31.9870   46.9420 O.co2 530  ASP530     -0.2456
     20  N        112.0060   32.8240   46.8900 N.am  531  ASP531     -0.1974
     21  CA       112.8360   31.9430   47.7140 C.3   531  ASP531      0.1709
     22  C        113.8440   32.7400   48.5350 C.2   531  ASP531      0.2293
     23  O        114.1760   32.3750   49.6630 O.2   531  ASP531     -0.2864
     24  CB       113.5580   30.8980   46.8560 C.3   531  ASP531      0.1436
     25  CG       112.6130   29.8620   46.2680 C.2   531  ASP531      0.3671
     26  OD1      111.4200   29.8400   46.6450 O.co2 531  ASP531     -0.2456
     27  OD2      113.0670   29.0570   45.4280 O.co2 531  ASP531     -0.2456
     28  N        111.7050   34.6870   51.4500 N.3   534  ASP534     -0.1239
     29  CA       110.9620   33.9010   52.4370 C.3   534  ASP534      0.1674
     30  C        111.7260   32.6850   52.9670 C.2   534  ASP534      0.2266
     31  O        111.2290   31.9660   53.8300 O.2   534  ASP534     -0.2867
     32  CB       109.5480   33.5330   51.9420 C.3   534  ASP534      0.1410
     33  CG       109.5560   32.5270   50.8080 C.2   534  ASP534      0.3668
     34  OD1      110.5430   31.7720   50.6960 O.co2 534  ASP534     -0.2456
     35  OD2      108.5660   32.4860   50.0330 O.co2 534  ASP534     -0.2456
     36  N        107.2070   41.5710   50.1780 N.3   605  TYR605     -0.1241
     37  CA       108.1020   40.4870   50.5900 C.3   605  TYR605      0.1605
     38  C        108.8530   40.8260   51.8730 C.2   605  TYR605      0.2264
     39  O        109.0080   39.9820   52.7530 O.2   605  TYR605     -0.2867
     40  CB       109.1450   40.1890   49.5000 C.3   605  TYR605      0.0534
     41  CG       108.7010   39.2140   48.4440 C.ar  605  TYR605     -0.0201
     42  CD1      107.5390   38.4630   48.6010 C.ar  605  TYR605     -0.0009
     43  CD2      109.4530   39.0330   47.2840 C.ar  605  TYR605     -0.0009
     44  CE1      107.1330   37.5680   47.6250 C.ar  605  TYR605      0.0417
     45  CE2      109.0520   38.1400   46.3010 C.ar  605  TYR605      0.0417
     46  CZ       107.8980   37.4110   46.4770 C.ar  605  TYR605      0.1957
     47  OH       107.4990   36.5200   45.5030 O.3   605  TYR605     -0.2866
     48  N        106.8300   40.6180   54.9900 N.3   608  GLU608     -0.1245
     49  CA       106.7070   39.1980   55.2730 C.3   608  GLU608      0.1567
     50  C        107.9870   38.6590   55.9130 C.2   608  GLU608      0.2260
     51  O        107.9360   37.8250   56.8180 O.2   608  GLU608     -0.2867
     52  CB       106.4400   38.4580   53.9640 C.3   608  GLU608      0.0388
     53  CG       105.7100   37.1400   54.0890 C.3   608  GLU608      0.1160
     54  CD       105.3370   36.5700   52.7320 C.2   608  GLU608      0.3649
     55  OE1      104.3110   35.8710   52.6330 O.co2 608  GLU608     -0.2457
     56  OE2      106.0670   36.8280   51.7550 O.co2 608  GLU608     -0.2457
     57  N        102.1010   38.2940   46.8170 N.3   631  ILE631     -0.1245
     58  CA       102.0380   37.0690   46.0210 C.3   631  ILE631      0.1561
     59  C        102.6540   37.2640   44.6260 C.2   631  ILE631      0.2260
     60  O        103.0830   36.3020   43.9840 O.2   631  ILE631     -0.2867
     61  CB       100.6320   36.4450   45.9420 C.3   631  ILE631      0.0252
     62  CG1      100.7630   34.9800   45.5170 C.3   631  ILE631      0.0019
     63  CG2       99.7290   37.2330   45.0030 C.3   631  ILE631      0.0019
     64  CD1       99.4860   34.2630   45.3870 C.3   631  ILE631      0.0001
     65  N        101.4190   38.3120   41.7180 N.3   633  GLN633     -0.1245
     66  CA       100.6390   38.0920   40.5030 C.3   633  GLN633      0.1566
     67  C        100.3750   39.3970   39.7790 C.2   633  GLN633      0.2260
     68  O        100.3520   39.4420   38.5570 O.2   633  GLN633     -0.2867
     69  CB        99.3200   37.3920   40.8180 C.3   633  GLN633      0.0367
     70  CG        99.4990   35.9650   41.2660 C.3   633  GLN633      0.0905
     71  CD        99.9230   35.0610   40.1360 C.2   633  GLN633      0.2608
     72  OE1      101.0760   34.6300   40.0640 O.2   633  GLN633     -0.2717
     73  NE2       98.9960   34.7680   39.2450 N.am  633  GLN633     -0.0878
     74  N         96.5310   33.7360   46.0830 N.3   674  ARG674     -0.1245
     75  CA        96.9980   33.6120   47.4620 C.3   674  ARG674      0.1563
     76  C         96.2000   32.5630   48.2170 C.2   674  ARG674      0.2260
     77  O         96.7680   31.6830   48.8690 O.2   674  ARG674     -0.2867
     78  CB        96.9340   34.9620   48.1840 C.3   674  ARG674      0.0307
     79  CG        97.2300   34.8960   49.6940 C.3   674  ARG674      0.0489
     80  CD        98.7200   34.6450   49.9720 C.3   674  ARG674      0.2205
     81  NE        99.0780   33.2410   49.7920 N.pl3 674  ARG674     -0.0865
     82  CZ       100.3180   32.7950   49.6180 C.cat 674  ARG674      0.5346
     83  NH1      101.3400   33.6450   49.5870 N.pl3 674  ARG674      0.1354
     84  NH2      100.5350   31.4970   49.4580 N.pl3 674  ARG674      0.1354
     85  N         96.2320   28.9030   46.7020 N.3   677  ASP677     -0.1239
     86  CA        97.5220   28.3600   47.1040 C.3   677  ASP677      0.1674
     87  C         97.4530   27.8170   48.5300 C.2   677  ASP677      0.2266
     88  O         97.8610   26.6840   48.8030 O.2   677  ASP677     -0.2867
     89  CB        98.6020   29.4430   46.9860 C.3   677  ASP677      0.1410
     90  CG        99.9750   28.9540   47.3960 C.2   677  ASP677      0.3668
     91  OD1      100.1180   28.3800   48.4950 O.co2 677  ASP677     -0.2456
     92  OD2      100.9190   29.1530   46.6110 O.co2 677  ASP677     -0.2456
     93  N         97.9470   23.9770   49.7350 N.3   681  THR681     -0.1218
     94  CA        99.1780   23.7160   50.4700 C.3   681  THR681      0.1862
     95  C         98.9560   23.9740   51.9640 C.2   681  THR681      0.2287
     96  O         98.0760   23.3720   52.5650 O.2   681  THR681     -0.2866
     97  CB       100.3660   24.5350   49.8990 C.3   681  THR681      0.1770
     98  OG1      100.0370   25.9300   49.8840 O.3   681  THR681     -0.2211
     99  CG2      100.6640   24.1010   48.4730 C.3   681  THR681      0.0375
    100  N         96.0220   24.6160   41.5410 N.3   748  PHE748     -0.1241
    101  CA        95.6540   24.5750   42.9590 C.3   748  PHE748      0.1605
    102  C         94.2900   23.9470   43.2600 C.2   748  PHE748      0.2264
    103  O         93.7810   24.0790   44.3770 O.2   748  PHE748     -0.2867
    104  CB        95.6990   25.9860   43.5480 C.3   748  PHE748      0.0534
    105  CG        97.0620   26.5970   43.5390 C.ar  748  PHE748     -0.0203
    106  CD1       98.1560   25.8800   43.9990 C.ar  748  PHE748     -0.0042
    107  CD2       97.2590   27.8820   43.0620 C.ar  748  PHE748     -0.0042
    108  CE1       99.4240   26.4360   43.9880 C.ar  748  PHE748     -0.0003
    109  CE2       98.5300   28.4430   43.0470 C.ar  748  PHE748     -0.0003
    110  CZ        99.6100   27.7160   43.5080 C.ar  748  PHE748     -0.0000
@<TRIPOS>BOND
     1     4     3    2
     2     3     2    1
     3     2     1    1
     4     2     5    1
     5     5     6    1
     6    68    67    2
     7     6     7    1
     8    73    71   am
     9     7     8    1
    10    67    66    1
    11    72    71    2
    12    71    70    1
    13     8     9    2
    14    66    69    1
    15    66    65    1
    16    10     9    1
    17    69    70    1
    18     9    11    1
    19   100   101    1
    20   101   102    1
    21   101   104    1
    22   109   107   ar
    23   109   110   ar
    24   107   105   ar
    25   102   103    2
    26   110   108   ar
    27   105   104    1
    28   105   106   ar
    29    60    59    2
    30   108   106   ar
    31    59    58    1
    32    63    61    1
    33    64    62    1
    34    27    25   ar
    35    12    13    1
    36    47    46    1
    37    62    61    1
    38    16    13    1
    39    16    17    1
    40    61    58    1
    41    58    57    1
    42    74    75    1
    43    25    26   ar
    44    25    24    1
    45    45    46   ar
    46    45    43   ar
    47    46    44   ar
    48    13    14    1
    49    92    90   ar
    50    85    86    1
    51    24    21    1
    52    17    19   ar
    53    17    18   ar
    54    20    14   am
    55    20    21    1
    56    89    86    1
    57    89    90    1
    58    86    87    1
    59    43    41   ar
    60    90    91   ar
    61    14    15    2
    62    75    78    1
    63    75    76    1
    64    44    42   ar
    65    21    22    1
    66    78    79    1
    67    76    77    2
    68    41    42   ar
    69    41    40    1
    70    99    97    1
    71    87    88    2
    72    22    23    2
    73    84    82    1
    74    40    37    1
    75    83    82    1
    76    82    81    2
    77    79    80    1
    78    93    94    1
    79    81    80    1
    80    98    97    1
    81    97    94    1
    82    35    33   ar
    83    36    37    1
    84    94    95    1
    85    37    38    1
    86    34    33   ar
    87    33    32    1
    88    28    29    1
    89    56    54   ar
    90    38    39    2
    91    32    29    1
    92    95    96    2
    93    29    30    1
    94    55    54   ar
    95    54    53    1
    96    30    31    2
    97    52    53    1
    98    52    49    1
    99    48    49    1
   100    49    50    1
   101    50    51    2
