@<TRIPOS>MOLECULE
tmp/3sdtA00.pdb
 117 108 0 0 0
SMALL
GASTEIGER

@<TRIPOS>ATOM
      1  N        112.2060   27.1900   36.8720 N.3   495  ARG495     -0.1245
      2  CA       110.8790   26.8130   36.3780 C.3   495  ARG495      0.1563
      3  C        110.4290   27.5630   35.1160 C.2   495  ARG495      0.2260
      4  O        109.2470   27.8880   34.9880 O.2   495  ARG495     -0.2867
      5  CB       109.8310   27.0480   37.4760 C.3   495  ARG495      0.0307
      6  CG       110.0700   26.2840   38.7620 C.3   495  ARG495      0.0489
      7  CD       108.8070   26.2840   39.6070 C.3   495  ARG495      0.2205
      8  NE       108.7210   27.4630   40.4580 N.pl3 495  ARG495     -0.0865
      9  CZ       107.5890   27.9460   40.9600 C.cat 495  ARG495      0.5346
     10  NH1      106.4300   27.3630   40.6850 N.pl3 495  ARG495      0.1354
     11  NH2      107.6210   29.0210   41.7340 N.pl3 495  ARG495      0.1354
     12  N        110.8600   36.7700   39.5860 N.3   526  GLN526     -0.1231
     13  CA       110.0760   36.8190   40.8180 C.3   526  GLN526      0.1698
     14  C        110.2740   35.5900   41.6970 C.2   526  GLN526      0.2592
     15  O        110.3030   35.7010   42.9220 O.2   526  GLN526     -0.2718
     16  CB       108.5860   36.9680   40.5000 C.3   526  GLN526      0.0381
     17  CG       108.1570   38.3650   40.1260 C.3   526  GLN526      0.0905
     18  CD       106.6460   38.4440   40.0170 C.2   526  GLN526      0.2608
     19  OE1      106.0080   37.4790   39.6170 O.2   526  GLN526     -0.2717
     20  NE2      106.0690   39.5710   40.4150 N.am  526  GLN526     -0.0878
     21  N        110.4120   34.4170   41.0910 N.am  527  THR527     -0.1953
     22  CA       110.5830   33.2220   41.9060 C.3   527  THR527      0.1897
     23  C        111.9100   33.2770   42.6620 C.2   527  THR527      0.2313
     24  O        112.0280   32.7650   43.7780 O.2   527  THR527     -0.2863
     25  CB       110.4460   31.9200   41.0870 C.3   527  THR527      0.1794
     26  OG1      110.1990   30.8250   41.9780 O.3   527  THR527     -0.2208
     27  CG2      111.7010   31.6410   40.2790 C.3   527  THR527      0.0378
     28  N        111.2860   36.0100   45.4490 N.3   530  ASP530     -0.1225
     29  CA       110.4480   35.4140   46.4850 C.3   530  ASP530      0.1805
     30  C        111.2510   34.5260   47.4450 C.2   530  ASP530      0.2597
     31  O        111.1710   34.6850   48.6770 O.2   530  ASP530     -0.2718
     32  CB       109.3120   34.6200   45.8370 C.3   530  ASP530      0.1424
     33  CG       108.4210   33.9700   46.8590 C.2   530  ASP530      0.3668
     34  OD1      107.7860   34.7240   47.6230 O.co2 530  ASP530     -0.2456
     35  OD2      108.3630   32.7250   46.9040 O.co2 530  ASP530     -0.2456
     36  N        112.0330   33.6020   46.8890 N.am  531  ASP531     -0.1974
     37  CA       112.8620   32.7170   47.7150 C.3   531  ASP531      0.1709
     38  C        113.8770   33.5150   48.5310 C.2   531  ASP531      0.2293
     39  O        114.1680   33.1910   49.6950 O.2   531  ASP531     -0.2864
     40  CB       113.5770   31.6590   46.8620 C.3   531  ASP531      0.1436
     41  CG       112.6130   30.6770   46.1920 C.2   531  ASP531      0.3671
     42  OD1      111.3990   30.7030   46.4870 O.co2 531  ASP531     -0.2456
     43  OD2      113.0770   29.8620   45.3640 O.co2 531  ASP531     -0.2456
     44  N        111.7200   35.4110   51.4010 N.3   534  ASP534     -0.1239
     45  CA       110.9630   34.6160   52.3680 C.3   534  ASP534      0.1674
     46  C        111.7040   33.3810   52.8730 C.2   534  ASP534      0.2266
     47  O        111.1570   32.6060   53.6520 O.2   534  ASP534     -0.2867
     48  CB       109.5620   34.2490   51.8440 C.3   534  ASP534      0.1410
     49  CG       109.5940   33.2170   50.7300 C.2   534  ASP534      0.3668
     50  OD1      110.5750   32.4550   50.6470 O.co2 534  ASP534     -0.2456
     51  OD2      108.6220   33.1590   49.9430 O.co2 534  ASP534     -0.2456
     52  N        107.2880   42.3660   50.1720 N.3   605  TYR605     -0.1241
     53  CA       108.1890   41.2890   50.5760 C.3   605  TYR605      0.1605
     54  C        108.9440   41.6510   51.8510 C.2   605  TYR605      0.2264
     55  O        109.1400   40.8100   52.7300 O.2   605  TYR605     -0.2867
     56  CB       109.2220   40.9990   49.4870 C.3   605  TYR605      0.0534
     57  CG       108.7670   40.0180   48.4380 C.ar  605  TYR605     -0.0201
     58  CD1      107.6350   39.2220   48.6330 C.ar  605  TYR605     -0.0009
     59  CD2      109.4740   39.8770   47.2510 C.ar  605  TYR605     -0.0009
     60  CE1      107.2160   38.3190   47.6510 C.ar  605  TYR605      0.0417
     61  CE2      109.0650   38.9810   46.2660 C.ar  605  TYR605      0.0417
     62  CZ       107.9500   38.2040   46.4720 C.ar  605  TYR605      0.1957
     63  OH       107.5520   37.3090   45.4990 O.3   605  TYR605     -0.2866
     64  N        106.9500   41.3660   54.9940 N.3   608  GLU608     -0.1245
     65  CA       106.8380   39.9430   55.2700 C.3   608  GLU608      0.1567
     66  C        108.1350   39.4280   55.8880 C.2   608  GLU608      0.2260
     67  O        108.1170   38.5980   56.8030 O.2   608  GLU608     -0.2867
     68  CB       106.5760   39.2020   53.9590 C.3   608  GLU608      0.0388
     69  CG       105.8150   37.9000   54.0920 C.3   608  GLU608      0.1160
     70  CD       105.4640   37.3050   52.7370 C.2   608  GLU608      0.3649
     71  OE1      104.3920   36.6770   52.6170 O.co2 608  GLU608     -0.2457
     72  OE2      106.2550   37.4690   51.7850 O.co2 608  GLU608     -0.2457
     73  N        102.0690   38.9250   46.6910 N.3   631  ILE631     -0.1245
     74  CA       101.9120   37.6800   45.9430 C.3   631  ILE631      0.1561
     75  C        102.5760   37.8150   44.5610 C.2   631  ILE631      0.2260
     76  O        103.0060   36.8250   43.9680 O.2   631  ILE631     -0.2867
     77  CB       100.4240   37.2490   45.8030 C.3   631  ILE631      0.0252
     78  CG1      100.3110   35.8230   45.2500 C.3   631  ILE631      0.0019
     79  CG2       99.6590   38.2120   44.9180 C.3   631  ILE631      0.0019
     80  CD1      100.7830   34.7380   46.2040 C.3   631  ILE631      0.0001
     81  N         96.5540   34.4060   46.0380 N.3   674  ARG674     -0.1245
     82  CA        97.0220   34.2740   47.4230 C.3   674  ARG674      0.1563
     83  C         96.2070   33.2380   48.1930 C.2   674  ARG674      0.2260
     84  O         96.7630   32.3440   48.8400 O.2   674  ARG674     -0.2867
     85  CB        96.9680   35.6250   48.1450 C.3   674  ARG674      0.0307
     86  CG        97.2150   35.5410   49.6680 C.3   674  ARG674      0.0489
     87  CD        98.6870   35.2400   49.9800 C.3   674  ARG674      0.2205
     88  NE        99.0320   33.8470   49.7090 N.pl3 674  ARG674     -0.0865
     89  CZ       100.2760   33.3880   49.6160 C.cat 674  ARG674      0.5346
     90  NH1      101.3050   34.2120   49.7660 N.pl3 674  ARG674      0.1354
     91  NH2      100.4930   32.1050   49.3570 N.pl3 674  ARG674      0.1354
     92  N         96.2100   29.6250   46.6490 N.3   677  ASP677     -0.1239
     93  CA        97.5010   29.0570   47.0210 C.3   677  ASP677      0.1674
     94  C         97.4250   28.5130   48.4490 C.2   677  ASP677      0.2266
     95  O         97.7760   27.3630   48.7080 O.2   677  ASP677     -0.2867
     96  CB        98.6040   30.1160   46.8760 C.3   677  ASP677      0.1410
     97  CG        99.9700   29.6190   47.3310 C.2   677  ASP677      0.3668
     98  OD1      100.0670   29.0370   48.4330 O.co2 677  ASP677     -0.2456
     99  OD2      100.9550   29.8240   46.5860 O.co2 677  ASP677     -0.2456
    100  N         97.9040   24.6470   49.7320 N.3   681  THR681     -0.1218
    101  CA        99.1360   24.3740   50.4630 C.3   681  THR681      0.1862
    102  C         98.9080   24.6050   51.9650 C.2   681  THR681      0.2287
    103  O         98.0240   23.9940   52.5420 O.2   681  THR681     -0.2866
    104  CB       100.3190   25.2000   49.8960 C.3   681  THR681      0.1770
    105  OG1       99.9690   26.5890   49.8530 O.3   681  THR681     -0.2211
    106  CG2      100.6240   24.7500   48.4810 C.3   681  THR681      0.0375
    107  N         96.0000   25.3660   41.5560 N.3   748  PHE748     -0.1241
    108  CA        95.6210   25.3010   42.9650 C.3   748  PHE748      0.1605
    109  C         94.2440   24.6810   43.2510 C.2   748  PHE748      0.2264
    110  O         93.7190   24.8330   44.3540 O.2   748  PHE748     -0.2867
    111  CB        95.6840   26.6980   43.5800 C.3   748  PHE748      0.0534
    112  CG        97.0510   27.3000   43.5580 C.ar  748  PHE748     -0.0203
    113  CD1       98.1490   26.5700   43.9830 C.ar  748  PHE748     -0.0042
    114  CD2       97.2430   28.5920   43.1050 C.ar  748  PHE748     -0.0042
    115  CE1       99.4190   27.1190   43.9650 C.ar  748  PHE748     -0.0003
    116  CE2       98.5160   29.1480   43.0780 C.ar  748  PHE748     -0.0003
    117  CZ        99.6040   28.4080   43.5100 C.ar  748  PHE748     -0.0000
@<TRIPOS>BOND
     1     4     3    2
     2     3     2    1
     3     2     1    1
     4     2     5    1
     5     5     6    1
     6     6     7    1
     7    12    13    1
     8     7     8    1
     9    19    18    2
    10    18    17    1
    11    18    20   am
    12    17    16    1
    13    27    25    1
    14     8     9    2
    15    16    13    1
    16    10     9    1
    17    13    14    1
    18     9    11    1
    19    25    22    1
    20    25    26    1
    21    21    14   am
    22    21    22    1
    23   107   108    1
    24    14    15    2
    25    22    23    1
    26    23    24    2
    27   108   109    1
    28   108   111    1
    29   116   114   ar
    30   116   117   ar
    31   114   112   ar
    32   109   110    2
    33   117   115   ar
    34   112   111    1
    35   112   113   ar
    36   115   113   ar
    37    76    75    2
    38    75    74    1
    39    79    77    1
    40    78    77    1
    41    78    80    1
    42    43    41   ar
    43    28    29    1
    44    63    62    1
    45    77    74    1
    46    32    29    1
    47    32    33    1
    48    74    73    1
    49    81    82    1
    50    41    42   ar
    51    41    40    1
    52    61    62   ar
    53    61    59   ar
    54    62    60   ar
    55    29    30    1
    56    99    97   ar
    57    92    93    1
    58    33    35   ar
    59    33    34   ar
    60    40    37    1
    61    96    93    1
    62    96    97    1
    63    36    30   am
    64    36    37    1
    65    93    94    1
    66    59    57   ar
    67    97    98   ar
    68    82    85    1
    69    82    83    1
    70    30    31    2
    71    60    58   ar
    72    37    38    1
    73    85    86    1
    74    83    84    2
    75    57    58   ar
    76    57    56    1
    77    94    95    2
    78   106   104    1
    79    38    39    2
    80    91    89    1
    81    56    53    1
    82    89    88    2
    83    89    90    1
    84    86    87    1
    85    88    87    1
    86   100   101    1
    87   105   104    1
    88   104   101    1
    89    51    49   ar
    90    52    53    1
    91   101   102    1
    92    53    54    1
    93    50    49   ar
    94    49    48    1
    95    44    45    1
    96    72    70   ar
    97    48    45    1
    98    54    55    2
    99   102   103    2
   100    45    46    1
   101    71    70   ar
   102    70    69    1
   103    46    47    2
   104    68    69    1
   105    68    65    1
   106    64    65    1
   107    65    66    1
   108    66    67    2
