@<TRIPOS>MOLECULE
tmp/3sduA00.pdb
 156 141 0 0 0
SMALL
GASTEIGER

@<TRIPOS>ATOM
      1  N        114.4420   27.3820   42.3930 N.3   492  ARG492     -0.1245
      2  CA       114.2480   26.3840   41.3450 C.3   492  ARG492      0.1563
      3  C        114.0600   27.0370   39.9670 C.2   492  ARG492      0.2260
      4  O        113.3680   28.0460   39.8430 O.2   492  ARG492     -0.2867
      5  CB       113.0610   25.4770   41.6810 C.3   492  ARG492      0.0307
      6  CG       113.0690   24.1560   40.9260 C.3   492  ARG492      0.0489
      7  CD       112.2270   23.0980   41.6300 C.3   492  ARG492      0.2205
      8  NE       110.8390   23.5180   41.7910 N.pl3 492  ARG492     -0.0865
      9  CZ       109.8790   23.2930   40.9010 C.cat 492  ARG492      0.5346
     10  NH1      110.1490   22.6460   39.7740 N.pl3 492  ARG492      0.1354
     11  NH2      108.6470   23.7160   41.1400 N.pl3 492  ARG492      0.1354
     12  N        112.2790   27.3600   36.6450 N.3   494  ARG494     -0.1245
     13  CA       110.9770   26.9720   36.1060 C.3   494  ARG494      0.1563
     14  C        110.5350   27.8170   34.9080 C.2   494  ARG494      0.2260
     15  O        109.3830   28.2330   34.8460 O.2   494  ARG494     -0.2867
     16  CB       109.9020   27.0560   37.2030 C.3   494  ARG494      0.0307
     17  CG       110.1180   26.1150   38.3750 C.3   494  ARG494      0.0489
     18  CD       108.9670   26.2000   39.3660 C.3   494  ARG494      0.2205
     19  NE       108.9500   27.4690   40.0900 N.pl3 494  ARG494     -0.0865
     20  CZ       107.9500   27.8690   40.8710 C.cat 494  ARG494      0.5346
     21  NH1      106.8810   27.1000   41.0260 N.pl3 494  ARG494      0.1354
     22  NH2      108.0140   29.0390   41.4950 N.pl3 494  ARG494      0.1354
     23  N        110.4450   34.5680   40.9870 N.3   526  THR526     -0.1218
     24  CA       110.6040   33.3510   41.7770 C.3   526  THR526      0.1862
     25  C        111.9130   33.3750   42.5690 C.2   526  THR526      0.2287
     26  O        111.9910   32.8460   43.6790 O.2   526  THR526     -0.2866
     27  CB       110.4720   32.0640   40.9270 C.3   526  THR526      0.1770
     28  OG1      110.2260   30.9450   41.7900 O.3   526  THR526     -0.2211
     29  CG2      111.7220   31.7970   40.1010 C.3   526  THR526      0.0375
     30  N        111.3050   36.0500   45.3450 N.3   529  ASP529     -0.1225
     31  CA       110.4650   35.4510   46.3780 C.3   529  ASP529      0.1805
     32  C        111.2860   34.5990   47.3620 C.2   529  ASP529      0.2597
     33  O        111.2160   34.7930   48.5850 O.2   529  ASP529     -0.2718
     34  CB       109.3310   34.6320   45.7420 C.3   529  ASP529      0.1424
     35  CG       108.4280   33.9950   46.7870 C.2   529  ASP529      0.3668
     36  OD1      107.7110   34.7390   47.4820 O.co2 529  ASP529     -0.2456
     37  OD2      108.4430   32.7590   46.9260 O.co2 529  ASP529     -0.2456
     38  N        112.0640   33.6610   46.8280 N.am  530  ASP530     -0.1974
     39  CA       112.9120   32.8020   47.6560 C.3   530  ASP530      0.1709
     40  C        113.9210   33.6250   48.4440 C.2   530  ASP530      0.2293
     41  O        114.2260   33.3220   49.6020 O.2   530  ASP530     -0.2864
     42  CB       113.6410   31.7570   46.8010 C.3   530  ASP530      0.1436
     43  CG       112.7140   30.6580   46.2940 C.2   530  ASP530      0.3671
     44  OD1      111.5870   30.5390   46.8120 O.co2 530  ASP530     -0.2456
     45  OD2      113.1180   29.9040   45.3850 O.co2 530  ASP530     -0.2456
     46  N        111.7400   35.5100   51.4260 N.3   533  ASP533     -0.1239
     47  CA       111.0380   34.7520   52.4580 C.3   533  ASP533      0.1674
     48  C        111.8060   33.5250   52.9510 C.2   533  ASP533      0.2266
     49  O        111.2840   32.7430   53.7450 O.2   533  ASP533     -0.2867
     50  CB       109.6010   34.4020   52.0280 C.3   533  ASP533      0.1410
     51  CG       109.5520   33.5110   50.8120 C.2   533  ASP533      0.3668
     52  OD1      110.5050   32.7290   50.6190 O.co2 533  ASP533     -0.2456
     53  OD2      108.5550   33.5900   50.0510 O.co2 533  ASP533     -0.2456
     54  N        106.8530   41.6000   54.9170 N.3   607  GLU607     -0.1245
     55  CA       106.6410   40.1840   55.1840 C.3   607  GLU607      0.1567
     56  C        107.8810   39.5770   55.8350 C.2   607  GLU607      0.2260
     57  O        107.7750   38.7450   56.7360 O.2   607  GLU607     -0.2867
     58  CB       106.3590   39.4730   53.8620 C.3   607  GLU607      0.0388
     59  CG       105.7220   38.1020   53.9700 C.3   607  GLU607      0.1160
     60  CD       105.4420   37.5070   52.6010 C.2   607  GLU607      0.3649
     61  OE1      104.5620   36.6280   52.4920 O.co2 607  GLU607     -0.2457
     62  OE2      106.1060   37.9290   51.6280 O.co2 607  GLU607     -0.2457
     63  N        102.2300   39.2350   46.7290 N.3   630  ILE630     -0.1245
     64  CA       102.1060   37.9940   45.9690 C.3   630  ILE630      0.1561
     65  C        102.7780   38.1610   44.5920 C.2   630  ILE630      0.2260
     66  O        103.3350   37.2070   44.0380 O.2   630  ILE630     -0.2867
     67  CB       100.6280   37.5230   45.8490 C.3   630  ILE630      0.0252
     68  CG1      100.5400   36.1140   45.2530 C.3   630  ILE630      0.0019
     69  CG2       99.7970   38.4950   45.0230 C.3   630  ILE630      0.0019
     70  CD1      101.1740   35.0440   46.1010 C.3   630  ILE630      0.0001
     71  N         96.6420   34.6090   46.1180 N.3   673  ARG673     -0.1245
     72  CA        97.1480   34.4910   47.4850 C.3   673  ARG673      0.1563
     73  C         96.3530   33.4640   48.2880 C.2   673  ARG673      0.2260
     74  O         96.9240   32.5570   48.9070 O.2   673  ARG673     -0.2867
     75  CB        97.1260   35.8590   48.1810 C.3   673  ARG673      0.0307
     76  CG        97.4560   35.8380   49.6900 C.3   673  ARG673      0.0489
     77  CD        98.9210   35.5210   49.9600 C.3   673  ARG673      0.2205
     78  NE        99.2140   34.1070   49.7510 N.pl3 673  ARG673     -0.0865
     79  CZ       100.4300   33.6090   49.5510 C.cat 673  ARG673      0.5346
     80  NH1      101.4960   34.4070   49.5200 N.pl3 673  ARG673      0.1354
     81  NH2      100.5780   32.3030   49.3680 N.pl3 673  ARG673      0.1354
     82  N         96.3750   29.8720   46.7500 N.3   676  ASP676     -0.1239
     83  CA        97.6390   29.2570   47.1300 C.3   676  ASP676      0.1674
     84  C         97.5660   28.7310   48.5670 C.2   676  ASP676      0.2266
     85  O         97.9300   27.5860   48.8400 O.2   676  ASP676     -0.2867
     86  CB        98.8100   30.2270   46.9910 C.3   676  ASP676      0.1410
     87  CG       100.1030   29.6420   47.5270 C.2   676  ASP676      0.3668
     88  OD1      100.2660   29.5940   48.7670 O.co2 676  ASP676     -0.2456
     89  OD2      100.9510   29.2070   46.7170 O.co2 676  ASP676     -0.2456
     90  N         98.2190   24.8680   49.9710 N.3   680  THR680     -0.1218
     91  CA        99.5590   24.6190   50.5090 C.3   680  THR680      0.1862
     92  C         99.7700   24.8280   52.0130 C.2   680  THR680      0.2287
     93  O        100.8290   24.4710   52.5380 O.2   680  THR680     -0.2866
     94  CB       100.6250   25.4670   49.7670 C.3   680  THR680      0.1770
     95  OG1      100.3570   26.8650   49.9600 O.3   680  THR680     -0.2211
     96  CG2      100.6200   25.1550   48.2740 C.3   680  THR680      0.0375
     97  N        103.2240   23.9950   54.8550 N.3   684  GLU684     -0.1245
     98  CA       103.9190   25.1240   55.4620 C.3   684  GLU684      0.1567
     99  C        103.7610   25.1510   56.9780 C.2   684  GLU684      0.2260
    100  O        104.5590   25.7670   57.6840 O.2   684  GLU684     -0.2867
    101  CB       103.4160   26.4310   54.8490 C.3   684  GLU684      0.0388
    102  CG       103.6140   26.4830   53.3480 C.3   684  GLU684      0.1160
    103  CD       102.6480   27.4170   52.6620 C.2   684  GLU684      0.3649
    104  OE1      101.8580   28.0960   53.3590 O.co2 684  GLU684     -0.2457
    105  OE2      102.6760   27.4640   51.4160 O.co2 684  GLU684     -0.2457
    106  N        106.2090   22.5410   58.3330 N.3   687  ARG687     -0.1245
    107  CA       107.5680   23.0030   58.0690 C.3   687  ARG687      0.1563
    108  C        107.9310   24.2000   58.9460 C.2   687  ARG687      0.2260
    109  O        108.9650   24.8370   58.7440 O.2   687  ARG687     -0.2867
    110  CB       107.7400   23.3450   56.5960 C.3   687  ARG687      0.0307
    111  CG       109.1430   23.3240   56.1480 C.3   687  ARG687      0.0489
    112  CD       109.2560   23.7530   54.7330 C.3   687  ARG687      0.2205
    113  NE       108.6540   22.8050   53.8170 N.pl3 687  ARG687     -0.0865
    114  CZ       107.8010   23.1530   52.8640 C.cat 687  ARG687      0.5346
    115  NH1      107.4470   24.4300   52.7320 N.pl3 687  ARG687      0.1354
    116  NH2      107.3570   22.2370   52.0060 N.pl3 687  ARG687      0.1354
    117  N        106.6060   27.1250   59.0770 N.3   689  GLU689     -0.1245
    118  CA       106.7650   28.2500   58.1660 C.3   689  GLU689      0.1567
    119  C        105.9170   29.4640   58.5560 C.2   689  GLU689      0.2260
    120  O        105.0850   29.4020   59.4690 O.2   689  GLU689     -0.2867
    121  CB       106.4370   27.8060   56.7370 C.3   689  GLU689      0.0388
    122  CG       106.9880   28.7010   55.6420 C.3   689  GLU689      0.1160
    123  CD       106.6270   28.2020   54.2540 C.2   689  GLU689      0.3649
    124  OE1      107.1560   27.1460   53.8440 O.co2 689  GLU689     -0.2457
    125  OE2      105.8080   28.8630   53.5800 O.co2 689  GLU689     -0.2457
    126  N         96.1520   25.7460   41.6580 N.3   753  PHE753     -0.1241
    127  CA        95.7860   25.6980   43.0750 C.3   753  PHE753      0.1605
    128  C         94.4110   25.0830   43.3360 C.2   753  PHE753      0.2264
    129  O         93.8580   25.2400   44.4290 O.2   753  PHE753     -0.2867
    130  CB        95.8420   27.1040   43.6730 C.3   753  PHE753      0.0534
    131  CG        97.2030   27.7200   43.6240 C.ar  753  PHE753     -0.0203
    132  CD1       98.3050   27.0260   44.0990 C.ar  753  PHE753     -0.0042
    133  CD2       97.3890   28.9830   43.0920 C.ar  753  PHE753     -0.0042
    134  CE1       99.5700   27.5840   44.0530 C.ar  753  PHE753     -0.0003
    135  CE2       98.6560   29.5440   43.0390 C.ar  753  PHE753     -0.0003
    136  CZ        99.7460   28.8410   43.5280 C.ar  753  PHE753     -0.0000
    137  N         99.9400   20.8080   49.3360 N.3   760  GLY760     -0.1210
    138  CA       100.9390   21.0040   48.3040 C.3   760  GLY760      0.1956
    139  C        100.3870   21.0350   46.8910 C.2   760  GLY760      0.2611
    140  O         99.3570   20.4300   46.5870 O.2   760  GLY760     -0.2717
    141  N        101.0830   21.7620   46.0260 N.am  761  VAL761     -0.1979
    142  CA       100.8020   21.7460   44.6010 C.3   761  VAL761      0.1595
    143  C        101.3400   20.4500   44.0040 C.2   761  VAL761      0.2287
    144  O        102.4140   19.9790   44.3860 O.2   761  VAL761     -0.2864
    145  CB       101.4640   22.9410   43.8940 C.3   761  VAL761      0.0276
    146  CG1      101.4440   22.7530   42.3750 C.3   761  VAL761      0.0022
    147  CG2      100.7810   24.2410   44.2960 C.3   761  VAL761      0.0022
    148  N        103.2940   18.7160   41.5310 N.3   763  LYS763     -0.1245
    149  CA       104.3270   18.9520   40.5310 C.3   763  LYS763      0.1561
    150  C        104.0670   18.1070   39.2850 C.2   763  LYS763      0.2260
    151  O        104.3200   18.5400   38.1600 O.2   763  LYS763     -0.2867
    152  CB       105.7120   18.6420   41.1040 C.3   763  LYS763      0.0271
    153  CG       106.1410   19.5620   42.2370 C.3   763  LYS763      0.0035
    154  CD       107.5250   19.1910   42.7570 C.3   763  LYS763      0.0206
    155  CE       107.9460   20.0950   43.9060 C.3   763  LYS763      0.1093
    156  NZ       107.9460   21.5270   43.4980 N.3   763  LYS763     -0.1314
@<TRIPOS>BOND
     1    15    14    2
     2    14    13    1
     3    13    12    1
     4    13    16    1
     5    16    17    1
     6   151   150    2
     7    17    18    1
     8   150   149    1
     9    18    19    1
    10    10     9    1
    11     4     3    2
    12     3     2    1
    13    19    20    2
    14    29    27    1
    15   149   152    1
    16   149   148    1
    17    20    21    1
    18    20    22    1
    19     9    11    1
    20     9     8    2
    21     6     7    1
    22     6     5    1
    23    27    24    1
    24    27    28    1
    25    23    24    1
    26   152   153    1
    27     2     5    1
    28     2     1    1
    29     7     8    1
    30   126   127    1
    31    24    25    1
    32   153   154    1
    33   146   145    1
    34    25    26    2
    35   154   155    1
    36   135   133   ar
    37   135   136   ar
    38   127   128    1
    39   127   130    1
    40   133   131   ar
    41   128   129    2
    42   156   155    1
    43   136   134   ar
    44   131   130    1
    45   131   132   ar
    46   145   147    1
    47   145   142    1
    48   143   144    2
    49   143   142    1
    50    66    65    2
    51   134   132   ar
    52    65    64    1
    53   142   141    1
    54    69    67    1
    55    68    67    1
    56    68    70    1
    57    30    31    1
    58    45    43   ar
    59    34    31    1
    60    34    35    1
    61    67    64    1
    62    64    63    1
    63   141   139   am
    64    71    72    1
    65    43    42    1
    66    43    44   ar
    67    31    32    1
    68   140   139    2
    69    89    87   ar
    70    82    83    1
    71    35    37   ar
    72    35    36   ar
    73    42    39    1
    74    38    32   am
    75    38    39    1
    76   139   138    1
    77    86    83    1
    78    86    87    1
    79    83    84    1
    80    32    33    2
    81    72    75    1
    82    72    73    1
    83    87    88   ar
    84    39    40    1
    85    75    76    1
    86    96    94    1
    87    73    74    2
    88   138   137    1
    89    40    41    2
    90    84    85    2
    91    81    79    1
    92    80    79    1
    93    79    78    2
    94    76    77    1
    95    78    77    1
    96    94    95    1
    97    94    91    1
    98    90    91    1
    99    53    51   ar
   100    91    92    1
   101    52    51   ar
   102    51    50    1
   103   105   103   ar
   104    46    47    1
   105    62    60   ar
   106   116   114    1
   107    92    93    2
   108    50    47    1
   109    47    48    1
   110    61    60   ar
   111    60    59    1
   112   103   102    1
   113   103   104   ar
   114   115   114    1
   115   114   113    2
   116    48    49    2
   117   102   101    1
   118   125   123   ar
   119   113   112    1
   120   124   123   ar
   121    58    59    1
   122    58    55    1
   123   123   122    1
   124   112   111    1
   125   101    98    1
   126    97    98    1
   127    54    55    1
   128    55    56    1
   129    98    99    1
   130   122   121    1
   131    56    57    2
   132   111   110    1
   133   110   107    1
   134   121   118    1
   135    99   100    2
   136   107   106    1
   137   107   108    1
   138   118   119    1
   139   118   117    1
   140   119   120    2
   141   109   108    2
