@<TRIPOS>MOLECULE
tmp/3sdvA00.pdb
 102 94 0 0 0
SMALL
GASTEIGER

@<TRIPOS>ATOM
      1  N        112.4190   26.2070   36.9400 N.3   495  ARG495     -0.1245
      2  CA       111.1100   25.8060   36.4180 C.3   495  ARG495      0.1563
      3  C        110.6510   26.5940   35.1860 C.2   495  ARG495      0.2260
      4  O        109.4710   26.9250   35.0650 O.2   495  ARG495     -0.2867
      5  CB       110.0380   25.9270   37.5150 C.3   495  ARG495      0.0307
      6  CG       110.3390   25.1430   38.7820 C.3   495  ARG495      0.0489
      7  CD       109.1420   25.1180   39.7080 C.3   495  ARG495      0.2205
      8  NE       108.9420   26.3800   40.4150 N.pl3 495  ARG495     -0.0865
      9  CZ       107.7580   26.8110   40.8420 C.cat 495  ARG495      0.5346
     10  NH1      106.6710   26.0870   40.6150 N.pl3 495  ARG495      0.1354
     11  NH2      107.6590   27.9680   41.4860 N.pl3 495  ARG495      0.1354
     12  N        111.6180   34.7650   45.6270 N.3   530  ASP530     -0.1225
     13  CA       110.7640   34.1790   46.6500 C.3   530  ASP530      0.1805
     14  C        111.5600   33.3160   47.6270 C.2   530  ASP530      0.2597
     15  O        111.4430   33.4830   48.8390 O.2   530  ASP530     -0.2718
     16  CB       109.6080   33.3680   46.0300 C.3   530  ASP530      0.1424
     17  CG       108.6640   32.7990   47.0870 C.2   530  ASP530      0.3668
     18  OD1      108.1350   33.5860   47.9030 O.co2 530  ASP530     -0.2456
     19  OD2      108.4650   31.5650   47.1320 O.co2 530  ASP530     -0.2456
     20  N        112.3660   32.3990   47.0970 N.am  531  ASP531     -0.1974
     21  CA       113.1620   31.5010   47.9320 C.3   531  ASP531      0.1709
     22  C        114.2210   32.2710   48.7020 C.2   531  ASP531      0.2293
     23  O        114.6080   31.8830   49.8040 O.2   531  ASP531     -0.2864
     24  CB       113.8110   30.3930   47.0970 C.3   531  ASP531      0.1436
     25  CG       112.7870   29.4810   46.4320 C.2   531  ASP531      0.3671
     26  OD1      111.5950   29.5440   46.8040 O.co2 531  ASP531     -0.2456
     27  OD2      113.1720   28.6970   45.5370 O.co2 531  ASP531     -0.2456
     28  N        111.9500   34.0860   51.6450 N.3   534  ASP534     -0.1239
     29  CA       111.2830   33.2670   52.6520 C.3   534  ASP534      0.1674
     30  C        112.1120   32.0910   53.1780 C.2   534  ASP534      0.2266
     31  O        111.7530   31.4750   54.1790 O.2   534  ASP534     -0.2867
     32  CB       109.8360   32.8740   52.2590 C.3   534  ASP534      0.1410
     33  CG       109.7410   32.1110   50.9460 C.2   534  ASP534      0.3668
     34  OD1      110.6080   31.2640   50.6560 O.co2 534  ASP534     -0.2456
     35  OD2      108.7510   32.3350   50.2080 O.co2 534  ASP534     -0.2456
     36  N        107.3950   41.1940   50.5200 N.3   605  TYR605     -0.1241
     37  CA       108.2780   40.1010   50.9030 C.3   605  TYR605      0.1605
     38  C        109.0270   40.4080   52.1950 C.2   605  TYR605      0.2264
     39  O        109.0960   39.5750   53.0990 O.2   605  TYR605     -0.2867
     40  CB       109.3210   39.8570   49.8130 C.3   605  TYR605      0.0534
     41  CG       108.9180   38.8620   48.7530 C.ar  605  TYR605     -0.0201
     42  CD1      107.8120   38.0340   48.9190 C.ar  605  TYR605     -0.0009
     43  CD2      109.6540   38.7450   47.5860 C.ar  605  TYR605     -0.0009
     44  CE1      107.4520   37.1220   47.9380 C.ar  605  TYR605      0.0417
     45  CE2      109.3050   37.8390   46.6030 C.ar  605  TYR605      0.0417
     46  CZ       108.2100   37.0310   46.7800 C.ar  605  TYR605      0.1957
     47  OH       107.8860   36.1340   45.7900 O.3   605  TYR605     -0.2866
     48  N        106.9440   40.2760   55.3070 N.3   608  GLU608     -0.1245
     49  CA       106.7900   38.8590   55.6010 C.3   608  GLU608      0.1567
     50  C        108.0810   38.2990   56.2040 C.2   608  GLU608      0.2260
     51  O        108.0480   37.4560   57.1070 O.2   608  GLU608     -0.2867
     52  CB       106.4220   38.1040   54.3190 C.3   608  GLU608      0.0388
     53  CG       105.9960   36.6580   54.5150 C.3   608  GLU608      0.1160
     54  CD       105.5110   36.0180   53.2240 C.2   608  GLU608      0.3649
     55  OE1      104.6080   35.1520   53.2820 O.co2 608  GLU608     -0.2457
     56  OE2      106.0300   36.3820   52.1460 O.co2 608  GLU608     -0.2457
     57  N        102.3890   38.0390   47.0120 N.3   631  ILE631     -0.1245
     58  CA       102.3610   36.7900   46.2640 C.3   631  ILE631      0.1561
     59  C        102.8860   37.0310   44.8460 C.2   631  ILE631      0.2260
     60  O        103.3010   36.0970   44.1550 O.2   631  ILE631     -0.2867
     61  CB       100.9870   36.0950   46.2600 C.3   631  ILE631      0.0252
     62  CG1      101.1340   34.6910   45.6650 C.3   631  ILE631      0.0019
     63  CG2       99.9510   36.9210   45.4970 C.3   631  ILE631      0.0019
     64  CD1       99.9170   33.8230   45.8120 C.3   631  ILE631      0.0001
     65  N         96.7020   33.3850   46.3530 N.3   674  ARG674     -0.1245
     66  CA        97.1520   33.2450   47.7310 C.3   674  ARG674      0.1563
     67  C         96.3300   32.1920   48.4780 C.2   674  ARG674      0.2260
     68  O         96.8800   31.2800   49.0930 O.2   674  ARG674     -0.2867
     69  CB        97.0780   34.6010   48.4420 C.3   674  ARG674      0.0307
     70  CG        97.4120   34.5790   49.9280 C.3   674  ARG674      0.0489
     71  CD        98.8930   34.3720   50.1660 C.3   674  ARG674      0.2205
     72  NE        99.2650   32.9640   50.0690 N.pl3 674  ARG674     -0.0865
     73  CZ       100.5060   32.5300   49.8570 C.cat 674  ARG674      0.5346
     74  NH1      101.5040   33.3980   49.7050 N.pl3 674  ARG674      0.1354
     75  NH2      100.7450   31.2260   49.7830 N.pl3 674  ARG674      0.1354
     76  N         96.2880   28.6310   47.0090 N.3   677  ASP677     -0.1239
     77  CA        97.5690   28.0710   47.4390 C.3   677  ASP677      0.1674
     78  C         97.4730   27.5440   48.8690 C.2   677  ASP677      0.2266
     79  O         97.8070   26.3920   49.1390 O.2   677  ASP677     -0.2867
     80  CB        98.6920   29.1140   47.3370 C.3   677  ASP677      0.1410
     81  CG       100.0740   28.5270   47.6200 C.2   677  ASP677      0.3668
     82  OD1      100.2400   27.7910   48.6170 O.co2 677  ASP677     -0.2456
     83  OD2      101.0040   28.7990   46.8360 O.co2 677  ASP677     -0.2456
     84  N        106.1640   29.1280   58.1170 N.3   685  LEU685     -0.1245
     85  CA       105.8260   30.1420   59.1120 C.3   685  LEU685      0.1561
     86  C        104.3850   30.0070   59.6070 C.2   685  LEU685      0.2260
     87  O        104.1490   29.4630   60.6910 O.2   685  LEU685     -0.2867
     88  CB       106.0950   31.5570   58.5800 C.3   685  LEU685      0.0270
     89  CG       105.4690   32.0720   57.2760 C.3   685  LEU685      0.0019
     90  CD1      105.6900   33.5740   57.1550 C.3   685  LEU685      0.0001
     91  CD2      106.0180   31.3500   56.0490 C.3   685  LEU685      0.0001
     92  N         96.3000   24.4620   41.7060 N.3   748  PHE748     -0.1241
     93  CA        95.9510   24.3390   43.1230 C.3   748  PHE748      0.1605
     94  C         94.5660   23.7440   43.4010 C.2   748  PHE748      0.2264
     95  O         94.0210   23.9320   44.4920 O.2   748  PHE748     -0.2867
     96  CB        96.0700   25.6950   43.8220 C.3   748  PHE748      0.0534
     97  CG        97.4480   26.2710   43.7860 C.ar  748  PHE748     -0.0203
     98  CD1       98.4900   25.6480   44.4570 C.ar  748  PHE748     -0.0042
     99  CD2       97.7090   27.4320   43.0840 C.ar  748  PHE748     -0.0042
    100  CE1       99.7700   26.1740   44.4250 C.ar  748  PHE748     -0.0003
    101  CE2       98.9890   27.9630   43.0460 C.ar  748  PHE748     -0.0003
    102  CZ       100.0200   27.3330   43.7190 C.ar  748  PHE748     -0.0000
@<TRIPOS>BOND
     1     4     3    2
     2     3     2    1
     3     2     1    1
     4     2     5    1
     5     5     6    1
     6     6     7    1
     7     7     8    1
     8     8     9    2
     9    10     9    1
    10     9    11    1
    11    92    93    1
    12   101    99   ar
    13   101   102   ar
    14    99    97   ar
    15    93    94    1
    16    93    96    1
    17    94    95    2
    18   102   100   ar
    19    97    96    1
    20    97    98   ar
    21    60    59    2
    22   100    98   ar
    23    59    58    1
    24    63    61    1
    25    27    25   ar
    26    12    13    1
    27    62    64    1
    28    62    61    1
    29    47    46    1
    30    16    13    1
    31    16    17    1
    32    61    58    1
    33    58    57    1
    34    65    66    1
    35    25    26   ar
    36    25    24    1
    37    45    46   ar
    38    45    43   ar
    39    13    14    1
    40    46    44   ar
    41    83    81   ar
    42    76    77    1
    43    17    19   ar
    44    17    18   ar
    45    24    21    1
    46    20    14   am
    47    20    21    1
    48    80    77    1
    49    80    81    1
    50    77    78    1
    51    43    41   ar
    52    81    82   ar
    53    14    15    2
    54    66    69    1
    55    66    67    1
    56    21    22    1
    57    44    42   ar
    58    69    70    1
    59    67    68    2
    60    22    23    2
    61    41    42   ar
    62    41    40    1
    63    78    79    2
    64    74    73    1
    65    75    73    1
    66    40    37    1
    67    73    72    2
    68    70    71    1
    69    72    71    1
    70    35    33   ar
    71    36    37    1
    72    34    33   ar
    73    37    38    1
    74    33    32    1
    75    28    29    1
    76    56    54   ar
    77    38    39    2
    78    32    29    1
    79    29    30    1
    80    30    31    2
    81    54    55   ar
    82    54    53    1
    83    52    53    1
    84    52    49    1
    85    48    49    1
    86    49    50    1
    87    91    89    1
    88    50    51    2
    89    90    89    1
    90    89    88    1
    91    84    85    1
    92    88    85    1
    93    85    86    1
    94    86    87    2
