@<TRIPOS>MOLECULE
tmp/3sdzA01.pdb
 116 108 0 0 0
SMALL
GASTEIGER

@<TRIPOS>ATOM
      1  N         23.5150  -32.1200    3.5590 N.3   235  ILE235     -0.1245
      2  CA        22.9350  -31.2390    4.5490 C.3   235  ILE235      0.1561
      3  C         21.5830  -31.8360    4.9870 C.2   235  ILE235      0.2260
      4  O         20.6980  -32.1200    4.1780 O.2   235  ILE235     -0.2867
      5  CB        22.6680  -29.8320    4.0150 C.3   235  ILE235      0.0252
      6  CG1       23.9120  -29.1910    3.3970 C.3   235  ILE235      0.0019
      7  CG2       22.1210  -28.9330    5.1020 C.3   235  ILE235      0.0019
      8  CD1       23.5490  -27.9700    2.5230 C.3   235  ILE235      0.0001
      9  N         21.4420  -29.7080   10.4730 N.3   272  ASN272     -0.1240
     10  CA        20.4460  -28.7520   10.9550 C.3   272  ASN272      0.1653
     11  C         19.4550  -29.4250   11.9020 C.2   272  ASN272      0.2266
     12  O         18.6950  -30.3040   11.4870 O.2   272  ASN272     -0.2867
     13  CB        19.6700  -28.1500    9.7970 C.3   272  ASN272      0.1155
     14  CG        20.5440  -27.3540    8.8750 C.2   272  ASN272      0.2627
     15  OD1       21.6550  -26.9750    9.2330 O.2   272  ASN272     -0.2716
     16  ND2       20.0430  -27.0800    7.6770 N.am  272  ASN272     -0.0877
     17  N         23.3300  -23.8840    3.8540 N.3   285  ILE285     -0.1245
     18  CA        23.3980  -24.1950    2.4410 C.3   285  ILE285      0.1561
     19  C         24.5950  -23.4960    1.7730 C.2   285  ILE285      0.2260
     20  O         25.2430  -24.0750    0.9050 O.2   285  ILE285     -0.2867
     21  CB        22.0300  -23.9790    1.7210 C.3   285  ILE285      0.0252
     22  CG1       21.5140  -22.5460    1.8760 C.3   285  ILE285      0.0019
     23  CG2       20.9940  -24.9320    2.3030 C.3   285  ILE285      0.0019
     24  CD1       20.3320  -22.2380    0.9780 C.3   285  ILE285      0.0001
     25  N         20.6390  -31.6700   -0.1020 N.3   306  ALA306     -0.1231
     26  CA        20.0800  -30.8280    0.9410 C.3   306  ALA306      0.1694
     27  C         18.6920  -31.3340    1.2380 C.2   306  ALA306      0.2592
     28  O         18.0850  -32.0350    0.4250 O.2   306  ALA306     -0.2718
     29  CB        20.0310  -29.4080    0.4920 C.3   306  ALA306      0.0304
     30  N         18.1450  -31.0000    2.3920 N.am  307  ASP307     -0.1960
     31  CA        16.9170  -31.6900    2.7160 C.3   307  ASP307      0.1840
     32  C         16.0280  -31.0650    3.8250 C.2   307  ASP307      0.2622
     33  O         14.8520  -31.4430    4.0310 O.2   307  ASP307     -0.2715
     34  CB        17.2650  -33.1840    2.8570 C.3   307  ASP307      0.1450
     35  CG        16.6040  -33.8210    3.9940 C.2   307  ASP307      0.3671
     36  OD1       17.0480  -33.4500    5.1410 O.co2 307  ASP307     -0.2456
     37  OD2       15.6820  -34.6760    3.7240 O.co2 307  ASP307     -0.2456
     38  N         16.5310  -30.0340    4.4660 N.am  308  SER308     -0.1950
     39  CA        15.7640  -29.4270    5.5370 C.3   308  SER308      0.1924
     40  C         14.3330  -28.8470    5.1850 C.2   308  SER308      0.2314
     41  O         13.8630  -28.8960    4.0310 O.2   308  SER308     -0.2863
     42  CB        16.6690  -28.4710    6.3520 C.3   308  SER308      0.2116
     43  OG        17.9170  -29.0960    6.7230 O.3   308  SER308     -0.2180
     44  N         12.8200  -25.3210    6.6110 N.3   310  SER310     -0.1217
     45  CA        13.3420  -24.2090    7.4300 C.3   310  SER310      0.1889
     46  C         12.4020  -23.0530    7.8760 C.2   310  SER310      0.2288
     47  O         11.6480  -22.4920    7.0850 O.2   310  SER310     -0.2866
     48  CB        14.6360  -23.7010    6.8190 C.3   310  SER310      0.2089
     49  OG        15.5880  -24.7480    6.8610 O.3   310  SER310     -0.2183
     50  N         16.9740  -17.8190   -2.7440 N.3   324  LEU324     -0.1245
     51  CA        17.1010  -19.2590   -2.9890 C.3   324  LEU324      0.1561
     52  C         17.6090  -19.5450   -4.4110 C.2   324  LEU324      0.2260
     53  O         18.3860  -20.4770   -4.6110 O.2   324  LEU324     -0.2867
     54  CB        15.7900  -19.9990   -2.7150 C.3   324  LEU324      0.0270
     55  CG        15.9510  -21.4960   -2.4070 C.3   324  LEU324      0.0019
     56  CD1       16.7800  -21.7140   -1.1230 C.3   324  LEU324      0.0001
     57  CD2       14.6040  -22.2090   -2.3200 C.3   324  LEU324      0.0001
     58  N         21.2710  -19.4090   -4.3010 N.3   327  PHE327     -0.1227
     59  CA        21.8520  -20.6930   -3.9310 C.3   327  PHE327      0.1736
     60  C         21.9470  -21.6680   -5.1150 C.2   327  PHE327      0.2595
     61  O         23.0160  -22.2700   -5.3750 O.2   327  PHE327     -0.2718
     62  CB        21.0450  -21.3180   -2.7950 C.3   327  PHE327      0.0547
     63  CG        21.2620  -22.7870   -2.6470 C.ar  327  PHE327     -0.0202
     64  CD1       22.3910  -23.2740   -2.0100 C.ar  327  PHE327     -0.0042
     65  CD2       20.3510  -23.6880   -3.1660 C.ar  327  PHE327     -0.0042
     66  CE1       22.6120  -24.6380   -1.8950 C.ar  327  PHE327     -0.0003
     67  CE2       20.5530  -25.0620   -3.0420 C.ar  327  PHE327     -0.0003
     68  CZ        21.6780  -25.5380   -2.4060 C.ar  327  PHE327     -0.0000
     69  N         20.8340  -21.7900   -5.8360 N.am  328  TYR328     -0.1976
     70  CA        20.7330  -22.7090   -6.9730 C.3   328  TYR328      0.1639
     71  C         21.5950  -22.3370   -8.1390 C.2   328  TYR328      0.2290
     72  O         21.9770  -23.1890   -8.9270 O.2   328  TYR328     -0.2864
     73  CB        19.2930  -22.8770   -7.4300 C.3   328  TYR328      0.0560
     74  CG        18.5320  -23.8490   -6.5820 C.ar  328  TYR328     -0.0198
     75  CD1       18.7880  -25.2140   -6.6560 C.ar  328  TYR328     -0.0009
     76  CD2       17.5570  -23.4070   -5.7130 C.ar  328  TYR328     -0.0009
     77  CE1       18.1050  -26.1100   -5.8820 C.ar  328  TYR328      0.0417
     78  CE2       16.8490  -24.3020   -4.9220 C.ar  328  TYR328      0.0417
     79  CZ        17.1220  -25.6490   -5.0140 C.ar  328  TYR328      0.1957
     80  OH        16.4190  -26.5280   -4.2240 O.3   328  TYR328     -0.2866
     81  N         17.8660  -31.1670   -3.9750 N.3   350  GLY350     -0.1210
     82  CA        17.1210  -30.7070   -2.8260 C.3   350  GLY350      0.1956
     83  C         15.7560  -31.3560   -2.6480 C.2   350  GLY350      0.2612
     84  O         14.8770  -31.2750   -3.5150 O.2   350  GLY350     -0.2717
     85  N         15.6050  -32.0400   -1.5130 N.am  351  ALA351     -0.1965
     86  CA        14.2980  -32.4220   -0.9660 C.3   351  ALA351      0.1728
     87  C         13.4610  -31.1730   -0.6760 C.2   351  ALA351      0.2616
     88  O         13.9740  -30.1810   -0.2030 O.2   351  ALA351     -0.2715
     89  CB        14.4760  -33.2310    0.2860 C.3   351  ALA351      0.0334
     90  N         12.1750  -31.2170   -1.0030 N.am  352  VAL352     -0.1963
     91  CA        11.3040  -30.0580   -0.8280 C.3   352  VAL352      0.1727
     92  C          9.9600  -30.4480   -0.2170 C.2   352  VAL352      0.2616
     93  O          9.1420  -31.0620   -0.8980 O.2   352  VAL352     -0.2715
     94  CB        11.0250  -29.3560   -2.1680 C.3   352  VAL352      0.0290
     95  CG1       10.1370  -28.1470   -1.9420 C.3   352  VAL352      0.0023
     96  CG2       12.3220  -28.9280   -2.8400 C.3   352  VAL352      0.0023
     97  N          9.7390  -30.1110    1.0590 N.am  353  SER353     -0.1950
     98  CA         8.4460  -30.3680    1.7440 C.3   353  SER353      0.1924
     99  C          7.6930  -29.0950    2.1650 C.2   353  SER353      0.2314
    100  O          8.2090  -28.3070    2.9540 O.2   353  SER353     -0.2863
    101  CB         8.6070  -31.3060    2.9490 C.3   353  SER353      0.2116
    102  OG         9.8900  -31.1610    3.5200 O.3   353  SER353     -0.2180
    103  N          8.0260  -22.8510   -0.1580 N.3   363  VAL363     -0.1245
    104  CA         9.0900  -23.6060   -0.8290 C.3   363  VAL363      0.1561
    105  C          8.5810  -24.2730   -2.1210 C.2   363  VAL363      0.2260
    106  O          9.0880  -23.9920   -3.2140 O.2   363  VAL363     -0.2867
    107  CB         9.7310  -24.6550    0.1250 C.3   363  VAL363      0.0252
    108  CG1       11.1250  -25.0470   -0.3560 C.3   363  VAL363      0.0019
    109  CG2        9.7900  -24.1210    1.5540 C.3   363  VAL363      0.0019
    110  N         10.2110  -23.3010   -5.6950 N.3   367  THR367     -0.1218
    111  CA        11.5790  -23.7830   -5.8480 C.3   367  THR367      0.1862
    112  C         11.5920  -24.3650   -7.2660 C.2   367  THR367      0.2287
    113  O         12.6070  -24.3420   -7.9690 O.2   367  THR367     -0.2866
    114  CB        11.9160  -24.8900   -4.8460 C.3   367  THR367      0.1770
    115  OG1       11.6140  -24.4470   -3.5230 O.3   367  THR367     -0.2211
    116  CG2       13.3740  -25.2250   -4.8910 C.3   367  THR367      0.0375
@<TRIPOS>BOND
     1    72    71    2
     2    71    70    1
     3   113   112    2
     4    73    70    1
     5    73    74    1
     6   112   111    1
     7    70    69    1
     8    75    74   ar
     9    75    77   ar
    10    74    76   ar
    11    77    79   ar
    12   111   110    1
    13   111   114    1
    14    69    60   am
    15    76    78   ar
    16    61    60    2
    17    60    59    1
    18    79    78   ar
    19    79    80    1
    20   116   114    1
    21   114   115    1
    22    53    52    2
    23    52    51    1
    24    58    59    1
    25    81    82    1
    26    59    62    1
    27    84    83    2
    28   106   105    2
    29    65    67   ar
    30    65    63   ar
    31    67    68   ar
    32    51    50    1
    33    51    54    1
    34    96    94    1
    35    82    83    1
    36    62    63    1
    37    54    55    1
    38    83    85   am
    39    63    64   ar
    40    55    57    1
    41    55    56    1
    42    68    66   ar
    43    94    95    1
    44    94    91    1
    45   105   104    1
    46    64    66   ar
    47    85    86    1
    48    90    91    1
    49    90    87   am
    50    86    87    1
    51    86    89    1
    52    93    92    2
    53   104   103    1
    54   104   107    1
    55    91    92    1
    56    87    88    2
    57   108   107    1
    58    92    97   am
    59    25    26    1
    60   107   109    1
    61    28    27    2
    62    29    26    1
    63    20    19    2
    64    26    27    1
    65    24    22    1
    66    97    98    1
    67    27    30   am
    68    21    22    1
    69    21    23    1
    70    21    18    1
    71    98    99    1
    72    98   101    1
    73    19    18    1
    74    99   100    2
    75    30    31    1
    76    18    17    1
    77     8     6    1
    78    31    34    1
    79    31    32    1
    80    34    35    1
    81   101   102    1
    82     6     5    1
    83     1     2    1
    84    37    35   ar
    85    32    33    2
    86    32    38   am
    87    35    36   ar
    88     5     2    1
    89     5     7    1
    90    41    40    2
    91     4     3    2
    92    38    39    1
    93     2     3    1
    94    40    39    1
    95    39    42    1
    96    42    43    1
    97    44    45    1
    98    48    49    1
    99    48    45    1
   100    47    46    2
   101    45    46    1
   102    16    14   am
   103    14    15    2
   104    14    13    1
   105    13    10    1
   106     9    10    1
   107    10    11    1
   108    12    11    2
