@<TRIPOS>MOLECULE
tmp/3se2B00.pdb
 104 100 0 0 0
SMALL
GASTEIGER

@<TRIPOS>ATOM
      1  N        -17.8830   -4.8100   31.5620 N.3    70  HIS70      -0.1226
      2  CA       -16.8820   -4.2900   32.4630 C.3    70  HIS70       0.1752
      3  C        -15.4840   -4.5050   31.9190 C.2    70  HIS70       0.2597
      4  O        -15.0160   -5.6260   31.8530 O.2    70  HIS70      -0.2718
      5  CB       -16.9830   -4.9600   33.8270 C.3    70  HIS70       0.0759
      6  CG       -15.9860   -4.4410   34.8080 C.ar   70  HIS70       0.0818
      7  ND1      -16.2120   -3.3140   35.5650 N.ar   70  HIS70      -0.2268
      8  CD2      -14.7440   -4.8670   35.1300 C.ar   70  HIS70       0.1154
      9  CE1      -15.1580   -3.0780   36.3290 C.ar   70  HIS70       0.1986
     10  NE2      -14.2570   -4.0140   36.0930 N.ar   70  HIS70      -0.2212
     11  N        -14.8250   -3.4250   31.5290 N.am   71  GLY71      -0.1942
     12  CA       -13.4500   -3.5000   31.0870 C.3    71  GLY71       0.2014
     13  C        -12.5710   -3.4220   32.3070 C.2    71  GLY71       0.2639
     14  O        -12.8090   -2.5980   33.1990 O.2    71  GLY71      -0.2714
     15  N        -11.5700   -4.2910   32.3670 N.am   72  THR72      -0.1950
     16  CA       -10.6000   -4.2500   33.4460 C.3    72  THR72       0.1897
     17  C         -9.2550   -4.6810   32.8890 C.2    72  THR72       0.2313
     18  O         -9.1560   -5.0650   31.7160 O.2    72  THR72      -0.2863
     19  CB       -11.0110   -5.1400   34.6170 C.3    72  THR72       0.1794
     20  OG1      -10.2130   -4.8290   35.7640 O.3    72  THR72      -0.2208
     21  CG2      -10.8320   -6.6000   34.2770 C.3    72  THR72       0.0378
     22  N        -12.5740   -4.9850   45.4030 N.3    89  TYR89      -0.1241
     23  CA       -12.3860   -4.6310   43.9880 C.3    89  TYR89       0.1605
     24  C        -12.8200   -3.1740   43.6950 C.2    89  TYR89       0.2264
     25  O        -12.3390   -2.5530   42.7400 O.2    89  TYR89      -0.2867
     26  CB       -13.1420   -5.6120   43.0620 C.3    89  TYR89       0.0534
     27  CG       -12.8790   -5.3680   41.5870 C.ar   89  TYR89      -0.0201
     28  CD1      -11.7020   -5.7790   41.0060 C.ar   89  TYR89      -0.0009
     29  CD2      -13.7870   -4.6810   40.7850 C.ar   89  TYR89      -0.0009
     30  CE1      -11.4300   -5.5340   39.6650 C.ar   89  TYR89       0.0417
     31  CE2      -13.5140   -4.4300   39.4240 C.ar   89  TYR89       0.0417
     32  CZ       -12.3270   -4.8710   38.8860 C.ar   89  TYR89       0.1957
     33  OH       -12.0170   -4.6620   37.5650 O.3    89  TYR89      -0.2866
     34  N        -13.0420    0.1980   42.6930 N.3    91  GLY91      -0.1225
     35  CA       -11.9220    0.9310   42.0740 C.3    91  GLY91       0.1811
     36  C        -11.9380    0.8930   40.5580 C.2    91  GLY91       0.2280
     37  O        -10.9170    1.1750   39.9240 O.2    91  GLY91      -0.2866
     38  N        -13.7840    4.1750   38.7900 N.3    92  ALA92      -0.1245
     39  CA       -14.2400    5.5500   38.7650 C.3    92  ALA92       0.1562
     40  C        -14.9170    5.8800   40.0800 C.2    92  ALA92       0.2260
     41  O        -15.1880    4.9960   40.8730 O.2    92  ALA92      -0.2867
     42  CB       -15.1790    5.7660   37.6180 C.3    92  ALA92       0.0290
     43  N        -18.2090   -0.5150   38.5240 N.3   100  TYR100     -0.1241
     44  CA       -18.8440    0.1680   37.3820 C.3   100  TYR100      0.1605
     45  C        -19.0490   -0.7390   36.1770 C.2   100  TYR100      0.2264
     46  O        -18.1160   -1.4400   35.7840 O.2   100  TYR100     -0.2867
     47  CB       -17.9930    1.3600   36.9420 C.3   100  TYR100      0.0534
     48  CG       -18.1870    2.5750   37.8290 C.ar  100  TYR100     -0.0201
     49  CD1      -18.7150    3.7600   37.3190 C.ar  100  TYR100     -0.0009
     50  CD2      -17.9050    2.5210   39.1810 C.ar  100  TYR100     -0.0009
     51  CE1      -18.9270    4.8610   38.1340 C.ar  100  TYR100      0.0417
     52  CE2      -18.1050    3.6230   39.9940 C.ar  100  TYR100      0.0417
     53  CZ       -18.6240    4.7950   39.4630 C.ar  100  TYR100      0.1957
     54  OH       -18.8290    5.9110   40.2670 O.3   100  TYR100     -0.2866
     55  N        -21.0070   -0.8230   32.1180 N.3   102  ALA102     -0.1245
     56  CA       -21.5710   -0.0880   30.9980 C.3   102  ALA102      0.1562
     57  C        -22.6790   -0.8600   30.2940 C.2   102  ALA102      0.2260
     58  O        -22.6560   -2.0950   30.2250 O.2   102  ALA102     -0.2867
     59  CB       -20.4910    0.2250   29.9950 C.3   102  ALA102      0.0290
     60  N        -17.9760    1.7850   25.7700 N.3   107  TYR107     -0.1227
     61  CA       -17.6240    2.4620   27.0170 C.3   107  TYR107      0.1736
     62  C        -16.5180    1.6560   27.7300 C.2   107  TYR107      0.2596
     63  O        -15.4720    2.1940   28.0860 O.2   107  TYR107     -0.2718
     64  CB       -18.8570    2.5890   27.9060 C.3   107  TYR107      0.0548
     65  CG       -18.8810    3.8000   28.8090 C.ar  107  TYR107     -0.0200
     66  CD1      -17.8230    4.0850   29.6530 C.ar  107  TYR107     -0.0009
     67  CD2      -19.9810    4.6510   28.8320 C.ar  107  TYR107     -0.0009
     68  CE1      -17.8460    5.1930   30.4810 C.ar  107  TYR107      0.0417
     69  CE2      -20.0180    5.7570   29.6570 C.ar  107  TYR107      0.0417
     70  CZ       -18.9430    6.0260   30.4850 C.ar  107  TYR107      0.1957
     71  OH       -18.9490    7.1280   31.3220 O.3   107  TYR107     -0.2866
     72  N        -16.7510    0.3640   27.9220 N.am  108  SER108     -0.1952
     73  CA       -15.7770   -0.4880   28.6040 C.3   108  SER108      0.1924
     74  C        -14.4830   -0.7010   27.7950 C.2   108  SER108      0.2314
     75  O        -13.3920   -0.9080   28.3620 O.2   108  SER108     -0.2863
     76  CB       -16.4150   -1.8250   28.9340 C.3   108  SER108      0.2116
     77  OG       -17.4460   -1.6460   29.8730 O.3   108  SER108     -0.2180
     78  N         -8.5530    3.3370   29.4740 N.3   112  THR112     -0.1203
     79  CA        -8.4990    3.5740   30.9230 C.3   112  THR112      0.1994
     80  C         -9.0690    2.4170   31.7210 C.2   112  THR112      0.2617
     81  O         -8.8350    2.3270   32.9110 O.2   112  THR112     -0.2717
     82  CB        -9.3030    4.8190   31.3520 C.3   112  THR112      0.1784
     83  OG1       -8.9300    5.9330   30.5510 O.3   112  THR112     -0.2211
     84  CG2       -9.0300    5.1630   32.7910 C.3   112  THR112      0.0376
     85  N         -9.8560    1.5600   31.0740 N.am  113  TYR113     -0.1975
     86  CA       -10.5160    0.4620   31.7740 C.3   113  TYR113      0.1639
     87  C         -9.9750   -0.8810   31.3110 C.2   113  TYR113      0.2290
     88  O         -9.3920   -1.6220   32.1190 O.2   113  TYR113     -0.2864
     89  CB       -12.0290    0.5220   31.5570 C.3   113  TYR113      0.0560
     90  CG       -12.6340    1.8480   31.9260 C.ar  113  TYR113     -0.0198
     91  CD1      -12.4740    2.3590   33.1990 C.ar  113  TYR113     -0.0009
     92  CD2      -13.3680    2.5800   31.0070 C.ar  113  TYR113     -0.0009
     93  CE1      -13.0110    3.5710   33.5560 C.ar  113  TYR113      0.0417
     94  CE2      -13.9250    3.7930   31.3460 C.ar  113  TYR113      0.0417
     95  CZ       -13.7380    4.2850   32.6280 C.ar  113  TYR113      0.1957
     96  OH       -14.2820    5.4800   32.9870 O.3   113  TYR113     -0.2866
     97  N        -24.3790    3.6630   32.4660 N.3   168  LEU168     -0.1245
     98  CA       -23.6150    2.9040   33.4370 C.3   168  LEU168      0.1561
     99  C        -24.4060    2.6310   34.7150 C.2   168  LEU168      0.2260
    100  O        -25.3960    3.2970   35.0100 O.2   168  LEU168     -0.2867
    101  CB       -22.3180    3.6350   33.7860 C.3   168  LEU168      0.0270
    102  CG       -22.4110    4.9760   34.5400 C.3   168  LEU168      0.0019
    103  CD1      -22.5520    4.7700   36.0570 C.3   168  LEU168      0.0001
    104  CD2      -21.1940    5.8830   34.1920 C.3   168  LEU168      0.0001
@<TRIPOS>BOND
     1    60    61    1
     2    61    62    1
     3    61    64    1
     4    62    72   am
     5    62    63    2
     6    74    75    2
     7    74    73    1
     8    64    65    1
     9    72    73    1
    10    73    76    1
    11    65    67   ar
    12    65    66   ar
    13    67    69   ar
    14    76    77    1
    15    78    79    1
    16    66    68   ar
    17    69    70   ar
    18    59    56    1
    19    58    57    2
    20    57    56    1
    21    68    70   ar
    22    70    71    1
    23    83    82    1
    24    79    82    1
    25    79    80    1
    26    56    55    1
    27    92    94   ar
    28    92    90   ar
    29    85    80   am
    30    85    86    1
    31    12    11    1
    32    12    13    1
    33    87    86    1
    34    87    88    2
    35    94    95   ar
    36    82    84    1
    37    11     3   am
    38    89    86    1
    39    89    90    1
    40     1     2    1
    41    18    17    2
    42    80    81    2
    43     4     3    2
    44     3     2    1
    45    90    91   ar
    46    13    15   am
    47    13    14    2
    48    15    16    1
    49     2     5    1
    50    97    98    1
    51    95    96    1
    52    95    93   ar
    53    17    16    1
    54    91    93   ar
    55    98   101    1
    56    98    99    1
    57    16    19    1
    58   101   102    1
    59     5     6    1
    60   104   102    1
    61    21    19    1
    62   102   103    1
    63    19    20    1
    64    99   100    2
    65     6     8   ar
    66     6     7   ar
    67     8    10   ar
    68     7     9   ar
    69    46    45    2
    70    10     9   ar
    71    45    44    1
    72    47    44    1
    73    47    48    1
    74    49    48   ar
    75    49    51   ar
    76    44    43    1
    77    33    32    1
    78    42    39    1
    79    48    50   ar
    80    51    53   ar
    81    39    38    1
    82    39    40    1
    83    32    31   ar
    84    32    30   ar
    85    50    52   ar
    86    31    29   ar
    87    53    52   ar
    88    53    54    1
    89    30    28   ar
    90    37    36    2
    91    40    41    2
    92    36    35    1
    93    29    27   ar
    94    28    27   ar
    95    27    26    1
    96    35    34    1
    97    25    24    2
    98    26    23    1
    99    24    23    1
   100    23    22    1
