@<TRIPOS>MOLECULE
tmp/3se5C01.pdb
 92 86 0 0 0
SMALL
GASTEIGER

@<TRIPOS>ATOM
      1  N          5.7520   41.7570   13.3250 N.3     9  ASN9       -0.1240
      2  CA         5.1390   42.4400   12.1860 C.3     9  ASN9        0.1653
      3  C          3.7780   43.0400   12.5600 C.2     9  ASN9        0.2266
      4  O          3.4420   44.1310   12.1280 O.2     9  ASN9       -0.2867
      5  CB         4.9750   41.4980   10.9800 C.3     9  ASN9        0.1155
      6  CG         6.3140   41.0350   10.3740 C.2     9  ASN9        0.2627
      7  OD1        6.3910   39.9880    9.6890 O.2     9  ASN9       -0.2716
      8  ND2        7.3560   41.8130   10.6020 N.am    9  ASN9       -0.0877
      9  N          4.3950   46.1710   14.5420 N.3    12  ARG12      -0.1245
     10  CA         4.7980   47.1920   13.5850 C.3    12  ARG12       0.1563
     11  C          3.6180   47.7360   12.7530 C.2    12  ARG12       0.2260
     12  O          3.5650   48.9220   12.4390 O.2    12  ARG12      -0.2867
     13  CB         5.8840   46.6390   12.6630 C.3    12  ARG12       0.0307
     14  CG         6.3710   47.6450   11.6350 C.3    12  ARG12       0.0489
     15  CD         7.3900   47.0120   10.6910 C.3    12  ARG12       0.2205
     16  NE         7.4800   47.7490    9.4260 N.pl3  12  ARG12      -0.0865
     17  CZ         8.0930   47.3070    8.3240 C.cat  12  ARG12       0.5346
     18  NH1        8.7050   46.1240    8.3080 N.pl3  12  ARG12       0.1354
     19  NH2        8.1050   48.0570    7.2260 N.pl3  12  ARG12       0.1354
     20  N          0.6270   51.9640    9.7820 N.3    18  ASP18      -0.1239
     21  CA         0.2490   51.3070    8.5310 C.3    18  ASP18       0.1674
     22  C         -1.1540   50.7290    8.6430 C.2    18  ASP18       0.2266
     23  O         -1.8360   50.5800    7.6280 O.2    18  ASP18      -0.2867
     24  CB         1.2550   50.2070    8.1330 C.3    18  ASP18       0.1410
     25  CG         2.5740   50.7660    7.5670 C.2    18  ASP18       0.3668
     26  OD1        2.5890   51.9210    7.0970 O.co2  18  ASP18      -0.2456
     27  OD2        3.5970   50.0390    7.6240 O.co2  18  ASP18      -0.2456
     28  N         -0.6230   39.6380    4.4320 N.3    35  ARG35      -0.1231
     29  CA         0.6410   39.9440    3.7230 C.3    35  ARG35       0.1694
     30  C          1.6150   40.6630    4.6580 C.2    35  ARG35       0.2592
     31  O          2.8260   40.3990    4.6530 O.2    35  ARG35      -0.2718
     32  CB         0.3160   40.8360    2.5180 C.3    35  ARG35       0.0321
     33  CG         1.4000   41.0770    1.5100 C.3    35  ARG35       0.0489
     34  CD         0.8480   41.9130    0.3280 C.3    35  ARG35       0.2205
     35  NE        -0.1180   41.1520   -0.4880 N.pl3  35  ARG35      -0.0865
     36  CZ        -1.4020   41.4720   -0.7100 C.cat  35  ARG35       0.5346
     37  NH1       -1.9560   42.5780   -0.2060 N.pl3  35  ARG35       0.1354
     38  NH2       -2.1520   40.6700   -1.4680 N.pl3  35  ARG35       0.1354
     39  N          1.0830   41.5730    5.4710 N.am   36  TYR36      -0.1976
     40  CA         1.8930   42.3660    6.4040 C.3    36  TYR36       0.1639
     41  C          2.4310   41.4730    7.5070 C.2    36  TYR36       0.2290
     42  O          3.6120   41.5130    7.8320 O.2    36  TYR36      -0.2864
     43  CB         1.0610   43.5040    7.0010 C.3    36  TYR36       0.0560
     44  CG         1.8570   44.6730    7.5170 C.ar   36  TYR36      -0.0198
     45  CD1        1.9680   45.8510    6.7680 C.ar   36  TYR36      -0.0009
     46  CD2        2.4880   44.6140    8.7460 C.ar   36  TYR36      -0.0009
     47  CE1        2.6940   46.9370    7.2450 C.ar   36  TYR36       0.0417
     48  CE2        3.2110   45.6980    9.2330 C.ar   36  TYR36       0.0417
     49  CZ         3.3130   46.8510    8.4750 C.ar   36  TYR36       0.1957
     50  OH         4.0220   47.9380    8.9830 O.3    36  TYR36      -0.2866
     51  N          4.4620   38.2430    5.3890 N.3    39  GLY39      -0.1210
     52  CA         5.3190   38.4420    4.2200 C.3    39  GLY39       0.1956
     53  C          6.7390   37.9890    4.5230 C.2    39  GLY39       0.2612
     54  O          7.3010   38.3510    5.5440 O.2    39  GLY39      -0.2717
     55  N          7.3060   37.1600    3.6570 N.am   40  GLY40      -0.1956
     56  CA         8.6450   36.6070    3.8920 C.3    40  GLY40       0.1869
     57  C          8.6760   35.3810    4.7880 C.2    40  GLY40       0.2309
     58  O          9.6820   34.6520    4.8120 O.2    40  GLY40      -0.2863
     59  N          5.5800   33.0920    5.2510 N.3    42  TYR42      -0.1227
     60  CA         4.8730   32.1180    4.4160 C.3    42  TYR42       0.1736
     61  C          4.9160   32.5670    2.9770 C.2    42  TYR42       0.2595
     62  O          4.5760   33.7070    2.6560 O.2    42  TYR42      -0.2718
     63  CB         3.4110   31.9880    4.8520 C.3    42  TYR42       0.0548
     64  CG         3.2500   31.3040    6.1770 C.ar   42  TYR42      -0.0200
     65  CD1        3.8400   30.0670    6.4130 C.ar   42  TYR42      -0.0009
     66  CD2        2.4890   31.8730    7.1890 C.ar   42  TYR42      -0.0009
     67  CE1        3.6960   29.4250    7.6370 C.ar   42  TYR42       0.0417
     68  CE2        2.3360   31.2320    8.4090 C.ar   42  TYR42       0.0417
     69  CZ         2.9500   30.0170    8.6300 C.ar   42  TYR42       0.1957
     70  OH         2.7970   29.3770    9.8410 O.3    42  TYR42      -0.2866
     71  N          5.2940   31.6740    2.0660 N.am   43  ASP43      -0.1974
     72  CA         5.3060   32.0870    0.6670 C.3    43  ASP43       0.1709
     73  C          3.9080   32.3780    0.1140 C.2    43  ASP43       0.2293
     74  O          3.7850   33.0500   -0.9090 O.2    43  ASP43      -0.2864
     75  CB         6.1110   31.1410   -0.2430 C.3    43  ASP43       0.1436
     76  CG         5.5640   29.7430   -0.2820 C.2    43  ASP43       0.3671
     77  OD1        4.4820   29.4870    0.2890 O.co2  43  ASP43      -0.2456
     78  OD2        6.2490   28.8860   -0.8880 O.co2  43  ASP43      -0.2456
     79  N          1.7470   34.2170    1.8590 N.3    45  ALA45      -0.1245
     80  CA         1.2940   35.4370    2.5470 C.3    45  ALA45       0.1562
     81  C          0.4320   36.3090    1.6420 C.2    45  ALA45       0.2260
     82  O          0.8350   36.6860    0.5490 O.2    45  ALA45      -0.2867
     83  CB         2.4900   36.2480    3.0470 C.3    45  ALA45       0.0290
     84  N         -2.2890   35.4770    0.0650 N.3    47  GLN47      -0.1245
     85  CA        -2.8360   34.7790   -1.0860 C.3    47  GLN47       0.1566
     86  C         -3.9800   33.8330   -0.7060 C.2    47  GLN47       0.2260
     87  O         -3.8450   33.0250    0.2010 O.2    47  GLN47      -0.2867
     88  CB        -1.7270   33.9860   -1.7860 C.3    47  GLN47       0.0367
     89  CG        -0.6130   34.8700   -2.3250 C.3    47  GLN47       0.0905
     90  CD         0.4120   34.1060   -3.1800 C.2    47  GLN47       0.2608
     91  OE1        0.6020   32.8970   -3.0300 O.2    47  GLN47      -0.2717
     92  NE2        1.0770   34.8250   -4.0790 N.am   47  GLN47      -0.0878
@<TRIPOS>BOND
     1    92    90   am
     2    90    91    2
     3    90    89    1
     4    89    88    1
     5    88    85    1
     6    38    36    1
     7    85    86    1
     8    85    84    1
     9    74    73    2
    10    78    76   ar
    11    36    35    2
    12    36    37    1
    13    86    87    2
    14    35    34    1
    15    76    75    1
    16    76    77   ar
    17    75    72    1
    18    73    72    1
    19    34    33    1
    20    82    81    2
    21    72    71    1
    22    33    32    1
    23    81    80    1
    24    79    80    1
    25    71    61   am
    26    32    29    1
    27    80    83    1
    28    62    61    2
    29    61    60    1
    30    55    56    1
    31    55    53   am
    32    29    28    1
    33    29    30    1
    34    56    57    1
    35    52    53    1
    36    52    51    1
    37    60    63    1
    38    60    59    1
    39    53    54    2
    40    31    30    2
    41    30    39   am
    42    57    58    2
    43    63    64    1
    44    39    40    1
    45    64    65   ar
    46    64    66   ar
    47    40    43    1
    48    40    41    1
    49    65    67   ar
    50    45    47   ar
    51    45    44   ar
    52    43    44    1
    53    26    25   ar
    54    66    68   ar
    55    19    17    1
    56    47    49   ar
    57    41    42    2
    58    44    46   ar
    59    25    27   ar
    60    25    24    1
    61    23    22    2
    62    67    69   ar
    63    24    21    1
    64    18    17    1
    65    17    16    2
    66    68    69   ar
    67    49    50    1
    68    49    48   ar
    69    21    22    1
    70    21    20    1
    71    69    70    1
    72    46    48   ar
    73    16    15    1
    74     7     6    2
    75     6     8   am
    76     6     5    1
    77    15    14    1
    78     5     2    1
    79    14    13    1
    80     4     3    2
    81     2     3    1
    82     2     1    1
    83    12    11    2
    84    13    10    1
    85    11    10    1
    86    10     9    1
