@<TRIPOS>MOLECULE
tmp/3se6A00.pdb
 127 124 0 0 0
SMALL
GASTEIGER

@<TRIPOS>ATOM
      1  N          9.8820    4.0190   11.4330 N.3   121  GLU121     -0.1245
      2  CA         9.1850    4.4960   10.2470 C.3   121  GLU121      0.1567
      3  C          8.1550    5.5840   10.5780 C.2   121  GLU121      0.2260
      4  O          7.6520    5.6670   11.7010 O.2   121  GLU121     -0.2867
      5  CB         8.5160    3.3270    9.5060 C.3   121  GLU121      0.0388
      6  CG         9.4110    2.0990    9.2510 C.3   121  GLU121      0.1160
      7  CD        10.4610    2.2870    8.1340 C.2   121  GLU121      0.3649
      8  OE1       10.4670    1.4720    7.1860 O.co2 121  GLU121     -0.2457
      9  OE2       11.3020    3.2160    8.2020 O.co2 121  GLU121     -0.2457
     10  N         11.0590    9.2490    8.7680 N.3   142  ASP142     -0.1239
     11  CA        11.6540    8.3960    7.7210 C.3   142  ASP142      0.1674
     12  C         10.5580    7.8400    6.7980 C.2   142  ASP142      0.2266
     13  O          9.7980    6.9580    7.2060 O.2   142  ASP142     -0.2867
     14  CB        12.4650    7.2400    8.3160 C.3   142  ASP142      0.1410
     15  CG        13.2930    6.5060    7.2690 C.2   142  ASP142      0.3668
     16  OD1       14.1150    7.1670    6.6090 O.co2 142  ASP142     -0.2456
     17  OD2       13.1200    5.2710    7.1030 O.co2 142  ASP142     -0.2456
     18  N         10.6260    6.8500    2.9940 N.3   144  GLU144     -0.1231
     19  CA        10.7670    5.9180    1.8710 C.3   144  GLU144      0.1684
     20  C         10.3960    4.4970    2.2750 C.2   144  GLU144      0.2434
     21  O         10.8830    3.9840    3.2900 O.2   144  GLU144     -0.2733
     22  CB        12.1760    5.9500    1.2820 C.3   144  GLU144      0.0402
     23  CG        12.2410    5.4860   -0.1620 C.3   144  GLU144      0.1161
     24  CD        13.6330    5.5780   -0.7400 C.2   144  GLU144      0.3649
     25  OE1       14.5710    5.8150    0.0390 O.co2 144  GLU144     -0.2457
     26  OE2       13.7980    5.4120   -1.9640 O.co2 144  GLU144     -0.2457
     27  N          9.5060    3.8660    1.4890 N.am  145  PRO145     -0.2729
     28  CA         8.8750    4.5070    0.3380 C.3   145  PRO145      0.1401
     29  C          7.4310    4.9510    0.6310 C.2   145  PRO145      0.2269
     30  O          6.9680    5.9780    0.1190 O.2   145  PRO145     -0.2865
     31  CB         8.8590    3.3830   -0.7000 C.3   145  PRO145      0.0296
     32  CG         9.2800    2.1180    0.0410 C.3   145  PRO145      0.0237
     33  CD         9.2190    2.4290    1.4910 C.3   145  PRO145      0.0939
     34  N         17.4950    2.3260    8.3600 N.3   277  PRO277     -0.2102
     35  CA        18.3620    2.1260    7.1990 C.3   277  PRO277      0.1504
     36  C         19.7800    2.5050    7.6060 C.2   277  PRO277      0.2576
     37  O         19.9830    2.8710    8.7580 O.2   277  PRO277     -0.2718
     38  CB        17.8100    3.1240    6.1740 C.3   277  PRO277      0.0282
     39  CG        16.6460    3.8380    6.8560 C.3   277  PRO277      0.0208
     40  CD        16.7780    3.6060    8.3140 C.3   277  PRO277      0.0893
     41  N         20.7440    2.4180    6.7030 N.am  278  GLY278     -0.1943
     42  CA        22.0570    2.9550    6.9890 C.3   278  GLY278      0.2014
     43  C         22.0240    4.4650    6.9890 C.2   278  GLY278      0.2639
     44  O         22.6790    5.0990    7.8170 O.2   278  GLY278     -0.2714
     45  N         21.2590    5.0320    6.0540 N.am  279  ALA279     -0.1963
     46  CA        21.0880    6.4850    5.9050 C.3   279  ALA279      0.1728
     47  C         19.8850    6.7940    4.9980 C.2   279  ALA279      0.2616
     48  O         19.3500    5.8810    4.3330 O.2   279  ALA279     -0.2715
     49  CB        22.3610    7.1280    5.3460 C.3   279  ALA279      0.0334
     50  N         19.4610    8.0640    4.9740 N.am  280  MET280     -0.1963
     51  CA        18.3450    8.4890    4.1290 C.3   280  MET280      0.1736
     52  C         18.5750    9.8210    3.4360 C.2   280  MET280      0.2616
     53  O         18.8390   10.8420    4.0610 O.2   280  MET280     -0.2715
     54  CB        17.0490    8.5500    4.9120 C.3   280  MET280      0.0427
     55  CG        15.8300    8.7520    4.0250 C.3   280  MET280      0.0599
     56  SD        15.8120    7.6670    2.5970 S.3   280  MET280     -0.1393
     57  CE        14.6310    8.5540    1.5850 C.3   280  MET280      0.0692
     58  N         18.4330    9.7960    2.1260 N.am  281  GLU281     -0.1977
     59  CA        18.8150   10.9150    1.2940 C.3   281  GLU281      0.1602
     60  C         17.8610   12.1200    1.3270 C.2   281  GLU281      0.2287
     61  O         17.8190   12.8820    0.3550 O.2   281  GLU281     -0.2864
     62  CB        18.9650   10.4310   -0.1520 C.3   281  GLU281      0.0415
     63  CG        17.6580   10.0010   -0.8110 C.3   281  GLU281      0.1163
     64  CD        17.5530    8.5040   -0.9880 C.2   281  GLU281      0.3649
     65  OE1       16.8080    8.0740   -1.9040 O.co2 281  GLU281     -0.2457
     66  OE2       18.2250    7.7670   -0.2280 O.co2 281  GLU281     -0.2457
     67  N         27.6550    7.9860   -0.9820 N.3   314  HIS314     -0.1226
     68  CA        26.4630    7.3420   -1.5310 C.3   314  HIS314      0.1752
     69  C         25.2430    8.2260   -1.4100 C.2   314  HIS314      0.2595
     70  O         24.3840    8.2340   -2.2860 O.2   314  HIS314     -0.2718
     71  CB        26.1720    6.0270   -0.8130 C.3   314  HIS314      0.0759
     72  CG        24.8580    5.4070   -1.1930 C.ar  314  HIS314      0.0818
     73  ND1       24.7570    4.3520   -2.0790 N.ar  314  HIS314     -0.2268
     74  CD2       23.5920    5.6800   -0.7970 C.ar  314  HIS314      0.1154
     75  CE1       23.4900    4.0060   -2.2130 C.ar  314  HIS314      0.1986
     76  NE2       22.7610    4.7960   -1.4450 N.ar  314  HIS314     -0.2212
     77  N         25.1690    8.9610   -0.3090 N.am  315  GLU315     -0.1979
     78  CA        23.9950    9.7600   -0.0110 C.3   315  GLU315      0.1602
     79  C         24.0280   11.0970   -0.7340 C.2   315  GLU315      0.2287
     80  O         23.0080   11.5360   -1.2340 O.2   315  GLU315     -0.2864
     81  CB        23.8410    9.9440    1.4980 C.3   315  GLU315      0.0415
     82  CG        23.5070    8.6610    2.2370 C.3   315  GLU315      0.1163
     83  CD        22.1620    8.1260    1.8450 C.2   315  GLU315      0.3649
     84  OE1       22.0170    6.8970    1.7060 O.co2 315  GLU315     -0.2457
     85  OE2       21.2400    8.9420    1.6520 O.co2 315  GLU315     -0.2457
     86  N         22.7860   10.8200   -4.1350 N.3   318  HIS318     -0.1241
     87  CA        21.3240   10.7440   -4.2730 C.3   318  HIS318      0.1621
     88  C         20.6900   12.1150   -4.5210 C.2   318  HIS318      0.2264
     89  O         19.6640   12.2190   -5.1920 O.2   318  HIS318     -0.2867
     90  CB        20.6970   10.1330   -3.0250 C.3   318  HIS318      0.0745
     91  CG        20.5230    8.6490   -3.0830 C.ar  318  HIS318      0.0817
     92  ND1       19.8460    8.0190   -4.1030 N.ar  318  HIS318     -0.2268
     93  CD2       20.8870    7.6760   -2.2180 C.ar  318  HIS318      0.1154
     94  CE1       19.8220    6.7190   -3.8750 C.ar  318  HIS318      0.1986
     95  NE2       20.4460    6.4840   -2.7360 N.ar  318  HIS318     -0.2212
     96  N         19.0930    3.7220   -6.5030 N.3   337  GLU337     -0.1245
     97  CA        19.9940    3.0230   -5.6000 C.3   337  GLU337      0.1567
     98  C         21.1850    2.3650   -6.3110 C.2   337  GLU337      0.2260
     99  O         22.3020    2.3700   -5.7860 O.2   337  GLU337     -0.2867
    100  CB        19.1990    2.0120   -4.7790 C.3   337  GLU337      0.0388
    101  CG        18.0410    2.6310   -4.0070 C.3   337  GLU337      0.1160
    102  CD        18.5220    3.4850   -2.8560 C.2   337  GLU337      0.3649
    103  OE1       19.5820    3.1550   -2.3050 O.co2 337  GLU337     -0.2457
    104  OE2       17.8530    4.4830   -2.5090 O.co2 337  GLU337     -0.2457
    105  N         14.3340   -2.9970   -2.2860 N.3   394  PHE394     -0.1241
    106  CA        15.6050   -2.4610   -1.8060 C.3   394  PHE394      0.1605
    107  C         16.5510   -3.5990   -1.4050 C.2   394  PHE394      0.2264
    108  O         16.6710   -3.9400   -0.2310 O.2   394  PHE394     -0.2867
    109  CB        15.3880   -1.5160   -0.6230 C.3   394  PHE394      0.0534
    110  CG        14.6940   -0.2440   -0.9870 C.ar  394  PHE394     -0.0203
    111  CD1       15.4150    0.9340   -1.1430 C.ar  394  PHE394     -0.0042
    112  CD2       13.3180   -0.2120   -1.1730 C.ar  394  PHE394     -0.0042
    113  CE1       14.7720    2.1350   -1.4850 C.ar  394  PHE394     -0.0003
    114  CE2       12.6680    0.9730   -1.5090 C.ar  394  PHE394     -0.0003
    115  CZ        13.3980    2.1490   -1.6620 C.ar  394  PHE394     -0.0000
    116  N         20.6600   -2.5330   -5.8230 N.3   399  TYR399     -0.1241
    117  CA        21.8490   -1.8240   -5.4170 C.3   399  TYR399      0.1605
    118  C         23.0650   -2.2930   -6.1990 C.2   399  TYR399      0.2264
    119  O         23.4430   -1.6870   -7.1840 O.2   399  TYR399     -0.2867
    120  CB        22.0780   -2.0010   -3.9260 C.3   399  TYR399      0.0534
    121  CG        21.2100   -1.1360   -3.0290 C.ar  399  TYR399     -0.0201
    122  CD1       19.8890   -1.4780   -2.7470 C.ar  399  TYR399     -0.0009
    123  CD2       21.7300    0.0090   -2.4330 C.ar  399  TYR399     -0.0009
    124  CE1       19.1100   -0.6940   -1.9020 C.ar  399  TYR399      0.0417
    125  CE2       20.9650    0.7940   -1.5900 C.ar  399  TYR399      0.0417
    126  CZ        19.6610    0.4450   -1.3250 C.ar  399  TYR399      0.1957
    127  OH        18.9250    1.2540   -0.4800 O.3   399  TYR399     -0.2866
@<TRIPOS>BOND
     1   119   118    2
     2    96    97    1
     3    98    99    2
     4    98    97    1
     5   118   117    1
     6   116   117    1
     7    97   100    1
     8   117   120    1
     9    89    88    2
    10   100   101    1
    11    88    87    1
    12    87    86    1
    13    87    90    1
    14    92    94   ar
    15    92    91   ar
    16   101   102    1
    17   120   121    1
    18    94    95   ar
    19    91    90    1
    20    91    93   ar
    21   121   122   ar
    22   121   123   ar
    23   102   104   ar
    24   102   103   ar
    25   122   124   ar
    26    95    93   ar
    27   123   125   ar
    28    70    69    2
    29   105   106    1
    30    75    73   ar
    31    75    76   ar
    32    73    72   ar
    33    26    24   ar
    34    65    64   ar
    35   124   126   ar
    36   106   107    1
    37   106   109    1
    38   115   114   ar
    39   115   113   ar
    40   125   126   ar
    41    68    69    1
    42    68    67    1
    43    68    71    1
    44   114   112   ar
    45   113   111   ar
    46    76    74   ar
    47    69    77   am
    48   107   108    2
    49   126   127    1
    50    80    79    2
    51    72    71    1
    52    72    74   ar
    53   112   110   ar
    54   111   110   ar
    55    64    63    1
    56    64    66   ar
    57   110   109    1
    58    63    62    1
    59    24    23    1
    60    24    25   ar
    61    79    78    1
    62    31    32    1
    63    31    28    1
    64    77    78    1
    65    23    22    1
    66    62    59    1
    67    78    81    1
    68    32    33    1
    69    30    29    2
    70    28    29    1
    71    28    27    1
    72    61    60    2
    73    22    19    1
    74    59    60    1
    75    59    58    1
    76    27    33    1
    77    27    20   am
    78    81    82    1
    79    57    56    1
    80    85    83   ar
    81    84    83   ar
    82    83    82    1
    83    19    20    1
    84    19    18    1
    85    58    52   am
    86    20    21    2
    87    56    55    1
    88    52    53    2
    89    52    51    1
    90    55    54    1
    91    51    54    1
    92    51    50    1
    93    48    47    2
    94    50    47   am
    95    47    46    1
    96    49    46    1
    97    46    45    1
    98    45    43   am
    99    38    39    1
   100    38    35    1
   101    16    15   ar
   102    41    42    1
   103    41    36   am
   104    12    13    2
   105    12    11    1
   106    39    40    1
   107    42    43    1
   108    43    44    2
   109    17    15   ar
   110     8     7   ar
   111    35    36    1
   112    35    34    1
   113    15    14    1
   114    36    37    2
   115    11    14    1
   116    11    10    1
   117     7     9   ar
   118     7     6    1
   119    40    34    1
   120     6     5    1
   121     5     2    1
   122     2     3    1
   123     2     1    1
   124     3     4    2
