@<TRIPOS>MOLECULE
tmp/3se6B02.pdb
 89 87 0 0 0
SMALL
GASTEIGER

@<TRIPOS>ATOM
      1  N         31.7840   24.1490   42.3490 N.3    29  HIS29      -0.1227
      2  CA        31.5230   24.1690   40.9090 C.3    29  HIS29       0.1737
      3  C         31.3640   22.7630   40.3680 C.2    29  HIS29       0.2438
      4  O         32.3280   22.1550   39.8910 O.2    29  HIS29      -0.2733
      5  CB        32.6430   24.8880   40.1540 C.3    29  HIS29       0.0758
      6  CG        32.4600   24.9020   38.6660 C.ar   29  HIS29       0.0818
      7  ND1       33.5190   24.9090   37.7860 N.ar   29  HIS29      -0.2268
      8  CD2       31.3410   24.9030   37.9030 C.ar   29  HIS29       0.1154
      9  CE1       33.0620   24.9160   36.5450 C.ar   29  HIS29       0.1986
     10  NE2       31.7440   24.9110   36.5870 N.ar   29  HIS29      -0.2212
     11  N         30.1350   22.2390   40.4510 N.am   30  PRO30      -0.2718
     12  CA        29.7430   20.9090   39.9980 C.3    30  PRO30       0.1535
     13  C         29.5320   20.8730   38.4960 C.2    30  PRO30       0.2599
     14  O         29.2200   21.8840   37.8810 O.2    30  PRO30      -0.2715
     15  CB        28.3920   20.6920   40.6960 C.3    30  PRO30       0.0310
     16  CG        28.3240   21.6940   41.7380 C.3    30  PRO30       0.0237
     17  CD        29.0310   22.8790   41.1660 C.3    30  PRO30       0.0939
     18  N         29.6980   19.6930   37.9180 N.am   31  ASN31      -0.1959
     19  CA        29.3870   19.4730   36.5220 C.3    31  ASN31       0.1819
     20  C         28.6130   18.1630   36.3630 C.2    31  ASN31       0.2621
     21  O         29.0690   17.0960   36.7700 O.2    31  ASN31      -0.2715
     22  CB        30.6620   19.4540   35.6930 C.3    31  ASN31       0.1195
     23  CG        30.3900   19.6180   34.2250 C.2    31  ASN31       0.2630
     24  OD1       29.5910   18.8760   33.6550 O.2    31  ASN31      -0.2716
     25  ND2       31.0590   20.5940   33.5950 N.am   31  ASN31      -0.0877
     26  N         27.4290   18.2650   35.7790 N.am   32  LEU32      -0.1963
     27  CA        26.5050   17.1480   35.7070 C.3    32  LEU32       0.1728
     28  C         26.5210   16.4960   34.3200 C.2    32  LEU32       0.2617
     29  O         25.5100   15.9520   33.8510 O.2    32  LEU32      -0.2715
     30  CB        25.0980   17.6300   36.0380 C.3    32  LEU32       0.0311
     31  CG        24.7430   17.9730   37.4820 C.3    32  LEU32       0.0022
     32  CD1       25.8260   18.7200   38.2130 C.3    32  LEU32       0.0001
     33  CD2       23.4670   18.7580   37.4980 C.3    32  LEU32       0.0001
     34  N         27.6640   16.5880   33.6510 N.am   33  THR33      -0.1937
     35  CA        27.9310   15.7960   32.4600 C.3    33  THR33       0.2028
     36  C         29.2480   15.1480   32.8060 C.2    33  THR33       0.2642
     37  O         29.4220   13.9410   32.7320 O.2    33  THR33      -0.2714
     38  CB        28.1310   16.6680   31.2030 C.3    33  THR33       0.1808
     39  OG1       27.4900   17.9380   31.3760 O.3    33  THR33      -0.2208
     40  CG2       27.5620   15.9680   29.9800 C.3    33  THR33       0.0379
     41  N         30.1690   16.0050   33.2190 N.am   34  SER34      -0.1949
     42  CA        31.4430   15.6070   33.7790 C.3    34  SER34       0.1924
     43  C         31.2060   14.6990   34.9760 C.2    34  SER34       0.2314
     44  O         31.9770   13.7770   35.2310 O.2    34  SER34      -0.2863
     45  CB        32.2040   16.8650   34.2100 C.3    34  SER34       0.2116
     46  OG        33.4890   16.5460   34.7020 O.3    34  SER34      -0.2180
     47  N         28.2520   27.4090   41.1610 N.3   164  ARG164     -0.1231
     48  CA        28.3550   27.7180   39.7460 C.3   164  ARG164      0.1694
     49  C         27.5830   26.6850   38.9450 C.2   164  ARG164      0.2592
     50  O         27.6680   25.4920   39.2310 O.2   164  ARG164     -0.2718
     51  CB        29.8170   27.7190   39.3240 C.3   164  ARG164      0.0321
     52  CG        30.0370   28.2650   37.9340 C.3   164  ARG164      0.0489
     53  CD        31.5160   28.5010   37.6770 C.3   164  ARG164      0.2205
     54  NE        32.0340   29.6510   38.4110 N.pl3 164  ARG164     -0.0865
     55  CZ        33.3160   29.9940   38.4280 C.cat 164  ARG164      0.5346
     56  NH1       34.2030   29.2670   37.7600 N.pl3 164  ARG164      0.1354
     57  NH2       33.7110   31.0560   39.1080 N.pl3 164  ARG164      0.1354
     58  N         26.8370   27.1370   37.9420 N.am  165  ARG165     -0.1966
     59  CA        25.8790   26.2740   37.2480 C.3   165  ARG165      0.1729
     60  C         25.5050   26.7580   35.8530 C.2   165  ARG165      0.2616
     61  O         25.4820   27.9520   35.5790 O.2   165  ARG165     -0.2715
     62  CB        24.5900   26.1760   38.0550 C.3   165  ARG165      0.0348
     63  CG        23.9980   27.5180   38.3070 C.3   165  ARG165      0.0492
     64  CD        22.4940   27.5030   38.4850 C.3   165  ARG165      0.2205
     65  NE        21.9930   28.8750   38.5720 N.pl3 165  ARG165     -0.0865
     66  CZ        21.4250   29.5180   37.5600 C.cat 165  ARG165      0.5346
     67  NH1       21.2690   28.8960   36.3960 N.pl3 165  ARG165      0.1354
     68  NH2       21.0000   30.7700   37.7140 N.pl3 165  ARG165      0.1354
     69  N         25.1890   25.8140   34.9790 N.am  166  GLU166     -0.1977
     70  CA        24.6200   26.1340   33.6840 C.3   166  GLU166      0.1602
     71  C         23.2340   26.7000   33.8820 C.2   166  GLU166      0.2287
     72  O         22.6240   26.5280   34.9380 O.2   166  GLU166     -0.2864
     73  CB        24.5160   24.8850   32.8230 C.3   166  GLU166      0.0415
     74  CG        25.8190   24.1410   32.6490 C.3   166  GLU166      0.1163
     75  CD        25.6690   22.9340   31.7530 C.2   166  GLU166      0.3649
     76  OE1       24.8110   22.9990   30.8380 O.co2 166  GLU166     -0.2457
     77  OE2       26.4030   21.9360   31.9640 O.co2 166  GLU166     -0.2457
     78  N         31.7350   32.7220   29.5140 N.3   185  GLY185     -0.1225
     79  CA        31.0430   31.9420   28.5010 C.3   185  GLY185      0.1811
     80  C         29.7320   31.2930   28.9220 C.2   185  GLY185      0.2280
     81  O         29.5660   30.0800   28.7780 O.2   185  GLY185     -0.2866
     82  N         28.1770   30.4830   31.7620 N.3   187  LEU187     -0.1245
     83  CA        27.9820   29.8940   33.0880 C.3   187  LEU187      0.1561
     84  C         27.6210   30.8980   34.1920 C.2   187  LEU187      0.2260
     85  O         28.1780   32.0050   34.2690 O.2   187  LEU187     -0.2867
     86  CB        29.1990   29.0720   33.5090 C.3   187  LEU187      0.0270
     87  CG        29.1280   27.5810   33.2210 C.3   187  LEU187      0.0019
     88  CD1       28.8070   27.3190   31.7520 C.3   187  LEU187      0.0001
     89  CD2       30.4350   26.9490   33.6260 C.3   187  LEU187      0.0001
@<TRIPOS>BOND
     1    79    80    1
     2    79    78    1
     3    81    80    2
     4    40    38    1
     5    76    75   ar
     6    38    39    1
     7    38    35    1
     8    88    87    1
     9    75    77   ar
    10    75    74    1
    11    82    83    1
    12    35    36    1
    13    35    34    1
    14    74    73    1
    15    37    36    2
    16    36    41   am
    17    73    70    1
    18    83    86    1
    19    83    84    1
    20    41    42    1
    21    87    86    1
    22    87    89    1
    23    25    23   am
    24    34    28   am
    25    24    23    2
    26    70    71    1
    27    70    69    1
    28    42    45    1
    29    42    43    1
    30    29    28    2
    31    71    72    2
    32    84    85    2
    33    45    46    1
    34    23    22    1
    35    28    27    1
    36    43    44    2
    37    69    60   am
    38    61    60    2
    39    22    19    1
    40    27    26    1
    41    27    30    1
    42    26    20   am
    43    60    59    1
    44    30    31    1
    45    20    19    1
    46    20    21    2
    47    67    66    1
    48    19    18    1
    49     9    10   ar
    50     9     7   ar
    51    10     8   ar
    52    59    58    1
    53    59    62    1
    54    31    33    1
    55    31    32    1
    56    66    68    1
    57    66    65    2
    58    53    52    1
    59    53    54    1
    60    56    55    1
    61     7     6   ar
    62    14    13    2
    63     8     6   ar
    64    18    13   am
    65    52    51    1
    66    58    49   am
    67    62    63    1
    68    63    64    1
    69    54    55    2
    70    55    57    1
    71    64    65    1
    72    13    12    1
    73     6     5    1
    74    49    50    2
    75    49    48    1
    76    51    48    1
    77    48    47    1
    78     4     3    2
    79    12    11    1
    80    12    15    1
    81     5     2    1
    82     3    11   am
    83     3     2    1
    84    11    17    1
    85    15    16    1
    86     2     1    1
    87    17    16    1
