@<TRIPOS>MOLECULE
tmp/3se6A04.pdb
 101 99 0 0 0
SMALL
GASTEIGER

@<TRIPOS>ATOM
      1  N         16.7660    2.8910   11.1860 N.3   276  ALA276     -0.1231
      2  CA        16.7460    1.5720   10.5580 C.3   276  ALA276      0.1679
      3  C         17.6660    1.4480    9.3470 C.2   276  ALA276      0.2434
      4  O         18.5170    0.5540    9.2900 O.2   276  ALA276     -0.2733
      5  CB        15.3220    1.1620   10.1980 C.3   276  ALA276      0.0304
      6  N         17.4950    2.3260    8.3600 N.am  277  PRO277     -0.2718
      7  CA        18.3620    2.1260    7.1990 C.3   277  PRO277      0.1535
      8  C         19.7800    2.5050    7.6060 C.2   277  PRO277      0.2599
      9  O         19.9830    2.8710    8.7580 O.2   277  PRO277     -0.2715
     10  CB        17.8100    3.1240    6.1740 C.3   277  PRO277      0.0310
     11  CG        16.6460    3.8380    6.8560 C.3   277  PRO277      0.0237
     12  CD        16.7780    3.6060    8.3140 C.3   277  PRO277      0.0939
     13  N         20.7440    2.4180    6.7030 N.am  278  GLY278     -0.1941
     14  CA        22.0570    2.9550    6.9890 C.3   278  GLY278      0.2014
     15  C         22.0240    4.4650    6.9890 C.2   278  GLY278      0.2638
     16  O         22.6790    5.0990    7.8170 O.2   278  GLY278     -0.2714
     17  N         21.2590    5.0320    6.0540 N.am  279  ALA279     -0.1977
     18  CA        21.0880    6.4850    5.9050 C.3   279  ALA279      0.1597
     19  C         19.8850    6.7940    4.9980 C.2   279  ALA279      0.2287
     20  O         19.3500    5.8810    4.3330 O.2   279  ALA279     -0.2864
     21  CB        22.3610    7.1280    5.3460 C.3   279  ALA279      0.0319
     22  N         22.7500    6.5200   10.4590 N.3   289  ARG289     -0.1245
     23  CA        22.9910    5.8350   11.7150 C.3   289  ARG289      0.1563
     24  C         24.2800    6.4520   12.1830 C.2   289  ARG289      0.2260
     25  O         25.0750    6.9220   11.3750 O.2   289  ARG289     -0.2867
     26  CB        23.2000    4.3320   11.5200 C.3   289  ARG289      0.0307
     27  CG        22.0400    3.5940   10.9000 C.3   289  ARG289      0.0489
     28  CD        22.3680    2.1140   10.7080 C.3   289  ARG289      0.2205
     29  NE        21.7480    1.2540   11.7190 N.pl3 289  ARG289     -0.0865
     30  CZ        21.0180    0.1720   11.4480 C.cat 289  ARG289      0.5346
     31  NH1       20.8180   -0.2170   10.1940 N.pl3 289  ARG289      0.1354
     32  NH2       20.4910   -0.5290   12.4390 N.pl3 289  ARG289      0.1354
     33  N         24.8060    3.6250   -5.8390 N.3   341  LYS341     -0.1245
     34  CA        25.7300    2.6100   -5.3720 C.3   341  LYS341      0.1561
     35  C         27.0100    2.6840   -6.1930 C.2   341  LYS341      0.2260
     36  O         28.1090    2.4430   -5.6910 O.2   341  LYS341     -0.2867
     37  CB        25.0920    1.2310   -5.4650 C.3   341  LYS341      0.0271
     38  CG        25.9660    0.1230   -4.9300 C.3   341  LYS341      0.0035
     39  CD        26.0610    0.1540   -3.4190 C.3   341  LYS341      0.0206
     40  CE        27.1520   -0.8060   -2.9330 C.3   341  LYS341      0.1093
     41  NZ        26.9490   -1.2880   -1.5310 N.3   341  LYS341     -0.1314
     42  N         14.3340   -2.9970   -2.2860 N.3   394  PHE394     -0.1227
     43  CA        15.6050   -2.4610   -1.8060 C.3   394  PHE394      0.1736
     44  C         16.5510   -3.5990   -1.4050 C.2   394  PHE394      0.2595
     45  O         16.6710   -3.9400   -0.2310 O.2   394  PHE394     -0.2718
     46  CB        15.3880   -1.5160   -0.6230 C.3   394  PHE394      0.0547
     47  CG        14.6940   -0.2440   -0.9870 C.ar  394  PHE394     -0.0202
     48  CD1       15.4150    0.9340   -1.1430 C.ar  394  PHE394     -0.0042
     49  CD2       13.3180   -0.2120   -1.1730 C.ar  394  PHE394     -0.0042
     50  CE1       14.7720    2.1350   -1.4850 C.ar  394  PHE394     -0.0003
     51  CE2       12.6680    0.9730   -1.5090 C.ar  394  PHE394     -0.0003
     52  CZ        13.3980    2.1490   -1.6620 C.ar  394  PHE394     -0.0000
     53  N         17.2270   -4.1850   -2.3860 N.am  395  ASP395     -0.1960
     54  CA        18.0650   -5.3430   -2.1270 C.3   395  ASP395      0.1840
     55  C         19.3760   -5.3270   -2.9020 C.2   395  ASP395      0.2621
     56  O         19.6300   -4.4390   -3.7220 O.2   395  ASP395     -0.2715
     57  CB        17.3020   -6.6140   -2.4680 C.3   395  ASP395      0.1450
     58  CG        17.0590   -6.7650   -3.9570 C.2   395  ASP395      0.3671
     59  OD1       17.5130   -5.8920   -4.7330 O.co2 395  ASP395     -0.2456
     60  OD2       16.4170   -7.7620   -4.3430 O.co2 395  ASP395     -0.2456
     61  N         20.1890   -6.3460   -2.6480 N.am  396  GLU396     -0.1977
     62  CA        21.4940   -6.4890   -3.2830 C.3   396  GLU396      0.1602
     63  C         21.4370   -6.2890   -4.8130 C.2   396  GLU396      0.2287
     64  O         22.3930   -5.8100   -5.4220 O.2   396  GLU396     -0.2864
     65  CB        22.1310   -7.8370   -2.9030 C.3   396  GLU396      0.0415
     66  CG        22.3050   -8.0880   -1.3810 C.3   396  GLU396      0.1163
     67  CD        21.0040   -8.5170   -0.6510 C.2   396  GLU396      0.3649
     68  OE1       20.4460   -9.5860   -0.9980 O.co2 396  GLU396     -0.2457
     69  OE2       20.5470   -7.8050    0.2840 O.co2 396  GLU396     -0.2457
     70  N         20.6600   -2.5330   -5.8230 N.3   399  TYR399     -0.1227
     71  CA        21.8490   -1.8240   -5.4170 C.3   399  TYR399      0.1736
     72  C         23.0650   -2.2930   -6.1990 C.2   399  TYR399      0.2595
     73  O         23.4430   -1.6870   -7.1840 O.2   399  TYR399     -0.2718
     74  CB        22.0780   -2.0010   -3.9260 C.3   399  TYR399      0.0548
     75  CG        21.2100   -1.1360   -3.0290 C.ar  399  TYR399     -0.0200
     76  CD1       19.8890   -1.4780   -2.7470 C.ar  399  TYR399     -0.0009
     77  CD2       21.7300    0.0090   -2.4330 C.ar  399  TYR399     -0.0009
     78  CE1       19.1100   -0.6940   -1.9020 C.ar  399  TYR399      0.0417
     79  CE2       20.9650    0.7940   -1.5900 C.ar  399  TYR399      0.0417
     80  CZ        19.6610    0.4450   -1.3250 C.ar  399  TYR399      0.1957
     81  OH        18.9250    1.2540   -0.4800 O.3   399  TYR399     -0.2866
     82  N         23.6560   -3.3930   -5.7690 N.am  400  ASN400     -0.1974
     83  CA        24.9210   -3.8560   -6.3150 C.3   400  ASN400      0.1688
     84  C         24.8850   -4.2800   -7.7760 C.2   400  ASN400      0.2292
     85  O         25.7370   -3.8660   -8.5540 O.2   400  ASN400     -0.2864
     86  CB        25.4670   -5.0010   -5.4730 C.3   400  ASN400      0.1181
     87  CG        25.4780   -4.6850   -3.9980 C.2   400  ASN400      0.2629
     88  OD1       25.0000   -3.6400   -3.5710 O.2   400  ASN400     -0.2716
     89  ND2       26.0300   -5.5880   -3.2090 N.am  400  ASN400     -0.0877
     90  N         14.4040   -4.6090    5.9630 N.3   800  TYR800     -0.1241
     91  CA        15.7090   -5.2470    5.8540 C.3   800  TYR800      0.1605
     92  C         15.9730   -6.0090    7.1560 C.2   800  TYR800      0.2264
     93  O         16.6280   -7.0530    7.1610 O.2   800  TYR800     -0.2867
     94  CB        16.7940   -4.1900    5.5940 C.3   800  TYR800      0.0534
     95  CG        18.1620   -4.7430    5.2750 C.ar  800  TYR800     -0.0201
     96  CD1       18.3900   -5.4690    4.1070 C.ar  800  TYR800     -0.0009
     97  CD2       19.2360   -4.5200    6.1290 C.ar  800  TYR800     -0.0009
     98  CE1       19.6580   -5.9720    3.8070 C.ar  800  TYR800      0.0417
     99  CE2       20.5040   -5.0190    5.8420 C.ar  800  TYR800      0.0417
    100  CZ        20.7110   -5.7450    4.6830 C.ar  800  TYR800      0.1957
    101  OH        21.9690   -6.2280    4.4040 O.3   800  TYR800     -0.2866
@<TRIPOS>BOND
     1    85    84    2
     2    84    83    1
     3    73    72    2
     4    83    82    1
     5    83    86    1
     6    72    82   am
     7    72    71    1
     8    35    36    2
     9    35    34    1
    10    33    34    1
    11    70    71    1
    12    86    87    1
    13    37    34    1
    14    37    38    1
    15    64    63    2
    16    71    74    1
    17    38    39    1
    18    63    62    1
    19    59    58   ar
    20    60    58   ar
    21    87    88    2
    22    87    89   am
    23    58    57    1
    24    74    75    1
    25    56    55    2
    26    39    40    1
    27    62    65    1
    28    62    61    1
    29    75    76   ar
    30    75    77   ar
    31    40    41    1
    32    65    66    1
    33    55    61   am
    34    55    54    1
    35    76    78   ar
    36    57    54    1
    37    77    79   ar
    38    53    54    1
    39    53    44   am
    40    42    43    1
    41    78    80   ar
    42    43    44    1
    43    43    46    1
    44    52    51   ar
    45    52    50   ar
    46    79    80   ar
    47    51    49   ar
    48    50    48   ar
    49    44    45    2
    50    66    67    1
    51    80    81    1
    52    49    47   ar
    53    48    47   ar
    54    68    67   ar
    55    47    46    1
    56    67    69   ar
    57    98    96   ar
    58    98   100   ar
    59    96    95   ar
    60    20    19    2
    61   101   100    1
    62   100    99   ar
    63    19    18    1
    64    95    94    1
    65    95    97   ar
    66    21    18    1
    67    94    91    1
    68    99    97   ar
    69    91    90    1
    70    91    92    1
    71    18    17    1
    72    17    15   am
    73    10    11    1
    74    10     7    1
    75    13    14    1
    76    13     8   am
    77    11    12    1
    78    14    15    1
    79    15    16    2
    80    92    93    2
    81     7     8    1
    82     7     6    1
    83     8     9    2
    84    12     6    1
    85     6     3   am
    86     4     3    2
    87     3     2    1
    88    31    30    1
    89     5     2    1
    90    22    23    1
    91     2     1    1
    92    28    27    1
    93    28    29    1
    94    27    26    1
    95    25    24    2
    96    30    29    2
    97    30    32    1
    98    26    23    1
    99    23    24    1
