@<TRIPOS>MOLECULE
tmp/3se7C00.pdb
 188 178 0 0 0
SMALL
GASTEIGER

@<TRIPOS>ATOM
      1  N        -42.5000   28.9630  -77.5500 N.3   132  LYS132     -0.1245
      2  CA       -43.2660   29.6780  -78.5580 C.3   132  LYS132      0.1561
      3  C        -43.7600   28.7730  -79.6860 C.2   132  LYS132      0.2260
      4  O        -44.8870   28.9030  -80.1610 O.2   132  LYS132     -0.2867
      5  CB       -42.4490   30.8560  -79.0910 C.3   132  LYS132      0.0271
      6  CG       -42.1510   31.9070  -78.0270 C.3   132  LYS132      0.0035
      7  CD       -41.6740   33.2130  -78.6440 C.3   132  LYS132      0.0206
      8  CE       -41.4900   34.2850  -77.5840 C.3   132  LYS132      0.1093
      9  NZ       -40.3930   33.9650  -76.6310 N.3   132  LYS132     -0.1314
     10  N        -46.8700   33.3660  -87.3080 N.3   147  PRO147     -0.2116
     11  CA       -45.7880   33.5220  -88.2710 C.3   147  PRO147      0.1372
     12  C        -45.4500   32.1740  -88.8820 C.2   147  PRO147      0.2244
     13  O        -45.8800   31.1420  -88.3680 O.2   147  PRO147     -0.2868
     14  CB       -44.5980   33.9540  -87.4130 C.3   147  PRO147      0.0268
     15  CG       -45.1730   34.4320  -86.1450 C.3   147  PRO147      0.0207
     16  CD       -46.4440   33.6790  -85.9360 C.3   147  PRO147      0.0892
     17  N        -36.6980   36.7310  -88.0470 N.3   168  PHE168     -0.1241
     18  CA       -36.3550   36.9110  -86.6430 C.3   168  PHE168      0.1605
     19  C        -35.8270   35.6130  -86.0550 C.2   168  PHE168      0.2264
     20  O        -36.2890   34.5310  -86.4030 O.2   168  PHE168     -0.2867
     21  CB       -37.5760   37.3810  -85.8540 C.3   168  PHE168      0.0534
     22  CG       -37.8350   38.8510  -85.9850 C.ar  168  PHE168     -0.0203
     23  CD1      -38.4120   39.3630  -87.1410 C.ar  168  PHE168     -0.0042
     24  CD2      -37.4770   39.7240  -84.9680 C.ar  168  PHE168     -0.0042
     25  CE1      -38.6400   40.7220  -87.2850 C.ar  168  PHE168     -0.0003
     26  CE2      -37.6980   41.0830  -85.0980 C.ar  168  PHE168     -0.0003
     27  CZ       -38.2810   41.5830  -86.2580 C.ar  168  PHE168     -0.0000
     28  N        -34.7800   33.6920  -82.2990 N.3   170  LYS170     -0.1245
     29  CA       -35.0190   33.7910  -80.8600 C.3   170  LYS170      0.1561
     30  C        -34.8870   32.4470  -80.1440 C.2   170  LYS170      0.2260
     31  O        -35.0390   31.3950  -80.7600 O.2   170  LYS170     -0.2867
     32  CB       -36.3900   34.4230  -80.5910 C.3   170  LYS170      0.0271
     33  CG       -37.5470   33.7150  -81.2660 C.3   170  LYS170      0.0035
     34  CD       -38.8730   34.4470  -81.0930 C.3   170  LYS170      0.0206
     35  CE       -39.1440   35.3570  -82.2780 C.3   170  LYS170      0.1093
     36  NZ       -40.5800   35.7340  -82.4400 N.3   170  LYS170     -0.1314
     37  N        -37.7010   31.8460  -74.2710 N.3   174  SER174     -0.1202
     38  CA       -37.2380   32.9220  -73.4060 C.3   174  SER174      0.2020
     39  C        -38.2580   34.0410  -73.3780 C.2   174  SER174      0.2619
     40  O        -39.4390   33.8300  -73.6610 O.2   174  SER174     -0.2717
     41  CB       -35.8760   33.4560  -73.8530 C.3   174  SER174      0.2103
     42  OG       -35.1880   34.0290  -72.7540 O.3   174  SER174     -0.2182
     43  N        -37.7920   35.2350  -73.0340 N.am  175  GLY175     -0.1942
     44  CA       -38.6870   36.3730  -72.9050 C.3   175  GLY175      0.2014
     45  C        -37.9150   37.6190  -72.5480 C.2   175  GLY175      0.2640
     46  O        -36.7270   37.5480  -72.2420 O.2   175  GLY175     -0.2714
     47  N        -38.6000   38.7570  -72.5920 N.am  176  SER176     -0.1935
     48  CA       -37.9670   40.0480  -72.3520 C.3   176  SER176      0.2055
     49  C        -36.9420   40.2950  -73.4540 C.2   176  SER176      0.2644
     50  O        -35.9250   40.9400  -73.2280 O.2   176  SER176     -0.2714
     51  CB       -37.3410   40.2090  -70.9650 C.3   176  SER176      0.2130
     52  OG       -38.3300   40.5920  -70.0230 O.3   176  SER176     -0.2179
     53  N        -37.2270   39.7690  -74.6430 N.am  177  SER177     -0.1935
     54  CA       -36.3740   39.9420  -75.8140 C.3   177  SER177      0.2055
     55  C        -34.9470   39.4140  -75.6900 C.2   177  SER177      0.2643
     56  O        -34.1030   39.7460  -76.5200 O.2   177  SER177     -0.2714
     57  CB       -36.3530   41.4070  -76.2460 C.3   177  SER177      0.2130
     58  OG       -37.6380   41.7850  -76.7030 O.3   177  SER177     -0.2179
     59  N        -34.6810   38.5920  -74.6780 N.am  178  PHE178     -0.1973
     60  CA       -33.3570   37.9990  -74.5150 C.3   178  PHE178      0.1639
     61  C        -33.0500   37.0480  -75.6580 C.2   178  PHE178      0.2290
     62  O        -33.7450   36.0450  -75.8230 O.2   178  PHE178     -0.2864
     63  CB       -33.2630   37.2180  -73.2070 C.3   178  PHE178      0.0560
     64  CG       -33.1430   38.0900  -72.0010 C.ar  178  PHE178     -0.0200
     65  CD1      -31.9960   38.8360  -71.7900 C.ar  178  PHE178     -0.0042
     66  CD2      -34.1840   38.1770  -71.0910 C.ar  178  PHE178     -0.0042
     67  CE1      -31.8810   39.6490  -70.6850 C.ar  178  PHE178     -0.0003
     68  CE2      -34.0850   38.9970  -69.9870 C.ar  178  PHE178     -0.0003
     69  CZ       -32.9280   39.7320  -69.7820 C.ar  178  PHE178     -0.0000
     70  N        -33.1940   37.6470  -78.8630 N.3   180  VAL180     -0.1245
     71  CA       -33.9040   37.9740  -80.0990 C.3   180  VAL180      0.1561
     72  C        -33.0560   38.8420  -81.0360 C.2   180  VAL180      0.2260
     73  O        -32.4240   39.8040  -80.5960 O.2   180  VAL180     -0.2867
     74  CB       -35.2400   38.6860  -79.7990 C.3   180  VAL180      0.0252
     75  CG1      -35.7890   39.3320  -81.0520 C.3   180  VAL180      0.0019
     76  CG2      -36.2550   37.7240  -79.2040 C.3   180  VAL180      0.0019
     77  N        -38.2490   32.8430  -87.3960 N.3   206  GLU206     -0.1231
     78  CA       -39.5640   33.3170  -87.8080 C.3   206  GLU206      0.1699
     79  C        -39.5040   34.3090  -88.9710 C.2   206  GLU206      0.2592
     80  O        -38.8900   35.3710  -88.8620 O.2   206  GLU206     -0.2718
     81  CB       -40.2820   33.9860  -86.6340 C.3   206  GLU206      0.0402
     82  CG       -40.6020   33.0680  -85.4870 C.3   206  GLU206      0.1161
     83  CD       -41.4600   33.7450  -84.4410 C.2   206  GLU206      0.3649
     84  OE1      -42.1140   34.7570  -84.7640 O.co2 206  GLU206     -0.2457
     85  OE2      -41.4830   33.2680  -83.2870 O.co2 206  GLU206     -0.2457
     86  N        -40.2080   34.0330  -90.0370 N.am  207  GLU207     -0.1966
     87  CA       -40.3040   34.9810  -91.0930 C.3   207  GLU207      0.1733
     88  C        -41.0080   36.1530  -90.5620 C.2   207  GLU207      0.2616
     89  O        -41.9850   36.0170  -89.9110 O.2   207  GLU207     -0.2715
     90  CB       -41.1260   34.4160  -92.2100 C.3   207  GLU207      0.0429
     91  CG       -40.3790   33.4660  -93.0150 C.3   207  GLU207      0.1163
     92  CD       -41.0480   33.1770  -94.2820 C.2   207  GLU207      0.3649
     93  OE1      -42.2690   33.1300  -94.2880 O.co2 207  GLU207     -0.2457
     94  OE2      -40.3550   33.0050  -95.2780 O.co2 207  GLU207     -0.2457
     95  N        -40.5310   37.3250  -90.9120 N.am  208  ALA208     -0.1963
     96  CA       -41.0390   38.5920  -90.3710 C.3   208  ALA208      0.1728
     97  C        -42.5540   38.7460  -90.5140 C.2   208  ALA208      0.2616
     98  O        -43.1530   38.2470  -91.4680 O.2   208  ALA208     -0.2715
     99  CB       -40.3280   39.7680  -91.0290 C.3   208  ALA208      0.0334
    100  N        -43.1860   39.4170  -89.5590 N.am  209  VAL209     -0.1977
    101  CA       -44.5940   39.7610  -89.7100 C.3   209  VAL209      0.1596
    102  C        -44.7040   41.2780  -89.7960 C.2   209  VAL209      0.2287
    103  O        -44.1350   41.9950  -88.9750 O.2   209  VAL209     -0.2864
    104  CB       -45.4670   39.2120  -88.5610 C.3   209  VAL209      0.0276
    105  CG1      -46.9180   39.5900  -88.7760 C.3   209  VAL209      0.0022
    106  CG2      -45.3510   37.7000  -88.4710 C.3   209  VAL209      0.0022
    107  N        -47.8400   46.3490  -83.7730 N.3   213  GLU213     -0.1245
    108  CA       -47.6930   45.4600  -82.6340 C.3   213  GLU213      0.1567
    109  C        -48.7280   45.8280  -81.5780 C.2   213  GLU213      0.2260
    110  O        -48.7490   46.9240  -81.0300 O.2   213  GLU213     -0.2867
    111  CB       -46.2510   45.4310  -82.1190 C.3   213  GLU213      0.0388
    112  CG       -45.2560   45.0930  -83.2300 C.3   213  GLU213      0.1160
    113  CD       -43.8140   45.0010  -82.7680 C.2   213  GLU213      0.3649
    114  OE1      -43.5240   44.1930  -81.8670 O.co2 213  GLU213     -0.2457
    115  OE2      -42.9550   45.7160  -83.3200 O.co2 213  GLU213     -0.2457
    116  N        -37.0480   44.9030  -73.6100 N.3   241  GLY241     -0.1210
    117  CA       -38.0210   44.1540  -74.3930 C.3   241  GLY241      0.1956
    118  C        -39.3310   44.9030  -74.5360 C.2   241  GLY241      0.2613
    119  O        -39.4330   46.0680  -74.1560 O.2   241  GLY241     -0.2717
    120  N        -40.3630   44.2610  -75.0270 N.am  242  SER242     -0.1938
    121  CA       -41.5890   44.9710  -75.3030 C.3   242  SER242      0.2055
    122  C        -42.2310   45.6060  -74.1240 C.2   242  SER242      0.2643
    123  O        -42.8280   46.6320  -74.2430 O.2   242  SER242     -0.2714
    124  CB       -42.5960   44.0800  -75.9680 C.3   242  SER242      0.2130
    125  OG       -43.7420   44.0670  -75.2010 O.3   242  SER242     -0.2179
    126  N        -42.1360   44.9930  -72.9760 N.am  243  ASP243     -0.1971
    127  CA       -42.7320   45.5620  -71.7770 C.3   243  ASP243      0.1709
    128  C        -42.2230   46.9730  -71.4880 C.2   243  ASP243      0.2293
    129  O        -42.9660   47.8440  -71.0270 O.2   243  ASP243     -0.2864
    130  CB       -42.4470   44.6390  -70.5970 C.3   243  ASP243      0.1436
    131  CG       -43.4490   44.8050  -69.4720 C.2   243  ASP243      0.3671
    132  OD1      -44.6360   45.0900  -69.7450 O.co2 243  ASP243     -0.2456
    133  OD2      -43.0490   44.6320  -68.3010 O.co2 243  ASP243     -0.2456
    134  N        -50.7700   37.9080  -70.7860 N.3   279  ARG279     -0.1245
    135  CA       -50.7450   39.0140  -71.7350 C.3   279  ARG279      0.1563
    136  C        -50.4500   38.5090  -73.1360 C.2   279  ARG279      0.2260
    137  O        -49.3580   37.9950  -73.3900 O.2   279  ARG279     -0.2867
    138  CB       -49.7340   40.1040  -71.3740 C.3   279  ARG279      0.0307
    139  CG       -49.8680   41.3050  -72.3050 C.3   279  ARG279      0.0489
    140  CD       -48.6840   42.2300  -72.2220 C.3   279  ARG279      0.2205
    141  NE       -47.5560   41.8090  -73.0520 N.pl3 279  ARG279     -0.0865
    142  CZ       -46.3260   41.5970  -72.5930 C.cat 279  ARG279      0.5346
    143  NH1      -46.0660   41.7380  -71.3020 N.pl3 279  ARG279      0.1354
    144  NH2      -45.3490   41.2590  -73.4230 N.pl3 279  ARG279      0.1354
    145  N        -49.6410   38.9370  -76.9170 N.3   281  ASP281     -0.1239
    146  CA       -49.0030   39.8490  -77.8630 C.3   281  ASP281      0.1674
    147  C        -49.4470   39.5280  -79.2890 C.2   281  ASP281      0.2266
    148  O        -49.4640   38.3610  -79.6940 O.2   281  ASP281     -0.2867
    149  CB       -47.4790   39.7370  -77.7640 C.3   281  ASP281      0.1410
    150  CG       -46.9140   40.4020  -76.5210 C.2   281  ASP281      0.3668
    151  OD1      -47.6990   40.9570  -75.7200 O.co2 281  ASP281     -0.2456
    152  OD2      -45.6730   40.3710  -76.3560 O.co2 281  ASP281     -0.2456
    153  N        -50.0040   40.8580  -83.7340 N.3   283  PHE283     -0.1241
    154  CA       -49.6990   41.7000  -84.8850 C.3   283  PHE283      0.1605
    155  C        -51.0040   42.0230  -85.6120 C.2   283  PHE283      0.2264
    156  O        -51.8440   41.1400  -85.8190 O.2   283  PHE283     -0.2867
    157  CB       -48.7870   40.9610  -85.8690 C.3   283  PHE283      0.0534
    158  CG       -47.3850   40.7180  -85.3790 C.ar  283  PHE283     -0.0203
    159  CD1      -46.5010   41.7690  -85.2040 C.ar  283  PHE283     -0.0042
    160  CD2      -46.9310   39.4260  -85.1700 C.ar  283  PHE283     -0.0042
    161  CE1      -45.2060   41.5410  -84.7900 C.ar  283  PHE283     -0.0003
    162  CE2      -45.6340   39.1910  -84.7530 C.ar  283  PHE283     -0.0003
    163  CZ       -44.7680   40.2510  -84.5630 C.ar  283  PHE283     -0.0000
    164  N        -48.2680   36.6990  -81.7490 N.3   293  ASN293     -0.1225
    165  CA       -46.8760   36.7990  -81.4120 C.3   293  ASN293      0.1785
    166  C        -46.5270   35.8140  -80.3340 C.2   293  ASN293      0.2597
    167  O        -45.7690   34.9260  -80.5490 O.2   293  ASN293     -0.2718
    168  CB       -46.5170   38.2080  -80.9650 C.3   293  ASN293      0.1169
    169  CG       -45.1110   38.3150  -80.4280 C.2   293  ASN293      0.2627
    170  OD1      -44.8570   39.0060  -79.4600 O.2   293  ASN293     -0.2716
    171  ND2      -44.1970   37.6280  -81.0510 N.am  293  ASN293     -0.0877
    172  N        -47.1200   35.9450  -79.1740 N.am  294  GLU294     -0.1979
    173  CA       -46.6270   35.2640  -77.9790 C.3   294  GLU294      0.1602
    174  C        -47.7510   35.2810  -76.9470 C.2   294  GLU294      0.2287
    175  O        -48.6410   36.1310  -77.0240 O.2   294  GLU294     -0.2864
    176  CB       -45.3990   36.0340  -77.4710 C.3   294  GLU294      0.0415
    177  CG       -44.9660   35.8240  -76.0230 C.3   294  GLU294      0.1163
    178  CD       -44.0300   36.9270  -75.5320 C.2   294  GLU294      0.3649
    179  OE1      -43.2260   36.6830  -74.6080 O.co2 294  GLU294     -0.2457
    180  OE2      -44.0910   38.0560  -76.0670 O.co2 294  GLU294     -0.2457
    181  N        -47.7270   35.7680  -73.0250 N.3   296  ASN296     -0.1240
    182  CA       -46.9980   35.9970  -71.7790 C.3   296  ASN296      0.1653
    183  C        -47.8650   35.6540  -70.5720 C.2   296  ASN296      0.2266
    184  O        -48.8140   36.3560  -70.1970 O.2   296  ASN296     -0.2867
    185  CB       -46.4430   37.4180  -71.6840 C.3   296  ASN296      0.1155
    186  CG       -45.6640   37.8200  -72.9200 C.2   296  ASN296      0.2627
    187  OD1      -44.4430   37.6430  -72.9980 O.2   296  ASN296     -0.2716
    188  ND2      -46.3750   38.3700  -73.9000 N.am  296  ASN296     -0.0877
@<TRIPOS>BOND
     1    94    92   ar
     2    93    92   ar
     3    92    91    1
     4    91    90    1
     5    90    87    1
     6    98    97    2
     7    87    88    1
     8    87    86    1
     9    99    96    1
    10    95    88   am
    11    95    96    1
    12    88    89    2
    13    97    96    1
    14    97   100   am
    15    86    79   am
    16   102   101    1
    17   102   103    2
    18   101   100    1
    19   101   104    1
    20    79    80    2
    21    79    78    1
    22    12    13    2
    23    12    11    1
    24   105   104    1
    25   104   106    1
    26    11    14    1
    27    11    10    1
    28    17    18    1
    29    78    77    1
    30    78    81    1
    31    14    15    1
    32    10    16    1
    33    25    23   ar
    34    25    27   ar
    35    23    22   ar
    36    18    19    1
    37    18    21    1
    38    81    82    1
    39    20    19    2
    40    27    26   ar
    41    15    16    1
    42    22    21    1
    43    22    24   ar
    44   157   158    1
    45   157   154    1
    46   156   155    2
    47   155   154    1
    48    82    83    1
    49   158   159   ar
    50   158   160   ar
    51   159   161   ar
    52   160   162   ar
    53    26    24   ar
    54   154   153    1
    55   161   163   ar
    56    84    83   ar
    57   162   163   ar
    58    83    85   ar
    59   107   108    1
    60   115   113   ar
    61   112   113    1
    62   112   111    1
    63   113   114   ar
    64   108   111    1
    65   108   109    1
    66    36    35    1
    67    28    29    1
    68    35    34    1
    69   164   165    1
    70   109   110    2
    71   165   168    1
    72   165   166    1
    73    33    34    1
    74    33    32    1
    75    75    74    1
    76   171   169   am
    77    72    73    2
    78    72    71    1
    79   168   169    1
    80    29    32    1
    81    29    30    1
    82    31    30    2
    83   167   166    2
    84   169   170    2
    85   166   172   am
    86     4     3    2
    87    71    74    1
    88    71    70    1
    89    74    76    1
    90   148   147    2
    91     3     2    1
    92   147   146    1
    93   172   173    1
    94     5     2    1
    95     5     6    1
    96     7     6    1
    97     7     8    1
    98     2     1    1
    99   173   176    1
   100   173   174    1
   101   146   149    1
   102   146   145    1
   103   149   150    1
   104     8     9    1
   105   176   177    1
   106   175   174    2
   107    58    57    1
   108   150   152   ar
   109   150   151   ar
   110    56    55    2
   111    57    54    1
   112   180   178   ar
   113   177   178    1
   114   124   121    1
   115   124   125    1
   116    62    61    2
   117    54    55    1
   118    54    53    1
   119    55    59   am
   120    61    60    1
   121   178   179   ar
   122   121   120    1
   123   121   122    1
   124   120   118   am
   125    59    60    1
   126    53    49   am
   127   118   117    1
   128   118   119    2
   129    60    63    1
   130   117   116    1
   131    37    38    1
   132   123   122    2
   133   122   126   am
   134   188   186   am
   135    41    38    1
   136    41    42    1
   137    40    39    2
   138    49    50    2
   139    49    48    1
   140   144   142    1
   141    38    39    1
   142   137   136    2
   143    39    43   am
   144    63    64    1
   145   136   135    1
   146   141   142    2
   147   141   140    1
   148    43    44    1
   149   181   182    1
   150   187   186    2
   151   126   127    1
   152   186   185    1
   153    44    45    1
   154   142   143    1
   155    47    45   am
   156    47    48    1
   157    45    46    2
   158    48    51    1
   159   139   140    1
   160   139   138    1
   161    64    65   ar
   162    64    66   ar
   163    65    67   ar
   164   182   185    1
   165   182   183    1
   166   127   128    1
   167   127   130    1
   168   135   138    1
   169   135   134    1
   170   128   129    2
   171    66    68   ar
   172    51    52    1
   173    67    69   ar
   174   130   131    1
   175   183   184    2
   176    68    69   ar
   177   132   131   ar
   178   131   133   ar
