@<TRIPOS>MOLECULE
tmp/3secA00.pdb
 193 185 0 0 0
SMALL
GASTEIGER

@<TRIPOS>ATOM
      1  N         34.5020   35.1230   40.7160 N.3     8  ALA8       -0.1245
      2  CA        34.5190   36.3810   39.9650 C.3     8  ALA8        0.1562
      3  C         33.3200   36.3580   39.0100 C.2     8  ALA8        0.2260
      4  O         33.3280   35.6630   37.9740 O.2     8  ALA8       -0.2867
      5  CB        35.8470   36.5180   39.1860 C.3     8  ALA8        0.0290
      6  N         31.6180   37.8140   36.2960 N.3    10  ASP10      -0.1239
      7  CA        31.7880   38.7500   35.1830 C.3    10  ASP10       0.1674
      8  C         30.8520   38.4640   34.0020 C.2    10  ASP10       0.2266
      9  O         31.0580   38.9950   32.9070 O.2    10  ASP10      -0.2867
     10  CB        33.2540   38.7600   34.7230 C.3    10  ASP10       0.1410
     11  CG        34.2090   39.2050   35.8220 C.2    10  ASP10       0.3668
     12  OD1       33.9410   40.2160   36.5080 O.co2  10  ASP10      -0.2456
     13  OD2       35.2680   38.5540   35.9660 O.co2  10  ASP10      -0.2456
     14  N         33.1120   38.3480   43.8810 N.3    32  LYS32      -0.1245
     15  CA        33.7810   39.5470   43.3800 C.3    32  LYS32       0.1561
     16  C         32.9400   40.0350   42.2090 C.2    32  LYS32       0.2260
     17  O         32.7660   39.3100   41.2150 O.2    32  LYS32      -0.2867
     18  CB        35.2020   39.2010   42.9140 C.3    32  LYS32       0.0271
     19  CG        36.0300   40.4560   42.5030 C.3    32  LYS32       0.0035
     20  CD        37.5020   40.1390   42.1970 C.3    32  LYS32       0.0206
     21  CE        37.6800   39.4860   40.8050 C.3    32  LYS32       0.1093
     22  NZ        37.2500   40.3750   39.6950 N.3    32  LYS32      -0.1314
     23  N         35.2720   44.8900   42.4200 N.3    60  ASP60      -0.1239
     24  CA        36.5370   44.9680   41.7260 C.3    60  ASP60       0.1674
     25  C         36.5120   46.1020   40.7360 C.2    60  ASP60       0.2266
     26  O         36.2650   45.9000   39.5480 O.2    60  ASP60      -0.2867
     27  CB        36.8520   43.6540   41.0030 C.3    60  ASP60       0.1410
     28  CG        38.3000   43.6050   40.5010 C.2    60  ASP60       0.3668
     29  OD1       39.0400   44.6170   40.5790 O.co2  60  ASP60      -0.2456
     30  OD2       38.7080   42.5320   40.0190 O.co2  60  ASP60      -0.2456
     31  N         39.0710   48.4260   40.5080 N.3    62  LYS62      -0.1245
     32  CA        40.4500   48.7720   40.0800 C.3    62  LYS62       0.1561
     33  C         40.6670   50.2860   40.1500 C.2    62  LYS62       0.2260
     34  O         41.1110   50.9360   39.1860 O.2    62  LYS62      -0.2867
     35  CB        40.7010   48.2400   38.6600 C.3    62  LYS62       0.0271
     36  CG        40.6570   46.6980   38.6730 C.3    62  LYS62       0.0035
     37  CD        41.7460   46.0930   37.8690 C.3    62  LYS62       0.0206
     38  CE        41.9840   44.6460   38.1840 C.3    62  LYS62       0.1093
     39  NZ        40.7800   43.8060   38.4170 N.3    62  LYS62      -0.1314
     40  N         38.5250   46.9990   45.4830 N.3    86  ILE86      -0.1245
     41  CA        39.8700   46.7420   44.9960 C.3    86  ILE86       0.1561
     42  C         40.4100   48.0170   44.3300 C.2    86  ILE86       0.2260
     43  O         39.7590   48.6100   43.4630 O.2    86  ILE86      -0.2867
     44  CB        39.8760   45.5570   43.9950 C.3    86  ILE86       0.0252
     45  CG1       39.5270   44.2730   44.7660 C.3    86  ILE86       0.0019
     46  CG2       41.2420   45.4430   43.3150 C.3    86  ILE86       0.0019
     47  CD1       39.3500   42.9930   43.8810 C.3    86  ILE86       0.0001
     48  N         45.8850   46.2940   44.8510 N.3   113  LEU113     -0.1231
     49  CA        46.4240   45.6180   43.6660 C.3   113  LEU113      0.1693
     50  C         47.9210   45.8890   43.5310 C.2   113  LEU113      0.2593
     51  O         48.3580   47.0440   43.4830 O.2   113  LEU113     -0.2718
     52  CB        45.7350   46.1140   42.3870 C.3   113  LEU113      0.0284
     53  CG        44.2780   45.7940   42.0820 C.3   113  LEU113      0.0019
     54  CD1       43.7180   46.8000   41.0780 C.3   113  LEU113      0.0001
     55  CD2       44.1180   44.4070   41.4910 C.3   113  LEU113      0.0001
     56  N         48.6890   44.7990   43.3700 N.am  114  THR114     -0.1939
     57  CA        50.1720   44.8040   43.4070 C.3   114  THR114      0.2028
     58  C         50.9450   44.4600   42.0940 C.2   114  THR114      0.2642
     59  O         51.5440   45.3610   41.5230 O.2   114  THR114     -0.2714
     60  CB        50.7160   43.9570   44.6040 C.3   114  THR114      0.1808
     61  OG1       50.5570   42.5610   44.3280 O.3   114  THR114     -0.2208
     62  CG2       49.9740   44.3030   45.9060 C.3   114  THR114      0.0379
     63  N         51.0250   43.1880   41.6670 N.am  115  GLU115     -0.1963
     64  CA        51.3680   42.8250   40.2900 C.3   115  GLU115      0.1733
     65  C         50.1740   42.0870   39.6930 C.2   115  GLU115      0.2616
     66  O         49.5500   41.3080   40.3880 O.2   115  GLU115     -0.2715
     67  CB        52.6020   41.9200   40.2630 C.3   115  GLU115      0.0429
     68  CG        52.9510   41.3930   38.8710 C.3   115  GLU115      0.1163
     69  CD        54.3090   40.7360   38.8020 C.2   115  GLU115      0.3649
     70  OE1       54.5500   39.9800   37.8260 O.co2 115  GLU115     -0.2457
     71  OE2       55.1340   40.9820   39.7110 O.co2 115  GLU115     -0.2457
     72  N         49.8690   42.3270   38.4230 N.am  116  MET116     -0.1963
     73  CA        48.7220   41.6970   37.7680 C.3   116  MET116      0.1736
     74  C         49.0960   40.3950   37.0560 C.2   116  MET116      0.2617
     75  O         50.2770   40.0950   36.8520 O.2   116  MET116     -0.2715
     76  CB        48.0710   42.6890   36.7890 C.3   116  MET116      0.0427
     77  CG        47.3560   43.8140   37.5300 C.3   116  MET116      0.0599
     78  SD        46.7060   45.0660   36.4370 S.3   116  MET116     -0.1393
     79  CE        45.2300   44.2410   35.8870 C.3   116  MET116      0.0692
     80  N         48.0820   39.6180   36.6860 N.am  117  SER117     -0.1936
     81  CA        48.3010   38.2460   36.2360 C.3   117  SER117      0.2055
     82  C         48.5520   38.1010   34.7310 C.2   117  SER117      0.2643
     83  O         49.0330   37.0650   34.2690 O.2   117  SER117     -0.2714
     84  CB        47.0740   37.3930   36.6130 C.3   117  SER117      0.2130
     85  OG        45.9000   37.9370   36.0300 O.3   117  SER117     -0.2179
     86  N         48.1470   39.1020   33.9520 N.am  118  HIS118     -0.1973
     87  CA        48.1710   38.9810   32.4940 C.3   118  HIS118      0.1656
     88  C         49.5640   39.3100   31.9170 C.2   118  HIS118      0.2291
     89  O         50.4000   39.9230   32.5870 O.2   118  HIS118     -0.2864
     90  CB        47.0790   39.9180   31.9470 C.3   118  HIS118      0.0771
     91  CG        47.3790   41.3610   32.1820 C.ar  118  HIS118      0.0820
     92  ND1       47.4180   41.9230   33.4440 N.ar  118  HIS118     -0.2267
     93  CD2       47.7160   42.3490   31.3170 C.ar  118  HIS118      0.1154
     94  CE1       47.7620   43.1960   33.3420 C.ar  118  HIS118      0.1986
     95  NE2       47.9180   43.4890   32.0620 N.ar  118  HIS118     -0.2212
     96  N         46.0480   41.9060   46.5920 N.3   145  VAL145     -0.1231
     97  CA        45.7550   41.0320   45.4440 C.3   145  VAL145      0.1692
     98  C         47.0680   40.8100   44.6960 C.2   145  VAL145      0.2593
     99  O         47.8320   41.7450   44.4460 O.2   145  VAL145     -0.2718
    100  CB        44.7640   41.7110   44.4700 C.3   145  VAL145      0.0266
    101  CG1       44.3920   40.7430   43.3400 C.3   145  VAL145      0.0020
    102  CG2       43.5420   42.2360   45.2020 C.3   145  VAL145      0.0020
    103  N         47.3620   39.5540   44.3470 N.am  146  GLY146     -0.1943
    104  CA        48.5940   39.2400   43.6410 C.3   146  GLY146      0.1998
    105  C         48.3370   38.0830   42.6870 C.2   146  GLY146      0.2480
    106  O         47.3280   37.4040   42.8080 O.2   146  GLY146     -0.2729
    107  N         49.2610   37.8640   41.7400 N.am  147  PRO147     -0.2726
    108  CA        48.9740   37.0430   40.5420 C.3   147  PRO147      0.1402
    109  C         49.1680   35.5070   40.6200 C.2   147  PRO147      0.2269
    110  O         50.2810   35.0260   40.8090 O.2   147  PRO147     -0.2865
    111  CB        49.9380   37.6480   39.5100 C.3   147  PRO147      0.0296
    112  CG        51.1380   38.0180   40.3300 C.3   147  PRO147      0.0237
    113  CD        50.6050   38.4730   41.6890 C.3   147  PRO147      0.0939
    114  N         43.8350   36.2410   41.7400 N.3   170  PRO170     -0.2102
    115  CA        43.1670   35.9040   40.4740 C.3   170  PRO170      0.1504
    116  C         44.1360   35.3670   39.4290 C.2   170  PRO170      0.2576
    117  O         45.3640   35.4560   39.5830 O.2   170  PRO170     -0.2718
    118  CB        42.5860   37.2560   40.0310 C.3   170  PRO170      0.0282
    119  CG        43.6310   38.2390   40.5070 C.3   170  PRO170      0.0208
    120  CD        44.2340   37.6590   41.7910 C.3   170  PRO170      0.0893
    121  N         43.5680   34.8330   38.3470 N.am  171  GLY171     -0.1943
    122  CA        44.3620   34.2390   37.2850 C.3   171  GLY171      0.2014
    123  C         44.3570   32.7190   37.3400 C.2   171  GLY171      0.2638
    124  O         45.1850   32.0930   36.6730 O.2   171  GLY171     -0.2714
    125  N         43.4570   32.1530   38.1480 N.am  172  VAL172     -0.1977
    126  CA        43.3550   30.6970   38.3380 C.3   172  VAL172      0.1596
    127  C         42.4340   30.1270   37.2760 C.2   172  VAL172      0.2287
    128  O         41.3220   30.6260   37.0790 O.2   172  VAL172     -0.2864
    129  CB        42.8040   30.3340   39.7330 C.3   172  VAL172      0.0276
    130  CG1       42.5950   28.8260   39.8670 C.3   172  VAL172      0.0022
    131  CG2       43.7370   30.8330   40.8460 C.3   172  VAL172      0.0022
    132  N         41.3920   29.8500   33.7500 N.3   174  ALA174     -0.1231
    133  CA        41.4220   30.4060   32.3980 C.3   174  ALA174      0.1694
    134  C         42.7690   31.0260   32.0580 C.2   174  ALA174      0.2591
    135  O         43.2450   30.8500   30.9340 O.2   174  ALA174     -0.2718
    136  CB        40.2890   31.4120   32.1750 C.3   174  ALA174      0.0304
    137  N         43.3450   31.8000   32.9820 N.am  175  GLN175     -0.1979
    138  CA        44.5870   32.5100   32.6790 C.3   175  GLN175      0.1601
    139  C         45.8340   31.6450   32.8640 C.2   175  GLN175      0.2287
    140  O         46.9390   32.0800   32.5570 O.2   175  GLN175     -0.2864
    141  CB        44.7310   33.7700   33.5340 C.3   175  GLN175      0.0394
    142  CG        43.6060   34.7720   33.2560 C.3   175  GLN175      0.0908
    143  CD        43.7840   36.0450   34.1030 C.2   175  GLN175      0.2608
    144  OE1       44.8420   36.6790   34.0580 O.2   175  GLN175     -0.2717
    145  NE2       42.7510   36.4080   34.8900 N.am  175  GLN175     -0.0878
    146  N         40.7010   33.5600   43.4520 N.3   190  ILE190     -0.1231
    147  CA        39.5740   34.0810   42.6890 C.3   190  ILE190      0.1692
    148  C         39.4390   33.2830   41.3910 C.2   190  ILE190      0.2592
    149  O         40.4250   33.0900   40.6700 O.2   190  ILE190     -0.2718
    150  CB        39.8450   35.5560   42.3330 C.3   190  ILE190      0.0266
    151  CG1       39.8030   36.4120   43.6070 C.3   190  ILE190      0.0019
    152  CG2       38.8240   36.0810   41.2930 C.3   190  ILE190      0.0020
    153  CD1       40.5350   37.7350   43.4060 C.3   190  ILE190      0.0001
    154  N         38.2250   32.8240   41.0890 N.am  191  VAL191     -0.1966
    155  CA        37.9900   32.0440   39.8560 C.3   191  VAL191      0.1727
    156  C         36.7540   32.5750   39.1270 C.2   191  VAL191      0.2617
    157  O         35.6930   32.6650   39.7390 O.2   191  VAL191     -0.2715
    158  CB        37.8020   30.5350   40.1630 C.3   191  VAL191      0.0290
    159  CG1       37.5710   29.7680   38.8820 C.3   191  VAL191      0.0023
    160  CG2       39.0610   29.9780   40.8020 C.3   191  VAL191      0.0023
    161  N         36.9100   32.9390   37.8480 N.am  192  GLY192     -0.1940
    162  CA        35.8020   33.4550   37.0370 C.3   192  GLY192      0.2014
    163  C         35.3730   32.4230   36.0110 C.2   192  GLY192      0.2639
    164  O         34.5760   31.5360   36.3060 O.2   192  GLY192     -0.2714
    165  N         35.9330   32.5480   34.8160 N.am  193  ARG193     -0.1963
    166  CA        35.4760   31.7700   33.6500 C.3   193  ARG193      0.1729
    167  C         35.4930   30.2580   33.8550 C.2   193  ARG193      0.2616
    168  O         34.5980   29.5820   33.3310 O.2   193  ARG193     -0.2715
    169  CB        36.3260   32.1450   32.4380 C.3   193  ARG193      0.0348
    170  CG        35.9520   33.5080   31.8780 C.3   193  ARG193      0.0492
    171  CD        37.0110   33.9700   30.8770 C.3   193  ARG193      0.2205
    172  NE        38.2430   34.3740   31.5780 N.pl3 193  ARG193     -0.0865
    173  CZ        39.3900   34.6960   30.9940 C.cat 193  ARG193      0.5346
    174  NH1       39.5200   34.6280   29.6550 N.pl3 193  ARG193      0.1354
    175  NH2       40.4290   35.0660   31.7490 N.pl3 193  ARG193      0.1354
    176  N         36.5090   29.7220   34.5340 N.am  194  SER194     -0.1950
    177  CA        36.5590   28.2670   34.7960 C.3   194  SER194      0.1924
    178  C         35.2900   27.7480   35.4700 C.2   194  SER194      0.2314
    179  O         34.9200   26.5620   35.3120 O.2   194  SER194     -0.2863
    180  CB        37.7870   27.8870   35.6450 C.3   194  SER194      0.2116
    181  OG        38.9510   28.0160   34.8580 O.3   194  SER194     -0.2180
    182  N         32.1450   30.1100   35.6400 N.3   196  TYR196     -0.1241
    183  CA        30.9150   30.6630   35.0770 C.3   196  TYR196      0.1605
    184  C         30.6720   30.3570   33.6010 C.2   196  TYR196      0.2264
    185  O         29.5430   30.5280   33.1450 O.2   196  TYR196     -0.2867
    186  CB        30.7000   32.1630   35.4120 C.3   196  TYR196      0.0534
    187  CG        31.6000   33.1740   34.6940 C.ar  196  TYR196     -0.0201
    188  CD1       31.4800   33.4090   33.3160 C.ar  196  TYR196     -0.0009
    189  CD2       32.5360   33.9270   35.4120 C.ar  196  TYR196     -0.0009
    190  CE1       32.3030   34.3500   32.6650 C.ar  196  TYR196      0.0417
    191  CE2       33.3440   34.8840   34.7790 C.ar  196  TYR196      0.0417
    192  CZ        33.2370   35.0780   33.4100 C.ar  196  TYR196      0.1957
    193  OH        34.0410   36.0080   32.7850 O.3   196  TYR196     -0.2866
@<TRIPOS>BOND
     1   174   173    1
     2   171   172    1
     3   171   170    1
     4   135   134    2
     5   173   172    2
     6   173   175    1
     7    93    95   ar
     8    93    91   ar
     9   170   169    1
    10    88    87    1
    11    88    89    2
    12    90    91    1
    13    90    87    1
    14   134   133    1
    15   134   137   am
    16    95    94   ar
    17   136   133    1
    18    91    92   ar
    19   133   132    1
    20   169   166    1
    21    87    86    1
    22   140   139    2
    23   190   188   ar
    24   190   192   ar
    25   138   139    1
    26   138   137    1
    27   138   141    1
    28   193   192    1
    29     9     8    2
    30   185   184    2
    31   142   141    1
    32   142   143    1
    33   188   187   ar
    34   168   167    2
    35    94    92   ar
    36   192   191   ar
    37   184   183    1
    38   166   167    1
    39   166   165    1
    40   167   176   am
    41    86    82   am
    42     8     7    1
    43   144   143    2
    44   143   145   am
    45    83    82    2
    46   176   177    1
    47   187   189   ar
    48   187   186    1
    49    10     7    1
    50    10    11    1
    51    82    81    1
    52   191   189   ar
    53   177   178    1
    54   177   180    1
    55   165   163   am
    56   181   180    1
    57   183   186    1
    58   183   182    1
    59     7     6    1
    60   179   178    2
    61    11    13   ar
    62    11    12   ar
    63    79    78    1
    64   163   164    2
    65   163   162    1
    66    85    84    1
    67    81    84    1
    68    81    80    1
    69    78    77    1
    70   124   123    2
    71    80    74   am
    72    76    77    1
    73    76    73    1
    74    75    74    2
    75   162   161    1
    76    74    73    1
    77   128   127    2
    78   127   126    1
    79   122   123    1
    80   122   121    1
    81   123   125   am
    82    73    72    1
    83    70    69   ar
    84   161   156   am
    85    37    38    1
    86    37    36    1
    87     4     3    2
    88   125   126    1
    89    38    39    1
    90   126   129    1
    91   121   116   am
    92    72    65   am
    93    35    36    1
    94    35    32    1
    95    69    68    1
    96    69    71   ar
    97    68    67    1
    98   159   158    1
    99     3     2    1
   100   156   157    2
   101   156   155    1
   102     5     2    1
   103    34    33    2
   104   116   117    2
   105   116   115    1
   106   111   112    1
   107   111   108    1
   108    26    25    2
   109    65    64    1
   110    65    66    2
   111    22    21    1
   112   129   130    1
   113   129   131    1
   114   155   158    1
   115   155   154    1
   116     2     1    1
   117    30    28   ar
   118   118   115    1
   119   118   119    1
   120    32    33    1
   121    32    31    1
   122   158   160    1
   123    67    64    1
   124    64    63    1
   125   112   113    1
   126   115   114    1
   127    28    29   ar
   128    28    27    1
   129   119   120    1
   130   108   109    1
   131   108   107    1
   132   109   110    2
   133   149   148    2
   134    25    24    1
   135    21    20    1
   136    27    24    1
   137    54    53    1
   138   154   148   am
   139    17    16    2
   140   152   150    1
   141   148   147    1
   142    55    53    1
   143    59    58    2
   144    63    58   am
   145   113   107    1
   146    24    23    1
   147   107   105   am
   148   114   120    1
   149    53    52    1
   150    58    57    1
   151    20    19    1
   152    16    15    1
   153   150   147    1
   154   150   151    1
   155    52    49    1
   156    19    18    1
   157   105   106    2
   158   105   104    1
   159   147   146    1
   160    18    15    1
   161    46    44    1
   162   101   100    1
   163    56    57    1
   164    56    50   am
   165    15    14    1
   166   153   151    1
   167    57    60    1
   168    43    42    2
   169    51    50    2
   170    50    49    1
   171   104   103    1
   172    49    48    1
   173    47    45    1
   174    44    45    1
   175    44    41    1
   176    61    60    1
   177    42    41    1
   178   103    98   am
   179    99    98    2
   180   100   102    1
   181   100    97    1
   182    60    62    1
   183    98    97    1
   184    41    40    1
   185    97    96    1
