@<TRIPOS>MOLECULE
tmp/3sefB00.pdb
 196 189 0 0 0
SMALL
GASTEIGER

@<TRIPOS>ATOM
      1  N        -25.7140   20.9120    4.6000 N.3    59  VAL59      -0.1245
      2  CA       -25.0380   22.0040    5.2730 C.3    59  VAL59       0.1561
      3  C        -24.7780   23.0410    4.1830 C.2    59  VAL59       0.2260
      4  O        -24.5930   22.6780    3.0190 O.2    59  VAL59      -0.2867
      5  CB       -23.6730   21.5870    5.8870 C.3    59  VAL59       0.0252
      6  CG1      -23.8480   20.4960    6.9420 C.3    59  VAL59       0.0019
      7  CG2      -22.7080   21.1210    4.8050 C.3    59  VAL59       0.0019
      8  N        -15.3220   16.0920   18.3600 N.3   123  GLY123     -0.1210
      9  CA       -15.9720   17.1930   17.6690 C.3   123  GLY123      0.1956
     10  C        -17.1200   17.7320   18.4980 C.2   123  GLY123      0.2612
     11  O        -17.7050   17.0120   19.3110 O.2   123  GLY123     -0.2717
     12  N        -17.4370   19.0070   18.2940 N.am  124  ALA124     -0.1965
     13  CA       -18.5210   19.6580   19.0240 C.3   124  ALA124      0.1728
     14  C        -19.3430   20.5890   18.1230 C.2   124  ALA124      0.2617
     15  O        -19.9700   21.5260   18.6090 O.2   124  ALA124     -0.2715
     16  CB       -17.9600   20.4270   20.2130 C.3   124  ALA124      0.0334
     17  N        -19.3430   20.3240   16.8170 N.am  125  GLY125     -0.1940
     18  CA       -20.0900   21.1340   15.8580 C.3   125  GLY125      0.2014
     19  C        -21.4830   20.5620   15.6380 C.2   125  GLY125      0.2639
     20  O        -21.9990   19.8290   16.4830 O.2   125  GLY125     -0.2714
     21  N        -22.0900   20.8990   14.5010 N.am  126  GLY126     -0.1939
     22  CA       -23.4310   20.4190   14.1550 C.3   126  GLY126      0.2014
     23  C        -23.5300   18.9080   14.0110 C.2   126  GLY126      0.2638
     24  O        -24.5140   18.2990   14.4370 O.2   126  GLY126     -0.2714
     25  N        -22.5130   18.2990   13.4050 N.am  127  ALA127     -0.1977
     26  CA       -22.4910   16.8500   13.2130 C.3   127  ALA127      0.1597
     27  C        -22.5190   16.1500   14.5650 C.2   127  ALA127      0.2287
     28  O        -23.3000   15.2240   14.7810 O.2   127  ALA127     -0.2864
     29  CB       -21.2600   16.4370   12.4310 C.3   127  ALA127      0.0319
     30  N        -13.2520   18.2330   21.9810 N.3   147  ASN147     -0.1225
     31  CA       -13.1710   19.1110   20.8210 C.3   147  ASN147      0.1785
     32  C        -11.9680   20.0480   20.9370 C.2   147  ASN147      0.2597
     33  O        -11.5300   20.3660   22.0430 O.2   147  ASN147     -0.2718
     34  CB       -14.4360   19.9760   20.7360 C.3   147  ASN147      0.1169
     35  CG       -14.4760   20.8470   19.4850 C.2   147  ASN147      0.2627
     36  OD1      -13.9420   20.4750   18.4450 O.2   147  ASN147     -0.2716
     37  ND2      -15.1670   21.9750   19.5650 N.am  147  ASN147     -0.0877
     38  N        -11.4400   20.4850   19.7960 N.am  148  ARG148     -0.1966
     39  CA       -10.2930   21.3940   19.7700 C.3   148  ARG148      0.1729
     40  C        -10.6150   22.5870   20.6480 C.2   148  ARG148      0.2616
     41  O         -9.7980   23.0140   21.4550 O.2   148  ARG148     -0.2715
     42  CB        -9.9910   21.8130   18.3320 C.3   148  ARG148      0.0348
     43  CG        -8.8320   22.7700   18.1670 C.3   148  ARG148      0.0492
     44  CD        -8.6070   23.0830   16.6960 C.3   148  ARG148      0.2205
     45  NE        -9.7860   23.6770   16.0690 N.pl3 148  ARG148     -0.0865
     46  CZ        -9.8510   24.0370   14.7910 C.cat 148  ARG148      0.5346
     47  NH1       -8.8030   23.8700   13.9910 N.pl3 148  ARG148      0.1354
     48  NH2      -10.9670   24.5680   14.3070 N.pl3 148  ARG148      0.1354
     49  N        -11.8220   23.1120   20.4780 N.am  149  THR149     -0.1951
     50  CA       -12.2940   24.2450   21.2520 C.3   149  THR149      0.1897
     51  C        -13.0560   23.6490   22.4330 C.2   149  THR149      0.2313
     52  O        -14.2690   23.4590   22.3590 O.2   149  THR149     -0.2863
     53  CB       -13.2400   25.1390   20.4300 C.3   149  THR149      0.1794
     54  OG1      -12.5570   25.6390   19.2710 O.3   149  THR149     -0.2208
     55  CG2      -13.7280   26.2970   21.2710 C.3   149  THR149      0.0378
     56  N        -16.7460   24.5770   23.5790 N.3   152  LYS152     -0.1245
     57  CA       -17.8720   24.0700   22.7940 C.3   152  LYS152      0.1561
     58  C        -18.2470   22.6450   23.2010 C.2   152  LYS152      0.2260
     59  O        -19.3990   22.2390   23.0690 O.2   152  LYS152     -0.2867
     60  CB       -17.5580   24.1370   21.2940 C.3   152  LYS152      0.0271
     61  CG       -17.3220   25.5580   20.7790 C.3   152  LYS152      0.0035
     62  CD       -16.9480   25.6140   19.2940 C.3   152  LYS152      0.0206
     63  CE       -18.0190   25.0470   18.3760 C.3   152  LYS152      0.1093
     64  NZ       -17.6000   25.1300   16.9490 N.3   152  LYS152     -0.1314
     65  N         -8.5510   17.6840   24.4520 N.3   171  PHE171     -0.1241
     66  CA        -7.7370   16.6030   23.8900 C.3   171  PHE171      0.1605
     67  C         -6.5260   16.3110   24.7580 C.2   171  PHE171      0.2264
     68  O         -6.0890   15.1630   24.8740 O.2   171  PHE171     -0.2867
     69  CB        -7.2230   16.8740   22.4760 C.3   171  PHE171      0.0534
     70  CG        -8.2860   17.2070   21.4810 C.ar  171  PHE171     -0.0203
     71  CD1       -9.5700   16.7200   21.6350 C.ar  171  PHE171     -0.0042
     72  CD2       -7.9590   17.8420   20.2980 C.ar  171  PHE171     -0.0042
     73  CE1      -10.5400   16.9830   20.6970 C.ar  171  PHE171     -0.0003
     74  CE2       -8.9180   18.0840   19.3490 C.ar  171  PHE171     -0.0003
     75  CZ       -10.2110   17.6560   19.5480 C.ar  171  PHE171     -0.0000
     76  N        -15.4130   10.0480   15.1040 N.3   183  ASN183     -0.1225
     77  CA       -14.8540   11.3110   14.6270 C.3   183  ASN183      0.1785
     78  C        -15.8920   12.0920   13.8290 C.2   183  ASN183      0.2598
     79  O        -16.2880   11.6650   12.7440 O.2   183  ASN183     -0.2718
     80  CB       -13.6350   11.0420   13.7410 C.3   183  ASN183      0.1169
     81  CG       -12.9900   12.3180   13.2220 C.2   183  ASN183      0.2627
     82  OD1      -13.2910   13.4180   13.6790 O.2   183  ASN183     -0.2716
     83  ND2      -12.0770   12.1670   12.2740 N.am  183  ASN183     -0.0877
     84  N        -16.3250   13.2350   14.3590 N.am  184  SER184     -0.1938
     85  CA       -17.3220   14.0590   13.6780 C.3   184  SER184      0.2055
     86  C        -16.7450   15.3890   13.2080 C.2   184  SER184      0.2644
     87  O        -17.5020   16.2870   12.8450 O.2   184  SER184     -0.2714
     88  CB       -18.5080   14.3510   14.6050 C.3   184  SER184      0.2130
     89  OG       -18.1110   15.1090   15.7360 O.3   184  SER184     -0.2179
     90  N        -15.4180   15.5080   13.1940 N.am  185  THR185     -0.1936
     91  CA       -14.7590   16.7480   12.7730 C.3   185  THR185      0.2028
     92  C        -14.5620   16.8500   11.2610 C.2   185  THR185      0.2643
     93  O        -14.8790   15.9230   10.5190 O.2   185  THR185     -0.2714
     94  CB       -13.3740   16.8980   13.4490 C.3   185  THR185      0.1808
     95  OG1      -12.4890   15.8670   12.9970 O.3   185  THR185     -0.2208
     96  CG2      -13.5070   16.8510   14.9710 C.3   185  THR185      0.0379
     97  N        -14.0360   17.9950   10.8250 N.am  186  SER186     -0.1935
     98  CA       -13.7700   18.2770    9.4120 C.3   186  SER186      0.2055
     99  C        -12.3290   17.9470    9.0370 C.2   186  SER186      0.2642
    100  O        -11.9310   18.1230    7.8880 O.2   186  SER186     -0.2714
    101  CB       -13.9850   19.7710    9.1180 C.3   186  SER186      0.2130
    102  OG       -15.3040   20.1970    9.4120 O.3   186  SER186     -0.2179
    103  N        -11.5500   17.4710   10.0040 N.am  187  ALA187     -0.1977
    104  CA       -10.1440   17.1250    9.7770 C.3   187  ALA187      0.1597
    105  C         -9.8750   16.2230    8.5650 C.2   187  ALA187      0.2287
    106  O         -9.1040   16.6020    7.6860 O.2   187  ALA187     -0.2864
    107  CB        -9.5390   16.5080   11.0430 C.3   187  ALA187      0.0319
    108  N        -11.5340   15.6340    5.9170 N.3   189  LEU189     -0.1231
    109  CA       -11.8280   16.3200    4.6560 C.3   189  LEU189      0.1693
    110  C        -10.6020   17.1270    4.2220 C.2   189  LEU189      0.2592
    111  O        -10.2390   17.1410    3.0480 O.2   189  LEU189     -0.2718
    112  CB       -13.0170   17.2810    4.7980 C.3   189  LEU189      0.0284
    113  CG       -14.4050   16.7510    5.1620 C.3   189  LEU189      0.0019
    114  CD1      -15.3900   17.9040    5.3710 C.3   189  LEU189      0.0001
    115  CD2      -14.9110   15.8050    4.0860 C.3   189  LEU189      0.0001
    116  N         -9.9690   17.7850    5.1910 N.am  190  ASP190     -0.1974
    117  CA        -8.7850   18.6070    4.9400 C.3   190  ASP190      0.1709
    118  C         -7.4730   17.8140    4.8900 C.2   190  ASP190      0.2293
    119  O         -6.4260   18.3690    4.5690 O.2   190  ASP190     -0.2864
    120  CB        -8.6940   19.7050    6.0060 C.3   190  ASP190      0.1436
    121  CG        -9.9090   20.6160    6.0050 C.2   190  ASP190      0.3671
    122  OD1      -10.7660   20.4640    5.1100 O.co2 190  ASP190     -0.2456
    123  OD2      -10.0080   21.4860    6.8940 O.co2 190  ASP190     -0.2456
    124  N         -6.0090   16.2770    7.5110 N.3   192  GLU192     -0.1231
    125  CA        -5.2640   16.5140    8.7470 C.3   192  GLU192      0.1699
    126  C         -5.9450   15.8100    9.9170 C.2   192  GLU192      0.2592
    127  O         -7.1360   15.4980    9.8590 O.2   192  GLU192     -0.2718
    128  CB        -5.1250   18.0200    9.0110 C.3   192  GLU192      0.0402
    129  CG        -6.4440   18.7730    9.1230 C.3   192  GLU192      0.1161
    130  CD        -6.2620   20.2740    9.3530 C.2   192  GLU192      0.3649
    131  OE1       -5.1110   20.7400    9.4920 O.co2 192  GLU192     -0.2457
    132  OE2       -7.2870   20.9890    9.3970 O.co2 192  GLU192     -0.2457
    133  N         -5.1790   15.5590   10.9740 N.am  193  LEU193     -0.1966
    134  CA        -5.6910   14.8850   12.1630 C.3   193  LEU193      0.1713
    135  C         -5.8570   15.8290   13.3550 C.2   193  LEU193      0.2458
    136  O         -5.1440   16.8290   13.4690 O.2   193  LEU193     -0.2730
    137  CB        -4.7250   13.7670   12.5590 C.3   193  LEU193      0.0310
    138  CG        -4.4730   12.6440   11.5460 C.3   193  LEU193      0.0022
    139  CD1       -3.3800   11.7070   12.0440 C.3   193  LEU193      0.0001
    140  CD2       -5.7520   11.8760   11.2390 C.3   193  LEU193      0.0001
    141  N         -6.8070   15.5160   14.2500 N.am  194  PRO194     -0.2716
    142  CA        -7.0170   16.3530   15.4240 C.3   194  PRO194      0.1536
    143  C         -5.8520   16.1240   16.3860 C.2   194  PRO194      0.2598
    144  O         -5.3540   15.0000   16.4780 O.2   194  PRO194     -0.2715
    145  CB        -8.3190   15.8110   16.0070 C.3   194  PRO194      0.0310
    146  CG        -8.3520   14.3890   15.5870 C.3   194  PRO194      0.0237
    147  CD        -7.7190   14.3580   14.2270 C.3   194  PRO194      0.0939
    148  N         -5.4190   17.1690   17.0870 N.am  195  ALA195     -0.1978
    149  CA        -4.3030   17.0590   18.0290 C.3   195  ALA195      0.1597
    150  C         -4.6920   16.2680   19.2740 C.2   195  ALA195      0.2287
    151  O         -4.7030   16.8010   20.3810 O.2   195  ALA195     -0.2864
    152  CB        -3.8060   18.4420   18.4130 C.3   195  ALA195      0.0319
    153  N        -15.4490    7.0970   11.3850 N.3   209  ASP209     -0.1225
    154  CA       -15.2230    8.4430   10.8840 C.3   209  ASP209      0.1805
    155  C        -16.4210    8.7930    9.9970 C.2   209  ASP209      0.2598
    156  O        -16.7970    8.0090    9.1260 O.2   209  ASP209     -0.2718
    157  CB       -13.9160    8.4940   10.0920 C.3   209  ASP209      0.1424
    158  CG       -13.5770    9.8880    9.6010 C.2   209  ASP209      0.3668
    159  OD1      -14.2970   10.8440    9.9550 O.co2 209  ASP209     -0.2456
    160  OD2      -12.5690   10.0300    8.8760 O.co2 209  ASP209     -0.2456
    161  N        -17.0260    9.9590   10.2130 N.am  210  MET210     -0.1965
    162  CA       -18.1860   10.3650    9.4070 C.3   210  MET210      0.1736
    163  C        -17.8430   10.7440    7.9660 C.2   210  MET210      0.2616
    164  O        -18.7190   10.7550    7.1040 O.2   210  MET210     -0.2715
    165  CB       -18.9410   11.5310   10.0620 C.3   210  MET210      0.0427
    166  CG       -19.5180   11.2260   11.4280 C.3   210  MET210      0.0599
    167  SD       -20.4370   12.6170   12.1340 S.3   210  MET210     -0.1393
    168  CE       -20.9540   11.8870   13.6860 C.3   210  MET210      0.0692
    169  N        -16.5760   11.0390    7.7020 N.am  211  MET211     -0.1963
    170  CA       -16.1600   11.4200    6.3670 C.3   211  MET211      0.1736
    171  C        -15.8850   10.0850    5.6550 C.2   211  MET211      0.2616
    172  O        -15.6120    9.0790    6.3140 O.2   211  MET211     -0.2715
    173  CB       -14.9130   12.3020    6.4880 C.3   211  MET211      0.0427
    174  CG       -14.5100   13.1290    5.2560 C.3   211  MET211      0.0599
    175  SD       -14.0950   12.3560    3.6990 S.3   211  MET211     -0.1393
    176  CE       -12.6840   11.3550    4.1910 C.3   211  MET211      0.0692
    177  N        -15.9930   10.0460    4.3300 N.am  212  TYR212     -0.1974
    178  CA       -15.7420    8.8010    3.5950 C.3   212  TYR212      0.1639
    179  C        -15.0100    9.0310    2.2800 C.2   212  TYR212      0.2290
    180  O        -14.8740   10.1640    1.8220 O.2   212  TYR212     -0.2864
    181  CB       -17.0510    8.0520    3.3140 C.3   212  TYR212      0.0560
    182  CG       -18.0600    8.8260    2.4960 C.ar  212  TYR212     -0.0198
    183  CD1      -19.0710    9.5520    3.1070 C.ar  212  TYR212     -0.0009
    184  CD2      -17.9890    8.8420    1.1050 C.ar  212  TYR212     -0.0009
    185  CE1      -19.9910   10.2590    2.3590 C.ar  212  TYR212      0.0417
    186  CE2      -18.9010    9.5440    0.3490 C.ar  212  TYR212      0.0417
    187  CZ       -19.9010   10.2530    0.9780 C.ar  212  TYR212      0.1957
    188  OH       -20.8110   10.9590    0.2200 O.3   212  TYR212     -0.2866
    189  N        -24.5980    7.8710    5.6540 N.3   238  LEU238     -0.1245
    190  CA       -25.3260    8.5610    4.5780 C.3   238  LEU238      0.1561
    191  C        -26.5490    7.7520    4.1340 C.2   238  LEU238      0.2260
    192  O        -27.6530    8.2740    4.0360 O.2   238  LEU238     -0.2867
    193  CB       -24.4080    8.7730    3.3680 C.3   238  LEU238      0.0270
    194  CG       -24.9870    9.4350    2.1060 C.3   238  LEU238      0.0019
    195  CD1      -25.4710   10.8510    2.3760 C.3   238  LEU238      0.0001
    196  CD2      -23.9500    9.4520    0.9870 C.3   238  LEU238      0.0001
@<TRIPOS>BOND
     1   188   187    1
     2   186   187   ar
     3   186   184   ar
     4   187   185   ar
     5   196   194    1
     6   184   182   ar
     7   180   179    2
     8   194   195    1
     9   194   193    1
    10   179   178    1
    11   185   183   ar
    12   182   183   ar
    13   182   181    1
    14     4     3    2
    15   111   110    2
    16   181   178    1
    17   193   190    1
    18   178   177    1
    19   175   176    1
    20   175   174    1
    21   192   191    2
    22   115   113    1
    23   191   190    1
    24     3     2    1
    25   110   109    1
    26   110   116   am
    27   177   171   am
    28   119   118    2
    29   190   189    1
    30     1     2    1
    31   109   112    1
    32   109   108    1
    33   112   113    1
    34     7     5    1
    35   118   117    1
    36   117   116    1
    37   117   120    1
    38   122   121   ar
    39   113   114    1
    40   174   173    1
    41     2     5    1
    42   171   172    2
    43   171   170    1
    44     5     6    1
    45   121   120    1
    46   121   123   ar
    47   170   173    1
    48   170   169    1
    49   164   163    2
    50   124   125    1
    51   106   105    2
    52   169   163   am
    53   100    99    2
    54   163   162    1
    55   105   104    1
    56   125   128    1
    57   125   126    1
    58   160   158   ar
    59   128   129    1
    60    99    98    1
    61    99   103   am
    62   101    98    1
    63   101   102    1
    64   129   130    1
    65   156   155    2
    66   130   132   ar
    67   130   131   ar
    68   162   165    1
    69   162   161    1
    70    98    97    1
    71   158   159   ar
    72   158   157    1
    73   104   103    1
    74   104   107    1
    75   127   126    2
    76   126   133   am
    77   155   161   am
    78   155   154    1
    79   165   166    1
    80   157   154    1
    81    93    92    2
    82    97    92   am
    83   154   153    1
    84   133   134    1
    85   140   138    1
    86    92    91    1
    87   166   167    1
    88   138   139    1
    89   138   137    1
    90   167   168    1
    91   134   137    1
    92   134   135    1
    93    83    81   am
    94    29    26    1
    95    79    78    2
    96    91    90    1
    97    91    94    1
    98    87    86    2
    99    95    94    1
   100    90    86   am
   101    86    85    1
   102    26    25    1
   103    26    27    1
   104    81    82    2
   105    81    80    1
   106   135   136    2
   107   135   141   am
   108    25    23   am
   109    94    96    1
   110    85    84    1
   111    85    88    1
   112    80    77    1
   113    78    84   am
   114    78    77    1
   115    47    46    1
   116    23    22    1
   117    23    24    2
   118    22    21    1
   119   147   141    1
   120   147   146    1
   121   141   142    1
   122    48    46    1
   123    21    19   am
   124    27    28    2
   125    88    89    1
   126    77    76    1
   127    46    45    2
   128   142   145    1
   129   142   143    1
   130   146   145    1
   131    19    18    1
   132    19    20    2
   133    18    17    1
   134    45    44    1
   135   143   144    2
   136   143   148   am
   137    44    43    1
   138    17    14   am
   139    64    63    1
   140   148   149    1
   141     9     8    1
   142     9    10    1
   143   149   152    1
   144   149   150    1
   145    14    15    2
   146    14    13    1
   147    43    42    1
   148    12    10   am
   149    12    13    1
   150    42    39    1
   151    63    62    1
   152    36    35    2
   153    10    11    2
   154    13    16    1
   155    54    53    1
   156   150   151    2
   157    62    61    1
   158    74    75   ar
   159    74    72   ar
   160    35    37   am
   161    35    34    1
   162    75    73   ar
   163    39    38    1
   164    39    40    1
   165    38    32   am
   166    72    70   ar
   167    53    50    1
   168    53    55    1
   169    49    40   am
   170    49    50    1
   171    40    41    2
   172    73    71   ar
   173    34    31    1
   174    61    60    1
   175    31    32    1
   176    31    30    1
   177    32    33    2
   178    50    51    1
   179    60    57    1
   180    70    71   ar
   181    70    69    1
   182    52    51    2
   183    69    66    1
   184    57    58    1
   185    57    56    1
   186    59    58    2
   187    66    65    1
   188    66    67    1
   189    67    68    2
