@<TRIPOS>MOLECULE
tmp/3selA00.pdb
 123 120 0 0 0
SMALL
GASTEIGER

@<TRIPOS>ATOM
      1  N         36.4340   19.7260   18.8980 N.3     1  ALA1       -0.1231
      2  CA        35.3780   20.2230   19.8150 C.3     1  ALA1        0.1694
      3  C         34.0530   19.8810   19.1890 C.2     1  ALA1        0.2592
      4  O         33.9930   19.4680   18.0360 O.2     1  ALA1       -0.2718
      5  CB        35.4920   21.6900   20.0210 C.3     1  ALA1        0.0304
      6  N         32.9990   20.0210   19.9640 N.am    2  ASP2       -0.1960
      7  CA        31.6930   19.6020   19.5340 C.3     2  ASP2        0.1840
      8  C         30.9900   20.7910   18.9610 C.2     2  ASP2        0.2622
      9  O         31.2820   21.9200   19.3490 O.2     2  ASP2       -0.2715
     10  CB        30.9040   19.0660   20.7230 C.3     2  ASP2        0.1450
     11  CG        31.4350   17.7670   21.2010 C.2     2  ASP2        0.3671
     12  OD1       31.5700   16.8730   20.3250 O.co2   2  ASP2       -0.2456
     13  OD2       31.7670   17.5610   22.4060 O.co2   2  ASP2       -0.2456
     14  N         30.0780   20.5150   18.0300 N.am    3  ASP3       -0.1957
     15  CA        29.0740   21.4750   17.6060 C.3     3  ASP3        0.1840
     16  C         28.2140   21.9550   18.7670 C.2     3  ASP3        0.2621
     17  O         28.1150   21.2870   19.7910 O.2     3  ASP3       -0.2715
     18  CB        28.1630   20.8770   16.5410 C.3     3  ASP3        0.1450
     19  CG        28.8660   20.6910   15.2280 C.2     3  ASP3        0.3671
     20  OD1       29.9670   21.2520   15.0050 O.co2   3  ASP3       -0.2456
     21  OD2       28.3860   19.9760   14.3690 O.co2   3  ASP3       -0.2456
     22  N         27.6430   23.1420   18.6050 N.am    4  ILE4       -0.1977
     23  CA        26.8040   23.7720   19.6130 C.3     4  ILE4        0.1596
     24  C         25.3780   23.8940   19.0960 C.2     4  ILE4        0.2287
     25  O         25.1540   23.9410   17.8970 O.2     4  ILE4       -0.2864
     26  CB        27.3210   25.2120   19.8830 C.3     4  ILE4        0.0276
     27  CG1       28.6290   25.1710   20.6370 C.3     4  ILE4        0.0022
     28  CG2       26.2930   26.0820   20.6740 C.3     4  ILE4        0.0022
     29  CD1       29.2180   26.5030   20.7950 C.3     4  ILE4        0.0001
     30  N         24.4990   24.5990   15.1050 N.3    15  PHE15      -0.1241
     31  CA        25.6060   25.2380   14.4330 C.3    15  PHE15       0.1605
     32  C         26.6610   24.1650   14.0870 C.2    15  PHE15       0.2264
     33  O         27.4190   23.7490   14.9450 O.2    15  PHE15      -0.2867
     34  CB        26.2210   26.3290   15.3040 C.3    15  PHE15       0.0534
     35  CG        27.3800   26.9960   14.6370 C.ar   15  PHE15      -0.0203
     36  CD1       27.1640   27.8720   13.5760 C.ar   15  PHE15      -0.0042
     37  CD2       28.6680   26.6390   14.9660 C.ar   15  PHE15      -0.0042
     38  CE1       28.2080   28.4430   12.9130 C.ar   15  PHE15      -0.0003
     39  CE2       29.7540   27.2070   14.2900 C.ar   15  PHE15      -0.0003
     40  CZ        29.5240   28.1070   13.2690 C.ar   15  PHE15      -0.0000
     41  N         29.9980   23.2550   12.7620 N.3    17  HIS17      -0.1241
     42  CA        31.2430   23.9600   12.4990 C.3    17  HIS17       0.1621
     43  C         32.0020   23.4890   11.2280 C.2    17  HIS17       0.2264
     44  O         32.5330   24.3100   10.4980 O.2    17  HIS17      -0.2867
     45  CB        32.2170   23.8710   13.6850 C.3    17  HIS17       0.0745
     46  CG        33.4410   24.6950   13.4850 C.ar   17  HIS17       0.0817
     47  ND1       34.6670   24.1470   13.1750 N.ar   17  HIS17      -0.2268
     48  CD2       33.6170   26.0400   13.4980 C.ar   17  HIS17       0.1154
     49  CE1       35.5530   25.1210   13.0390 C.ar   17  HIS17       0.1986
     50  NE2       34.9420   26.2770   13.2380 N.ar   17  HIS17      -0.2212
     51  N         30.9460   25.1580    8.0930 N.3    20  HIS20      -0.1226
     52  CA        31.3590   26.5380    8.0800 C.3    20  HIS20       0.1752
     53  C         32.8610   26.7190    7.7750 C.2    20  HIS20       0.2595
     54  O         33.2340   27.5900    7.0160 O.2    20  HIS20      -0.2718
     55  CB        30.9540   27.2220    9.3850 C.3    20  HIS20       0.0759
     56  CG        29.4830   27.4610    9.4780 C.ar   20  HIS20       0.0818
     57  ND1       28.6210   26.5170    9.9720 N.ar   20  HIS20      -0.2268
     58  CD2       28.7080   28.4860    9.0480 C.ar   20  HIS20       0.1154
     59  CE1       27.3790   26.9560    9.8780 C.ar   20  HIS20       0.1986
     60  NE2       27.3950   28.1380    9.3010 N.ar   20  HIS20      -0.2212
     61  N         33.7010   25.9050    8.3900 N.am   21  GLN21      -0.1979
     62  CA        35.1140   25.8790    8.1040 C.3    21  GLN21       0.1601
     63  C         35.3790   25.6700    6.5930 C.2    21  GLN21       0.2287
     64  O         36.1540   26.3870    5.9860 O.2    21  GLN21      -0.2864
     65  CB        35.7210   24.7360    8.9120 C.3    21  GLN21       0.0394
     66  CG        37.1780   24.8350    9.1910 C.3    21  GLN21       0.0908
     67  CD        37.5430   24.0950   10.5070 C.2    21  GLN21       0.2608
     68  OE1       38.4270   24.5100   11.2450 O.2    21  GLN21      -0.2717
     69  NE2       36.8510   23.0190   10.7750 N.am   21  GLN21      -0.0878
     70  N         33.3950   28.8400    4.5080 N.3    24  VAL24      -0.1231
     71  CA        33.8480   30.1820    4.8140 C.3    24  VAL24       0.1678
     72  C         35.3070   30.0940    5.2660 C.2    24  VAL24       0.2434
     73  O         35.6470   30.2420    6.4560 O.2    24  VAL24      -0.2733
     74  CB        32.9710   30.8950    5.8940 C.3    24  VAL24       0.0265
     75  CG1       33.3300   32.3660    5.9800 C.3    24  VAL24       0.0020
     76  CG2       31.4780   30.7120    5.6090 C.3    24  VAL24       0.0020
     77  N         36.1760   29.8070    4.3020 N.am   25  PRO25      -0.2718
     78  CA        37.6110   29.6750    4.5790 C.3    25  PRO25       0.1535
     79  C         38.2530   30.9510    5.1270 C.2    25  PRO25       0.2599
     80  O         39.2660   30.8940    5.8140 O.2    25  PRO25      -0.2715
     81  CB        38.1990   29.2610    3.2220 C.3    25  PRO25       0.0310
     82  CG        37.1430   29.6290    2.2160 C.3    25  PRO25       0.0237
     83  CD        35.8380   29.4920    2.9030 C.3    25  PRO25       0.0939
     84  N         37.6460   32.0860    4.8770 N.am   26  ASP26      -0.1958
     85  CA        38.0170   33.2830    5.5760 C.3    26  ASP26       0.1840
     86  C         37.5980   33.2510    7.0820 C.2    26  ASP26       0.2622
     87  O         36.5420   33.7810    7.4880 O.2    26  ASP26      -0.2715
     88  CB        37.4080   34.4860    4.8730 C.3    26  ASP26       0.1450
     89  CG        37.9580   35.7760    5.4090 C.2    26  ASP26       0.3671
     90  OD1       38.8150   35.7020    6.3250 O.co2  26  ASP26      -0.2456
     91  OD2       37.5460   36.8900    5.0360 O.co2  26  ASP26      -0.2456
     92  N         38.4700   32.6840    7.9050 N.am   27  CYS27      -0.1968
     93  CA        38.1700   32.4230    9.3140 C.3    27  CYS27       0.1712
     94  C         37.8460   33.6580   10.1050 C.2    27  CYS27       0.2296
     95  O         37.0600   33.6140   11.0720 O.2    27  CYS27      -0.2864
     96  CB        39.3350   31.7110    9.9650 C.3    27  CYS27       0.0983
     97  SG        39.9030   30.2690    9.0270 S.3    27  CYS27      -0.0798
     98  N         34.5340   34.9930   11.5470 N.3    30  CYS30      -0.1221
     99  CA        34.0470   34.6510   12.8870 C.3    30  CYS30       0.1808
    100  C         35.0490   34.7160   14.0150 C.2    30  CYS30       0.2601
    101  O         34.6730   35.0010   15.1640 O.2    30  CYS30      -0.2717
    102  CB        33.4450   33.2460   12.8590 C.3    30  CYS30       0.0970
    103  SG        31.9920   33.1170   11.7630 S.3    30  CYS30      -0.0800
    104  N         36.3110   34.4380   13.7050 N.am   31  HIS31      -0.1975
    105  CA        37.3570   34.3300   14.7000 C.3    31  HIS31       0.1656
    106  C         38.2380   35.5800   14.7900 C.2    31  HIS31       0.2291
    107  O         38.2970   36.3450   13.8640 O.2    31  HIS31      -0.2864
    108  CB        38.1760   33.0770   14.3880 C.3    31  HIS31       0.0771
    109  CG        37.4150   31.8140   14.6170 C.ar   31  HIS31       0.0820
    110  ND1       36.7970   31.5320   15.8180 N.ar   31  HIS31      -0.2267
    111  CD2       37.1670   30.7540   13.8060 C.ar   31  HIS31       0.1154
    112  CE1       36.2100   30.3460   15.7340 C.ar   31  HIS31       0.1986
    113  NE2       36.4270   29.8500   14.5280 N.ar   31  HIS31      -0.2212
    114  N         24.9380   37.8300   12.1940 N.3    50  GLY50      -0.1225
    115  CA        25.3850   36.6830   12.9750 C.3    50  GLY50       0.1811
    116  C         25.0720   35.2930   12.4210 C.2    50  GLY50       0.2280
    117  O         25.8390   34.3770   12.6040 O.2    50  GLY50      -0.2866
    118  N         24.5400   36.4570    6.8830 N.3    54  CYS54      -0.1235
    119  CA        25.6440   35.8630    6.1280 C.3    54  CYS54       0.1677
    120  C         25.1490   34.8470    5.0840 C.2    54  CYS54       0.2270
    121  O         25.6240   34.8400    3.9590 O.2    54  CYS54      -0.2867
    122  CB        26.6980   35.2770    7.0350 C.3    54  CYS54       0.0956
    123  SG        28.0790   34.5520    6.0790 S.3    54  CYS54      -0.0801
@<TRIPOS>BOND
     1    82    83    1
     2    82    81    1
     3    83    77    1
     4    81    78    1
     5   121   120    2
     6    77    78    1
     7    77    72   am
     8    70    71    1
     9    78    79    1
    10    71    72    1
    11    71    74    1
    12    88    89    1
    13    88    85    1
    14    84    79   am
    15    84    85    1
    16    91    89   ar
    17   120   119    1
    18    79    80    2
    19    72    73    2
    20    89    90   ar
    21    85    86    1
    22    76    74    1
    23    74    75    1
    24    64    63    2
    25   123   122    1
    26   119   118    1
    27   119   122    1
    28    63    62    1
    29    54    53    2
    30    86    87    2
    31    86    92   am
    32    53    52    1
    33    53    61   am
    34    92    93    1
    35    52    51    1
    36    52    55    1
    37    62    61    1
    38    62    65    1
    39    65    66    1
    40    97    96    1
    41    58    60   ar
    42    58    56   ar
    43    66    67    1
    44    60    59   ar
    45    93    96    1
    46    93    94    1
    47    55    56    1
    48    56    57   ar
    49    59    57   ar
    50    94    95    2
    51    44    43    2
    52    67    69   am
    53    67    68    2
    54    43    42    1
    55    98    99    1
    56   103   102    1
    57   114   115    1
    58   116   117    2
    59   116   115    1
    60    42    41    1
    61    42    45    1
    62   102    99    1
    63    99   100    1
    64    38    40   ar
    65    38    36   ar
    66    49    47   ar
    67    49    50   ar
    68    47    46   ar
    69    50    48   ar
    70    40    39   ar
    71    46    48   ar
    72    46    45    1
    73    36    35   ar
    74   104   100   am
    75   104   105    1
    76   111   113   ar
    77   111   109   ar
    78   107   106    2
    79   100   101    2
    80    32    31    1
    81    32    33    2
    82    39    37   ar
    83    21    19   ar
    84   108   109    1
    85   108   105    1
    86    31    30    1
    87    31    34    1
    88   113   112   ar
    89   109   110   ar
    90    35    37   ar
    91    35    34    1
    92   105   106    1
    93    20    19   ar
    94    19    18    1
    95   112   110   ar
    96    18    15    1
    97    15    14    1
    98    15    16    1
    99    25    24    2
   100    14     8   am
   101     4     3    2
   102    22    16   am
   103    22    23    1
   104    16    17    2
   105     1     2    1
   106     8     9    2
   107     8     7    1
   108    24    23    1
   109     3     2    1
   110     3     6   am
   111     7     6    1
   112     7    10    1
   113    23    26    1
   114     2     5    1
   115    26    27    1
   116    26    28    1
   117    12    11   ar
   118    27    29    1
   119    10    11    1
   120    11    13   ar
