@<TRIPOS>MOLECULE
tmp/3semA00.pdb
 120 121 0 0 0
SMALL
GASTEIGER

@<TRIPOS>ATOM
      1  N         11.4490   36.3810   46.1650 N.3     9  PHE9       -0.1227
      2  CA        10.2180   35.6020   46.0510 C.3     9  PHE9        0.1736
      3  C          9.8350   35.0490   47.4220 C.2     9  PHE9        0.2595
      4  O         10.6260   35.0940   48.3670 O.2     9  PHE9       -0.2718
      5  CB        10.4040   34.4090   45.0870 C.3     9  PHE9        0.0547
      6  CG        11.3270   34.6870   43.9350 C.ar    9  PHE9       -0.0202
      7  CD1       12.6970   34.4880   44.0680 C.ar    9  PHE9       -0.0042
      8  CD2       10.8340   35.1710   42.7290 C.ar    9  PHE9       -0.0042
      9  CE1       13.5660   34.7740   43.0240 C.ar    9  PHE9       -0.0003
     10  CE2       11.6950   35.4610   41.6750 C.ar    9  PHE9       -0.0003
     11  CZ        13.0640   35.2610   41.8250 C.ar    9  PHE9       -0.0000
     12  N          8.6140   34.5320   47.5180 N.am   10  ASP10      -0.1960
     13  CA         8.1330   33.9210   48.7500 C.3    10  ASP10       0.1840
     14  C          8.8720   32.5960   48.8880 C.2    10  ASP10       0.2622
     15  O          9.2670   31.9930   47.8890 O.2    10  ASP10      -0.2715
     16  CB         6.6310   33.6250   48.6610 C.3    10  ASP10       0.1450
     17  CG         5.7830   34.8720   48.5500 C.2    10  ASP10       0.3671
     18  OD1        6.3380   35.9890   48.5400 O.co2  10  ASP10      -0.2456
     19  OD2        4.5440   34.7340   48.4780 O.co2  10  ASP10      -0.2456
     20  N          9.0660   32.1500   50.1200 N.am   11  PHE11      -0.1960
     21  CA         9.7400   30.8850   50.3680 C.3    11  PHE11       0.1771
     22  C          9.0450   30.1740   51.5150 C.2    11  PHE11       0.2619
     23  O          9.1400   30.5930   52.6680 O.2    11  PHE11      -0.2715
     24  CB        11.2230   31.1050   50.6860 C.3    11  PHE11       0.0574
     25  CG        11.9250   29.8800   51.2110 C.ar   11  PHE11      -0.0200
     26  CD1       12.1020   28.7590   50.4080 C.ar   11  PHE11      -0.0042
     27  CD2       12.3990   29.8450   52.5200 C.ar   11  PHE11      -0.0042
     28  CE1       12.7380   27.6200   50.9050 C.ar   11  PHE11      -0.0003
     29  CE2       13.0360   28.7120   53.0240 C.ar   11  PHE11      -0.0003
     30  CZ        13.2050   27.5990   52.2160 C.ar   11  PHE11      -0.0000
     31  N          8.2910   29.1350   51.1730 N.am   12  ASN12      -0.1972
     32  CA         7.5760   28.3420   52.1600 C.3    12  ASN12       0.1688
     33  C          8.4730   27.1490   52.4840 C.2    12  ASN12       0.2292
     34  O          8.7820   26.3460   51.6020 O.2    12  ASN12      -0.2864
     35  CB         6.2350   27.8720   51.5860 C.3    12  ASN12       0.1181
     36  CG         5.2710   27.3930   52.6580 C.2    12  ASN12       0.2629
     37  OD1        4.3580   26.6140   52.3820 O.2    12  ASN12      -0.2716
     38  ND2        5.4570   27.8710   53.8840 N.am   12  ASN12      -0.0877
     39  N         10.1400   23.6530   53.5370 N.3    14  GLN14      -0.1231
     40  CA         9.7650   22.2690   53.2430 C.3    14  GLN14       0.1698
     41  C         10.1920   21.3740   54.4060 C.2    14  GLN14       0.2592
     42  O          9.5420   20.3710   54.7090 O.2    14  GLN14      -0.2718
     43  CB        10.4440   21.7950   51.9510 C.3    14  GLN14       0.0381
     44  CG         9.5710   20.9330   51.0360 C.3    14  GLN14       0.0905
     45  CD         8.4950   21.7370   50.3120 C.2    14  GLN14       0.2608
     46  OE1        8.7720   22.7940   49.7390 O.2    14  GLN14      -0.2717
     47  NE2        7.2660   21.2340   50.3280 N.am   14  GLN14      -0.0878
     48  N         11.3000   21.7450   55.0410 N.am   15  GLU15      -0.1979
     49  CA        11.8390   21.0060   56.1750 C.3    15  GLU15       0.1602
     50  C         11.9670   21.9190   57.3850 C.2    15  GLU15       0.2287
     51  O         11.9190   23.1450   57.2650 O.2    15  GLU15      -0.2864
     52  CB        13.2060   20.4210   55.8280 C.3    15  GLU15       0.0415
     53  CG        13.1610   19.3470   54.7530 C.3    15  GLU15       0.1163
     54  CD        14.5300   18.7980   54.3890 C.2    15  GLU15       0.3649
     55  OE1       15.5300   19.1440   55.0600 O.co2  15  GLU15      -0.2457
     56  OE2       14.6050   18.0200   53.4150 O.co2  15  GLU15      -0.2457
     57  N         14.0130   25.7890   58.6380 N.3    18  GLU18      -0.1245
     58  CA        14.0260   26.7140   57.5090 C.3    18  GLU18       0.1567
     59  C         13.1820   27.9550   57.7940 C.2    18  GLU18       0.2260
     60  O         12.0730   27.8620   58.3290 O.2    18  GLU18      -0.2867
     61  CB        13.5510   26.0140   56.2270 C.3    18  GLU18       0.0388
     62  CG        14.5590   25.0100   55.6580 C.3    18  GLU18       0.1160
     63  CD        14.0060   24.1650   54.5100 C.2    18  GLU18       0.3649
     64  OE1       12.8380   24.3590   54.1060 O.co2  18  GLU18      -0.2457
     65  OE2       14.7480   23.2900   54.0160 O.co2  18  GLU18      -0.2457
     66  N         24.9900   28.0610   49.2160 N.3    36  ASN36      -0.1225
     67  CA        23.6060   27.7230   48.8910 C.3    36  ASN36       0.1785
     68  C         22.6130   28.0250   50.0020 C.2    36  ASN36       0.2597
     69  O         21.5950   28.6700   49.7700 O.2    36  ASN36      -0.2718
     70  CB        23.5020   26.2510   48.4930 C.3    36  ASN36       0.1169
     71  CG        24.3920   25.9040   47.3180 C.2    36  ASN36       0.2627
     72  OD1       25.4970   25.3860   47.4910 O.2    36  ASN36      -0.2716
     73  ND2       23.9220   26.2040   46.1130 N.am   36  ASN36      -0.0877
     74  N         22.8990   27.5360   51.2030 N.am   37  TRP37      -0.1976
     75  CA        22.0150   27.7590   52.3420 C.3    37  TRP37       0.1640
     76  C         22.5790   28.7640   53.3410 C.2    37  TRP37       0.2290
     77  O         23.5780   28.5040   54.0130 O.2    37  TRP37      -0.2864
     78  CB        21.6890   26.4320   53.0390 C.3    37  TRP37       0.0576
     79  CG        20.8460   25.5130   52.2000 C.ar   37  TRP37       0.0006
     80  CD1       21.2900   24.5550   51.3300 C.ar   37  TRP37       0.0946
     81  CD2       19.4150   25.4930   52.1230 C.ar   37  TRP37       0.0152
     82  NE1       20.2220   23.9470   50.7130 N.ar   37  TRP37      -0.2442
     83  CE2       19.0600   24.5040   51.1800 C.ar   37  TRP37       0.0810
     84  CE3       18.3970   26.2160   52.7600 C.ar   37  TRP37       0.0012
     85  CZ2       17.7250   24.2190   50.8550 C.ar   37  TRP37       0.0191
     86  CZ3       17.0690   25.9320   52.4380 C.ar   37  TRP37       0.0001
     87  CH2       16.7480   24.9410   51.4930 C.ar   37  TRP37       0.0015
     88  N         17.2720   29.4370   50.8610 N.3    50  PRO50      -0.2102
     89  CA        17.9740   29.3740   49.5760 C.3    50  PRO50       0.1504
     90  C         18.5110   30.7560   49.1960 C.2    50  PRO50       0.2576
     91  O         17.7440   31.7110   49.0570 O.2    50  PRO50      -0.2718
     92  CB        16.8720   28.9290   48.6070 C.3    50  PRO50       0.0282
     93  CG        15.8910   28.2400   49.4790 C.3    50  PRO50       0.0208
     94  CD        15.8510   29.1340   50.6780 C.3    50  PRO50       0.0893
     95  N         19.8260   30.8500   49.0250 N.am   51  SER51      -0.1938
     96  CA        20.4780   32.1070   48.6720 C.3    51  SER51       0.2055
     97  C         20.0040   32.6950   47.3440 C.2    51  SER51       0.2643
     98  O         20.0920   33.9020   47.1310 O.2    51  SER51      -0.2714
     99  CB        21.9980   31.9280   48.6560 C.3    51  SER51       0.2130
    100  OG        22.4050   30.9780   47.6870 O.3    51  SER51      -0.2179
    101  N         19.5010   31.8400   46.4570 N.am   52  ASN52      -0.1957
    102  CA        19.0090   32.2740   45.1520 C.3    52  ASN52       0.1819
    103  C         17.6080   32.8840   45.2360 C.2    52  ASN52       0.2621
    104  O         16.9730   33.1590   44.2170 O.2    52  ASN52      -0.2715
    105  CB        19.0470   31.1150   44.1400 C.3    52  ASN52       0.1195
    106  CG        18.0910   29.9790   44.4940 C.2    52  ASN52       0.2630
    107  OD1       17.6910   29.8180   45.6470 O.2    52  ASN52      -0.2716
    108  ND2       17.7230   29.1860   43.4930 N.am   52  ASN52      -0.0877
    109  N         17.1240   33.0660   46.4610 N.am   53  TYR53      -0.1974
    110  CA        15.8150   33.6640   46.6970 C.3    53  TYR53       0.1639
    111  C         15.9750   35.0750   47.2540 C.2    53  TYR53       0.2290
    112  O         14.9910   35.7700   47.4910 O.2    53  TYR53      -0.2864
    113  CB        14.9970   32.8040   47.6680 C.3    53  TYR53       0.0560
    114  CG        14.1000   31.8100   46.9780 C.ar   53  TYR53      -0.0198
    115  CD1       14.6370   30.7470   46.2500 C.ar   53  TYR53      -0.0009
    116  CD2       12.7140   31.9450   47.0250 C.ar   53  TYR53      -0.0009
    117  CE1       13.8170   29.8440   45.5820 C.ar   53  TYR53       0.0417
    118  CE2       11.8830   31.0470   46.3600 C.ar   53  TYR53       0.0417
    119  CZ        12.4410   29.9990   45.6390 C.ar   53  TYR53       0.1957
    120  OH        11.6250   29.1160   44.9700 O.3    53  TYR53      -0.2866
@<TRIPOS>BOND
     1    10    11   ar
     2    10     8   ar
     3    11     9   ar
     4     8     6   ar
     5     9     7   ar
     6   108   106   am
     7     6     7   ar
     8     6     5    1
     9   105   106    1
    10   105   102    1
    11   104   103    2
    12   106   107    2
    13   120   119    1
    14     5     2    1
    15   102   103    1
    16   102   101    1
    17   103   109   am
    18   117   119   ar
    19   117   115   ar
    20   119   118   ar
    21     2     1    1
    22     2     3    1
    23    73    71   am
    24   115   114   ar
    25   118   116   ar
    26   101    97   am
    27   109   110    1
    28   110   111    1
    29   110   113    1
    30   114   116   ar
    31   114   113    1
    32    98    97    2
    33   111   112    2
    34    71    72    2
    35    71    70    1
    36    97    96    1
    37     3    12   am
    38     3     4    2
    39    12    13    1
    40   100    99    1
    41    15    14    2
    42    19    17   ar
    43    70    67    1
    44    18    17   ar
    45    17    16    1
    46    92    93    1
    47    92    89    1
    48    99    96    1
    49    16    13    1
    50    96    95    1
    51    13    14    1
    52    14    20   am
    53    67    66    1
    54    67    68    1
    55    95    90   am
    56    91    90    2
    57    90    89    1
    58    93    94    1
    59    89    88    1
    60    46    45    2
    61    69    68    2
    62    68    74   am
    63    20    21    1
    64    45    47   am
    65    45    44    1
    66    21    24    1
    67    21    22    1
    68    26    28   ar
    69    26    25   ar
    70    94    88    1
    71    24    25    1
    72    82    83   ar
    73    82    80   ar
    74    85    83   ar
    75    85    87   ar
    76    28    30   ar
    77    44    43    1
    78    31    22   am
    79    31    32    1
    80    83    81   ar
    81    74    75    1
    82    25    27   ar
    83    80    79   ar
    84    87    86   ar
    85    22    23    2
    86    35    32    1
    87    35    36    1
    88    34    33    2
    89    43    40    1
    90    81    79   ar
    91    81    84   ar
    92    32    33    1
    93    79    78    1
    94    30    29   ar
    95    75    78    1
    96    75    76    1
    97    37    36    2
    98    86    84   ar
    99    27    29   ar
   100    36    38   am
   101    40    39    1
   102    40    41    1
   103    76    77    2
   104    56    54   ar
   105    65    63   ar
   106    64    63   ar
   107    54    53    1
   108    54    55   ar
   109    41    42    2
   110    41    48   am
   111    63    62    1
   112    53    52    1
   113    48    49    1
   114    62    61    1
   115    52    49    1
   116    49    50    1
   117    61    58    1
   118    51    50    2
   119    58    59    1
   120    58    57    1
   121    59    60    2
