@<TRIPOS>MOLECULE
tmp/3semB00.pdb
 94 96 0 0 0
SMALL
GASTEIGER

@<TRIPOS>ATOM
      1  N         11.0290   45.9070   41.3390 N.3     9  PHE9       -0.1227
      2  CA         9.7490   46.6100   41.2440 C.3     9  PHE9        0.1736
      3  C          9.4920   47.0910   39.8160 C.2     9  PHE9        0.2595
      4  O         10.3900   47.0810   38.9690 O.2     9  PHE9       -0.2718
      5  CB         9.7330   47.8390   42.1670 C.3     9  PHE9        0.0547
      6  CG        10.3360   47.6010   43.5220 C.ar    9  PHE9       -0.0202
      7  CD1       11.7000   47.8130   43.7340 C.ar    9  PHE9       -0.0042
      8  CD2        9.5480   47.1670   44.5830 C.ar    9  PHE9       -0.0042
      9  CE1       12.2680   47.5960   44.9790 C.ar    9  PHE9       -0.0003
     10  CE2       10.1040   46.9470   45.8340 C.ar    9  PHE9       -0.0003
     11  CZ        11.4680   47.1610   46.0350 C.ar    9  PHE9       -0.0000
     12  N          8.2570   47.5160   39.5660 N.am   10  ASP10      -0.1960
     13  CA         7.8590   48.0450   38.2660 C.3    10  ASP10       0.1840
     14  C          8.4070   49.4620   38.1560 C.2    10  ASP10       0.2622
     15  O          8.3310   50.2290   39.1180 O.2    10  ASP10      -0.2715
     16  CB         6.3290   48.1140   38.1480 C.3    10  ASP10       0.1450
     17  CG         5.6830   46.7570   37.9300 C.2    10  ASP10       0.3671
     18  OD1        6.3350   45.7200   38.1630 O.co2  10  ASP10      -0.2456
     19  OD2        4.5000   46.7340   37.5290 O.co2  10  ASP10      -0.2456
     20  N          8.9590   49.8080   36.9950 N.am   11  PHE11      -0.1974
     21  CA         9.4910   51.1480   36.7790 C.3    11  PHE11       0.1639
     22  C          8.8230   51.8610   35.6080 C.2    11  PHE11       0.2290
     23  O          9.0230   51.4910   34.4500 O.2    11  PHE11      -0.2864
     24  CB        11.0070   51.1140   36.5650 C.3    11  PHE11       0.0560
     25  CG        11.6040   52.4650   36.2820 C.ar   11  PHE11      -0.0200
     26  CD1       11.3510   53.5410   37.1300 C.ar   11  PHE11      -0.0042
     27  CD2       12.3830   52.6730   35.1470 C.ar   11  PHE11      -0.0042
     28  CE1       11.8630   54.8010   36.8470 C.ar   11  PHE11      -0.0003
     29  CE2       12.9010   53.9320   34.8530 C.ar   11  PHE11      -0.0003
     30  CZ        12.6400   54.9980   35.7040 C.ar   11  PHE11      -0.0000
     31  N         10.5190   60.6960   32.5460 N.3    15  GLU15      -0.1245
     32  CA        11.3030   61.4400   31.5690 C.3    15  GLU15       0.1567
     33  C         11.7100   60.5230   30.4200 C.2    15  GLU15       0.2260
     34  O         11.6400   59.2970   30.5360 O.2    15  GLU15      -0.2867
     35  CB        12.5570   62.0270   32.2130 C.3    15  GLU15       0.0388
     36  CG        12.3000   63.1900   33.1580 C.3    15  GLU15       0.1160
     37  CD        13.5800   63.7340   33.7750 C.2    15  GLU15       0.3649
     38  OE1       14.6570   63.5930   33.1510 O.co2  15  GLU15      -0.2457
     39  OE2       13.5060   64.3010   34.8870 O.co2  15  GLU15      -0.2457
     40  N         23.6890   55.8780   40.2830 N.3    36  ASN36      -0.1225
     41  CA        22.2490   55.8450   40.5430 C.3    36  ASN36       0.1785
     42  C         21.4360   55.4660   39.3120 C.2    36  ASN36       0.2597
     43  O         20.3410   54.9160   39.4280 O.2    36  ASN36      -0.2718
     44  CB        21.7790   57.2060   41.0650 C.3    36  ASN36       0.1169
     45  CG        22.4150   57.5750   42.3900 C.2    36  ASN36       0.2627
     46  OD1       23.2400   58.4850   42.4590 O.2    36  ASN36      -0.2716
     47  ND2       22.0430   56.8600   43.4500 N.am   36  ASN36      -0.0877
     48  N         21.9600   55.7850   38.1330 N.am   37  TRP37      -0.1976
     49  CA        21.2720   55.4820   36.8870 C.3    37  TRP37       0.1640
     50  C         22.1450   54.6230   35.9970 C.2    37  TRP37       0.2290
     51  O         23.2310   55.0300   35.5800 O.2    37  TRP37      -0.2864
     52  CB        20.8710   56.7700   36.1570 C.3    37  TRP37       0.0576
     53  CG        19.8190   57.5550   36.8790 C.ar   37  TRP37       0.0006
     54  CD1       20.0190   58.4690   37.8760 C.ar   37  TRP37       0.0946
     55  CD2       18.4020   57.4610   36.6980 C.ar   37  TRP37       0.0152
     56  NE1       18.8120   58.9420   38.3330 N.ar   37  TRP37      -0.2442
     57  CE2       17.8030   58.3440   37.6280 C.ar   37  TRP37       0.0810
     58  CE3       17.5730   56.7230   35.8450 C.ar   37  TRP37       0.0012
     59  CZ2       16.4170   58.5010   37.7270 C.ar   37  TRP37       0.0191
     60  CZ3       16.1930   56.8810   35.9440 C.ar   37  TRP37       0.0001
     61  CH2       15.6310   57.7640   36.8780 C.ar   37  TRP37       0.0015
     62  N         16.8490   53.4970   37.4610 N.3    50  PRO50      -0.2102
     63  CA        17.3420   53.6560   38.8340 C.3    50  PRO50       0.1504
     64  C         17.9750   52.3620   39.3690 C.2    50  PRO50       0.2576
     65  O         17.3230   51.3230   39.4370 O.2    50  PRO50      -0.2718
     66  CB        16.0780   54.0530   39.6070 C.3    50  PRO50       0.0282
     67  CG        14.9610   53.4600   38.7990 C.3    50  PRO50       0.0208
     68  CD        15.3970   53.7230   37.3910 C.3    50  PRO50       0.0893
     69  N         19.2470   52.4410   39.7490 N.am   51  SER51      -0.1938
     70  CA        19.9950   51.2910   40.2560 C.3    51  SER51       0.2055
     71  C         19.4190   50.6160   41.4990 C.2    51  SER51       0.2643
     72  O         19.8060   49.4960   41.8280 O.2    51  SER51      -0.2714
     73  CB        21.4530   51.6810   40.5200 C.3    51  SER51       0.2130
     74  OG        21.5580   52.6370   41.5610 O.3    51  SER51      -0.2179
     75  N         18.5110   51.3010   42.1900 N.am   52  ASN52      -0.1957
     76  CA        17.8970   50.7670   43.4010 C.3    52  ASN52       0.1819
     77  C         16.6380   49.9390   43.1210 C.2    52  ASN52       0.2621
     78  O         15.9820   49.4490   44.0440 O.2    52  ASN52      -0.2715
     79  CB        17.5980   51.9040   44.3960 C.3    52  ASN52       0.1195
     80  CG        16.5900   52.9210   43.8620 C.2    52  ASN52       0.2630
     81  OD1       16.5210   53.1850   42.6590 O.2    52  ASN52      -0.2716
     82  ND2       15.8060   53.4990   44.7670 N.am   52  ASN52      -0.0877
     83  N         16.3050   49.8010   41.8400 N.am   53  TYR53      -0.1974
     84  CA        15.1410   49.0280   41.4120 C.3    53  TYR53       0.1639
     85  C         15.5350   47.6370   40.9040 C.2    53  TYR53       0.2290
     86  O         14.6680   46.8270   40.5670 O.2    53  TYR53      -0.2864
     87  CB        14.3710   49.7760   40.3170 C.3    53  TYR53       0.0560
     88  CG        13.3080   50.7100   40.8410 C.ar   53  TYR53      -0.0198
     89  CD1       13.6310   51.7540   41.7170 C.ar   53  TYR53      -0.0009
     90  CD2       11.9750   50.5450   40.4750 C.ar   53  TYR53      -0.0009
     91  CE1       12.6450   52.6050   42.2170 C.ar   53  TYR53       0.0417
     92  CE2       10.9810   51.3900   40.9720 C.ar   53  TYR53       0.0417
     93  CZ        11.3220   52.4150   41.8440 C.ar   53  TYR53       0.1957
     94  OH        10.3350   53.2210   42.3630 O.3    53  TYR53      -0.2866
@<TRIPOS>BOND
     1    33    34    2
     2    33    32    1
     3    32    35    1
     4    32    31    1
     5    35    36    1
     6    38    37   ar
     7    36    37    1
     8    37    39   ar
     9    23    22    2
    10    29    27   ar
    11    29    30   ar
    12    27    25   ar
    13    51    50    2
    14    22    21    1
    15    30    28   ar
    16    58    60   ar
    17    58    55   ar
    18    60    61   ar
    19    50    49    1
    20    52    53    1
    21    52    49    1
    22    25    24    1
    23    25    26   ar
    24    24    21    1
    25    55    53   ar
    26    55    57   ar
    27    21    20    1
    28    28    26   ar
    29    61    59   ar
    30    53    54   ar
    31    49    48    1
    32    20    14   am
    33    68    62    1
    34    68    67    1
    35    62    63    1
    36    19    17   ar
    37    57    59   ar
    38    57    56   ar
    39    54    56   ar
    40    17    16    1
    41    17    18   ar
    42    48    42   am
    43    16    13    1
    44    14    13    1
    45    14    15    2
    46    13    12    1
    47    67    66    1
    48    63    64    1
    49    63    66    1
    50     4     3    2
    51    42    43    2
    52    42    41    1
    53    64    65    2
    54    64    69   am
    55    12     3   am
    56    69    70    1
    57     3     2    1
    58    70    73    1
    59    70    71    1
    60    40    41    1
    61    87    88    1
    62    87    84    1
    63    90    88   ar
    64    90    92   ar
    65    73    74    1
    66    41    44    1
    67    86    85    2
    68    88    89   ar
    69    85    84    1
    70    92    93   ar
    71    44    45    1
    72     2     1    1
    73     2     5    1
    74    84    83    1
    75    71    72    2
    76    71    75   am
    77    89    91   ar
    78    83    77   am
    79    93    91   ar
    80    93    94    1
    81     5     6    1
    82    75    76    1
    83    45    46    2
    84    45    47   am
    85    81    80    2
    86    77    76    1
    87    77    78    2
    88    76    79    1
    89     6     7   ar
    90     6     8   ar
    91     7     9   ar
    92    80    79    1
    93    80    82   am
    94     8    10   ar
    95     9    11   ar
    96    10    11   ar
