@<TRIPOS>MOLECULE
tmp/3seqA01.pdb
 157 151 0 0 0
SMALL
GASTEIGER

@<TRIPOS>ATOM
      1  N          3.0360  -74.5290   41.7820 N.3   447  VAL447     -0.1245
      2  CA         3.1770  -73.4940   42.7800 C.3   447  VAL447      0.1561
      3  C          2.5430  -73.9730   44.0980 C.2   447  VAL447      0.2260
      4  O          2.8870  -73.4780   45.1590 O.2   447  VAL447     -0.2867
      5  CB         2.6020  -72.1150   42.3230 C.3   447  VAL447      0.0252
      6  CG1        1.0780  -72.0020   42.6110 C.3   447  VAL447      0.0019
      7  CG2        3.3240  -71.0010   43.0380 C.3   447  VAL447      0.0019
      8  N          5.3260  -76.2230   45.7910 N.3   450  GLU450     -0.1231
      9  CA         6.4260  -75.3770   46.3840 C.3   450  GLU450      0.1699
     10  C          5.8950  -74.5750   47.5610 C.2   450  GLU450      0.2592
     11  O          6.5290  -74.4210   48.5990 O.2   450  GLU450     -0.2718
     12  CB         7.1000  -74.4610   45.3400 C.3   450  GLU450      0.0402
     13  CG         8.0650  -75.1670   44.3670 C.3   450  GLU450      0.1161
     14  CD         9.2780  -75.8330   45.0730 C.2   450  GLU450      0.3649
     15  OE1        9.8420  -75.2110   46.0060 O.co2 450  GLU450     -0.2457
     16  OE2        9.6770  -76.9700   44.6930 O.co2 450  GLU450     -0.2457
     17  N          4.6790  -74.0960   47.4110 N.am  451  ASN451     -0.1974
     18  CA         4.0340  -73.3440   48.4810 C.3   451  ASN451      0.1688
     19  C          3.6590  -74.1170   49.7490 C.2   451  ASN451      0.2292
     20  O          3.8520  -73.5880   50.8360 O.2   451  ASN451     -0.2864
     21  CB         2.8150  -72.5950   47.9480 C.3   451  ASN451      0.1181
     22  CG         3.1800  -71.2760   47.2930 C.2   451  ASN451      0.2629
     23  OD1        4.3290  -71.0260   46.9780 O.2   451  ASN451     -0.2716
     24  ND2        2.1980  -70.4470   47.0690 N.am  451  ASN451     -0.0877
     25  N          6.8410  -74.2150   51.6700 N.3   454  ALA454     -0.1245
     26  CA         7.2050  -72.8670   52.1530 C.3   454  ALA454      0.1562
     27  C          6.3250  -72.4350   53.3250 C.2   454  ALA454      0.2260
     28  O          6.8330  -71.9910   54.3780 O.2   454  ALA454     -0.2867
     29  CB         7.1300  -71.8620   51.0390 C.3   454  ALA454      0.0290
     30  N         13.1240  -58.7190   47.1770 N.3   480  GLU480     -0.1245
     31  CA        12.0140  -59.6930   47.2420 C.3   480  GLU480      0.1567
     32  C         10.6820  -58.9840   47.4950 C.2   480  GLU480      0.2260
     33  O          9.6550  -59.3250   46.9050 O.2   480  GLU480     -0.2867
     34  CB        12.3010  -60.7710   48.3030 C.3   480  GLU480      0.0388
     35  CG        13.2860  -61.8660   47.8280 C.3   480  GLU480      0.1160
     36  CD        13.7650  -62.7810   48.9370 C.2   480  GLU480      0.3649
     37  OE1       13.3400  -62.5840   50.0970 O.co2 480  GLU480     -0.2457
     38  OE2       14.5690  -63.6990   48.6460 O.co2 480  GLU480     -0.2457
     39  N          7.5820  -59.1220   44.7050 N.3   484  GLY484     -0.1210
     40  CA         6.5610  -60.0800   45.1040 C.3   484  GLY484      0.1956
     41  C          7.0590  -61.5230   45.0660 C.2   484  GLY484      0.2612
     42  O          6.3140  -62.4560   44.8170 O.2   484  GLY484     -0.2717
     43  N          8.3530  -61.6910   45.3100 N.am  485  TRP485     -0.1962
     44  CA         9.0130  -62.9870   45.3380 C.3   485  TRP485      0.1771
     45  C          9.0530  -63.4760   46.8030 C.2   485  TRP485      0.2620
     46  O         10.0750  -63.4100   47.4810 O.2   485  TRP485     -0.2715
     47  CB        10.4080  -62.8410   44.7270 C.3   485  TRP485      0.0590
     48  CG        11.0420  -64.1050   44.2660 C.ar  485  TRP485      0.0006
     49  CD1       12.0950  -64.7530   44.8460 C.ar  485  TRP485      0.0946
     50  CD2       10.6720  -64.8860   43.1190 C.ar  485  TRP485      0.0152
     51  NE1       12.3830  -65.9100   44.1430 N.ar  485  TRP485     -0.2442
     52  CE2       11.5240  -66.0050   43.0790 C.ar  485  TRP485      0.0810
     53  CE3        9.6930  -64.7540   42.1320 C.ar  485  TRP485      0.0012
     54  CZ2       11.4320  -66.9720   42.0840 C.ar  485  TRP485      0.0191
     55  CZ3        9.6020  -65.7270   41.1430 C.ar  485  TRP485      0.0001
     56  CH2       10.4640  -66.8110   41.1260 C.ar  485  TRP485      0.0015
     57  N          7.9060  -63.9640   47.2680 N.am  486  SER486     -0.1936
     58  CA         7.6170  -64.2250   48.6730 C.3   486  SER486      0.2055
     59  C          6.4800  -65.2200   48.6130 C.2   486  SER486      0.2644
     60  O          5.7630  -65.2850   47.6160 O.2   486  SER486     -0.2714
     61  CB         7.0630  -62.9500   49.3290 C.3   486  SER486      0.2130
     62  OG         8.0060  -62.3000   50.1560 O.3   486  SER486     -0.2179
     63  N          6.2810  -65.9920   49.6650 N.am  487  THR487     -0.1936
     64  CA         5.0460  -66.7570   49.7390 C.3   487  THR487      0.2028
     65  C          4.1710  -66.0630   50.7510 C.2   487  THR487      0.2642
     66  O          4.4880  -66.0440   51.9390 O.2   487  THR487     -0.2714
     67  CB         5.2860  -68.2370   50.0600 C.3   487  THR487      0.1808
     68  OG1        5.9520  -68.8200   48.9440 O.3   487  THR487     -0.2208
     69  CG2        3.9620  -69.0000   50.2740 C.3   487  THR487      0.0379
     70  N          3.0870  -65.4650   50.2650 N.am  488  TYR488     -0.1973
     71  CA         2.3430  -64.4950   51.0570 C.3   488  TYR488      0.1639
     72  C          1.4870  -65.1210   52.1700 C.2   488  TYR488      0.2290
     73  O          0.7900  -66.1470   51.9760 O.2   488  TYR488     -0.2864
     74  CB         1.5090  -63.5600   50.1590 C.3   488  TYR488      0.0560
     75  CG         0.4790  -62.7730   50.9350 C.ar  488  TYR488     -0.0198
     76  CD1        0.8270  -61.6100   51.6020 C.ar  488  TYR488     -0.0009
     77  CD2       -0.8410  -63.2220   51.0370 C.ar  488  TYR488     -0.0009
     78  CE1       -0.0980  -60.9160   52.3400 C.ar  488  TYR488      0.0417
     79  CE2       -1.7730  -62.5260   51.7750 C.ar  488  TYR488      0.0417
     80  CZ        -1.3880  -61.3840   52.4210 C.ar  488  TYR488      0.1957
     81  OH        -2.2930  -60.7080   53.1580 O.3   488  TYR488     -0.2866
     82  N          6.9610  -67.1870   53.8120 N.3   492  ASP492     -0.1239
     83  CA         8.1730  -66.4930   54.2360 C.3   492  ASP492      0.1674
     84  C          8.0260  -64.9610   54.2560 C.2   492  ASP492      0.2266
     85  O          8.8970  -64.2580   54.7710 O.2   492  ASP492     -0.2867
     86  CB         9.3010  -66.9010   53.3120 C.3   492  ASP492      0.1410
     87  CG         8.9580  -66.6770   51.8630 C.2   492  ASP492      0.3668
     88  OD1        8.1770  -67.4850   51.3220 O.co2 492  ASP492     -0.2456
     89  OD2        9.4620  -65.6940   51.2630 O.co2 492  ASP492     -0.2456
     90  N         15.0200  -68.6170   39.6480 N.3   539  SER539     -0.1217
     91  CA        14.5310  -67.4080   40.3500 C.3   539  SER539      0.1889
     92  C         14.9530  -66.1690   39.5910 C.2   539  SER539      0.2288
     93  O         14.1350  -65.4670   39.0000 O.2   539  SER539     -0.2866
     94  CB        15.1050  -67.3130   41.7670 C.3   539  SER539      0.2089
     95  OG        16.4400  -67.8180   41.7790 O.3   539  SER539     -0.2183
     96  N          5.2900  -56.2890   37.7930 N.3   609  ARG609     -0.1245
     97  CA         5.3190  -56.8730   39.1170 C.3   609  ARG609      0.1563
     98  C          5.2910  -55.8290   40.2270 C.2   609  ARG609      0.2260
     99  O          4.5790  -56.0070   41.2170 O.2   609  ARG609     -0.2867
    100  CB         6.5270  -57.8020   39.2810 C.3   609  ARG609      0.0307
    101  CG         6.5180  -59.0080   38.3620 C.3   609  ARG609      0.0489
    102  CD         7.5450  -60.0420   38.8160 C.3   609  ARG609      0.2205
    103  NE         7.1650  -60.6300   40.1020 N.pl3 609  ARG609     -0.0865
    104  CZ         6.8680  -61.9130   40.3000 C.cat 609  ARG609      0.5346
    105  NH1        6.9260  -62.7800   39.2920 N.pl3 609  ARG609      0.1354
    106  NH2        6.5310  -62.3290   41.5160 N.pl3 609  ARG609      0.1354
    107  N          1.7710  -53.3850   40.0900 N.3   612  SER612     -0.1202
    108  CA         0.4960  -54.1070   39.9590 C.3   612  SER612      0.2020
    109  C          0.3780  -55.4140   40.7710 C.2   612  SER612      0.2618
    110  O         -0.3390  -55.4810   41.7600 O.2   612  SER612     -0.2717
    111  CB         0.1940  -54.3860   38.4840 C.3   612  SER612      0.2103
    112  OG        -0.9090  -55.2600   38.3670 O.3   612  SER612     -0.2182
    113  N          1.0830  -56.4530   40.3600 N.am  613  PHE613     -0.1975
    114  CA         1.0000  -57.7180   41.0600 C.3   613  PHE613      0.1639
    115  C          1.3180  -57.7690   42.5570 C.2   613  PHE613      0.2290
    116  O          0.6150  -58.4070   43.3170 O.2   613  PHE613     -0.2864
    117  CB         1.8690  -58.7650   40.3890 C.3   613  PHE613      0.0560
    118  CG         1.9470  -60.0340   41.1810 C.ar  613  PHE613     -0.0200
    119  CD1        0.8670  -60.8850   41.2280 C.ar  613  PHE613     -0.0042
    120  CD2        3.0650  -60.3440   41.9350 C.ar  613  PHE613     -0.0042
    121  CE1        0.9010  -62.0380   41.9830 C.ar  613  PHE613     -0.0003
    122  CE2        3.1120  -61.4900   42.6890 C.ar  613  PHE613     -0.0003
    123  CZ         2.0230  -62.3390   42.7110 C.ar  613  PHE613     -0.0000
    124  N         -0.0020  -56.1600   47.1280 N.3   616  PHE616     -0.1227
    125  CA        -0.7830  -56.7770   48.2210 C.3   616  PHE616      0.1736
    126  C          0.0560  -57.5090   49.2660 C.2   616  PHE616      0.2595
    127  O         -0.3340  -57.5900   50.4350 O.2   616  PHE616     -0.2718
    128  CB        -1.8920  -57.7030   47.7000 C.3   616  PHE616      0.0547
    129  CG        -1.3950  -59.0310   47.2410 C.ar  616  PHE616     -0.0202
    130  CD1       -0.8850  -59.1940   45.9470 C.ar  616  PHE616     -0.0042
    131  CD2       -1.4330  -60.1260   48.0990 C.ar  616  PHE616     -0.0042
    132  CE1       -0.3980  -60.4300   45.5120 C.ar  616  PHE616     -0.0003
    133  CE2       -0.9530  -61.3810   47.6850 C.ar  616  PHE616     -0.0003
    134  CZ        -0.4310  -61.5380   46.3820 C.ar  616  PHE616     -0.0000
    135  N          1.1990  -58.0370   48.8310 N.am  617  LYS617     -0.1980
    136  CA         2.1560  -58.7050   49.7360 C.3   617  LYS617      0.1596
    137  C          2.8740  -57.7380   50.6520 C.2   617  LYS617      0.2287
    138  O          3.1970  -58.0690   51.7950 O.2   617  LYS617     -0.2864
    139  CB         3.1890  -59.5380   48.9620 C.3   617  LYS617      0.0298
    140  CG         2.5610  -60.5880   48.0700 C.3   617  LYS617      0.0038
    141  CD         3.5810  -61.4740   47.4330 C.3   617  LYS617      0.0206
    142  CE         2.8740  -62.5820   46.6580 C.3   617  LYS617      0.1093
    143  NZ         3.8010  -63.5410   45.9890 N.3   617  LYS617     -0.1314
    144  N         -3.3840  -51.8980   46.1510 N.3   643  SER643     -0.1202
    145  CA        -3.1560  -53.3290   46.0060 C.3   643  SER643      0.2020
    146  C         -3.8730  -53.8730   44.7830 C.2   643  SER643      0.2618
    147  O         -3.7470  -55.0420   44.4840 O.2   643  SER643     -0.2717
    148  CB        -3.7260  -54.0660   47.2060 C.3   643  SER643      0.2103
    149  OG        -2.9750  -53.9050   48.3870 O.3   643  SER643     -0.2182
    150  N         -4.6520  -53.0420   44.0960 N.am  644  ASP644     -0.1973
    151  CA        -5.5230  -53.5120   43.0150 C.3   644  ASP644      0.1709
    152  C         -5.4490  -52.6560   41.7670 C.2   644  ASP644      0.2293
    153  O         -6.4750  -52.2830   41.2000 O.2   644  ASP644     -0.2864
    154  CB        -6.9910  -53.5730   43.4690 C.3   644  ASP644      0.1436
    155  CG        -7.4530  -52.2780   44.1400 C.2   644  ASP644      0.3671
    156  OD1       -6.5650  -51.4730   44.4610 O.co2 644  ASP644     -0.2456
    157  OD2       -8.6790  -52.0890   44.3810 O.co2 644  ASP644     -0.2456
@<TRIPOS>BOND
     1    96    97    1
     2   101   102    1
     3   101   100    1
     4   112   111    1
     5   111   108    1
     6   102   103    1
     7    93    92    2
     8    97   100    1
     9    97    98    1
    10   105   104    1
    11    92    91    1
    12    90    91    1
    13   108   107    1
    14   108   109    1
    15   103   104    2
    16    98    99    2
    17   104   106    1
    18    91    94    1
    19   113   109   am
    20   113   114    1
    21   117   114    1
    22   117   118    1
    23   109   110    2
    24   114   115    1
    25    56    55   ar
    26    56    54   ar
    27    55    53   ar
    28   118   119   ar
    29   118   120   ar
    30   153   152    2
    31   119   121   ar
    32    94    95    1
    33   152   151    1
    34     1     2    1
    35   120   122   ar
    36   121   123   ar
    37    54    52   ar
    38    53    50   ar
    39     5     6    1
    40     5     2    1
    41     5     7    1
    42   115   116    2
    43   122   123   ar
    44     2     3    1
    45   151   154    1
    46   151   150    1
    47    52    50   ar
    48    52    51   ar
    49    50    48   ar
    50   154   155    1
    51   150   146   am
    52     3     4    2
    53   155   157   ar
    54   155   156   ar
    55    51    49   ar
    56    48    47    1
    57    48    49   ar
    58    13    14    1
    59    13    12    1
    60   147   146    2
    61    16    14   ar
    62    39    40    1
    63    47    44    1
    64   146   145    1
    65    42    41    2
    66    41    40    1
    67    41    43   am
    68    14    15   ar
    69    43    44    1
    70    44    45    1
    71    12     9    1
    72   132   130   ar
    73   132   134   ar
    74     8     9    1
    75   130   129   ar
    76   143   142    1
    77   145   144    1
    78   145   148    1
    79   134   133   ar
    80     9    10    1
    81   142   141    1
    82    45    57   am
    83    45    46    2
    84    33    32    2
    85    23    22    2
    86    24    22   am
    87   124   125    1
    88    30    31    1
    89   148   149    1
    90   129   128    1
    91   129   131   ar
    92    31    32    1
    93    31    34    1
    94    57    58    1
    95    22    21    1
    96    17    10   am
    97    17    18    1
    98   141   140    1
    99    10    11    2
   100    60    59    2
   101   133   131   ar
   102   128   125    1
   103    35    34    1
   104    35    36    1
   105    21    18    1
   106   140   139    1
   107   125   126    1
   108    18    19    1
   109    59    58    1
   110    59    63   am
   111    38    36   ar
   112    58    61    1
   113   135   126   am
   114   135   136    1
   115    36    37   ar
   116    68    67    1
   117   139   136    1
   118   126   127    2
   119    61    62    1
   120    63    64    1
   121   136   137    1
   122    64    67    1
   123    64    65    1
   124    19    20    2
   125    67    69    1
   126    74    75    1
   127    74    71    1
   128    70    65   am
   129    70    71    1
   130   137   138    2
   131    65    66    2
   132    75    77   ar
   133    75    76   ar
   134    77    79   ar
   135    29    26    1
   136    71    72    1
   137    89    87   ar
   138    88    87   ar
   139    76    78   ar
   140    25    26    1
   141    79    80   ar
   142    87    86    1
   143    73    72    2
   144    26    27    1
   145    78    80   ar
   146    80    81    1
   147    86    83    1
   148    27    28    2
   149    82    83    1
   150    83    84    1
   151    84    85    2
