@<TRIPOS>MOLECULE
tmp/3seqA00.pdb
 158 150 0 0 0
SMALL
GASTEIGER

@<TRIPOS>ATOM
      1  N         14.4350  -69.6210   60.7890 N.3   367  GLY367     -0.1210
      2  CA        14.7360  -70.6650   59.8300 C.3   367  GLY367      0.1956
      3  C         16.0310  -70.3300   59.0930 C.2   367  GLY367      0.2612
      4  O         16.1610  -69.2590   58.4820 O.2   367  GLY367     -0.2717
      5  N         17.0020  -71.2410   59.1640 N.am  368  VAL368     -0.1965
      6  CA        18.2980  -71.0400   58.5350 C.3   368  VAL368      0.1727
      7  C         18.4790  -72.0640   57.4270 C.2   368  VAL368      0.2616
      8  O         18.4360  -73.2650   57.6670 O.2   368  VAL368     -0.2715
      9  CB        19.4680  -71.1430   59.5660 C.3   368  VAL368      0.0290
     10  CG1       19.5110  -69.9190   60.4470 C.3   368  VAL368      0.0023
     11  CG2       19.3080  -72.3500   60.4350 C.3   368  VAL368      0.0023
     12  N         18.6890  -71.5960   56.2090 N.am  369  SER369     -0.1950
     13  CA        18.7980  -72.5020   55.0780 C.3   369  SER369      0.1924
     14  C         20.2070  -72.5470   54.4590 C.2   369  SER369      0.2314
     15  O         20.4610  -73.2820   53.5030 O.2   369  SER369     -0.2863
     16  CB        17.8380  -72.0450   54.0160 C.3   369  SER369      0.2116
     17  OG        18.2420  -70.7520   53.5850 O.3   369  SER369     -0.2180
     18  N         21.5200  -69.9980   52.9470 N.3   371  GLY371     -0.1210
     19  CA        21.5430  -69.0140   51.8880 C.3   371  GLY371      0.1956
     20  C         21.8750  -67.6270   52.4390 C.2   371  GLY371      0.2612
     21  O         21.9860  -67.4480   53.6610 O.2   371  GLY371     -0.2717
     22  N         22.0150  -66.6390   51.5480 N.am  372  LEU372     -0.1965
     23  CA        22.4970  -65.2960   51.9290 C.3   372  LEU372      0.1728
     24  C         21.6520  -64.5550   52.9830 C.2   372  LEU372      0.2616
     25  O         22.1790  -64.1560   54.0350 O.2   372  LEU372     -0.2715
     26  CB        22.6670  -64.4250   50.6840 C.3   372  LEU372      0.0311
     27  CG        23.7800  -64.9350   49.7730 C.3   372  LEU372      0.0022
     28  CD1       23.8170  -64.1720   48.4560 C.3   372  LEU372      0.0001
     29  CD2       25.0770  -64.8190   50.5160 C.3   372  LEU372      0.0001
     30  N         20.3570  -64.3700   52.7050 N.am  373  ASP373     -0.1957
     31  CA        19.4740  -63.6250   53.6120 C.3   373  ASP373      0.1840
     32  C         19.4250  -64.2050   55.0300 C.2   373  ASP373      0.2622
     33  O         19.6360  -63.4640   55.9900 O.2   373  ASP373     -0.2715
     34  CB        18.0470  -63.4460   53.0500 C.3   373  ASP373      0.1450
     35  CG        18.0060  -62.6270   51.7630 C.2   373  ASP373      0.3671
     36  OD1       19.0260  -61.9630   51.4410 O.co2 373  ASP373     -0.2456
     37  OD2       16.9400  -62.6320   51.0860 O.co2 373  ASP373     -0.2456
     38  N         19.1610  -65.5140   55.1660 N.am  374  SER374     -0.1950
     39  CA        18.9410  -66.0930   56.4960 C.3   374  SER374      0.1924
     40  C         20.2490  -66.1690   57.2560 C.2   374  SER374      0.2314
     41  O         20.2770  -66.0040   58.4810 O.2   374  SER374     -0.2863
     42  CB        18.2510  -67.4680   56.4470 C.3   374  SER374      0.2116
     43  OG        18.9150  -68.3820   55.6120 O.3   374  SER374     -0.2180
     44  N         16.6870  -73.1390   63.1680 N.3   398  PHE398     -0.1227
     45  CA        16.0540  -74.3590   62.6660 C.3   398  PHE398      0.1736
     46  C         16.3860  -74.6420   61.2170 C.2   398  PHE398      0.2595
     47  O         16.2630  -73.7730   60.3610 O.2   398  PHE398     -0.2718
     48  CB        14.5200  -74.3170   62.8460 C.3   398  PHE398      0.0547
     49  CG        14.0830  -74.4860   64.2690 C.ar  398  PHE398     -0.0202
     50  CD1       13.8970  -73.3980   65.0720 C.ar  398  PHE398     -0.0042
     51  CD2       13.9130  -75.7400   64.8210 C.ar  398  PHE398     -0.0042
     52  CE1       13.5230  -73.5470   66.4040 C.ar  398  PHE398     -0.0003
     53  CE2       13.5290  -75.8940   66.1450 C.ar  398  PHE398     -0.0003
     54  CZ        13.3400  -74.7870   66.9370 C.ar  398  PHE398     -0.0000
     55  N         16.8110  -75.8680   60.9460 N.am  399  ALA399     -0.1966
     56  CA        16.8590  -76.3410   59.5830 C.3   399  ALA399      0.1728
     57  C         15.5620  -77.1210   59.3460 C.2   399  ALA399      0.2616
     58  O         15.1050  -77.9030   60.1910 O.2   399  ALA399     -0.2715
     59  CB        18.0790  -77.1730   59.3560 C.3   399  ALA399      0.0334
     60  N         14.9530  -76.8670   58.1980 N.am  400  LEU400     -0.1964
     61  CA        13.6200  -77.3610   57.9020 C.3   400  LEU400      0.1713
     62  C         13.5970  -78.0310   56.5320 C.2   400  LEU400      0.2458
     63  O         12.9590  -77.5450   55.5990 O.2   400  LEU400     -0.2730
     64  CB        12.6300  -76.2010   57.9380 C.3   400  LEU400      0.0310
     65  CG        12.6270  -75.3400   59.2090 C.3   400  LEU400      0.0022
     66  CD1       11.8630  -74.0550   58.9450 C.3   400  LEU400      0.0001
     67  CD2       12.0120  -76.0810   60.3850 C.3   400  LEU400      0.0001
     68  N         14.3000  -79.1560   56.4120 N.am  401  PRO401     -0.2727
     69  CA        14.4390  -79.8540   55.1250 C.3   401  PRO401      0.1402
     70  C         13.0820  -80.2390   54.5560 C.2   401  PRO401      0.2269
     71  O         12.1990  -80.6630   55.3050 O.2   401  PRO401     -0.2865
     72  CB        15.2510  -81.1120   55.4840 C.3   401  PRO401      0.0296
     73  CG        15.8130  -80.8620   56.8630 C.3   401  PRO401      0.0237
     74  CD        14.8840  -79.9010   57.5430 C.3   401  PRO401      0.0939
     75  N         23.5630  -75.2750   52.4840 N.3   404  LYS404     -0.1245
     76  CA        22.9600  -76.5190   52.9900 C.3   404  LYS404      0.1561
     77  C         23.5480  -76.8850   54.3470 C.2   404  LYS404      0.2260
     78  O         22.9830  -76.5940   55.4150 O.2   404  LYS404     -0.2867
     79  CB        23.1840  -77.6850   52.0060 C.3   404  LYS404      0.0271
     80  CG        22.3820  -77.6220   50.6620 C.3   404  LYS404      0.0035
     81  CD        20.9500  -77.1820   50.9160 C.3   404  LYS404      0.0206
     82  CE        20.3020  -76.1330   49.9970 C.3   404  LYS404      0.1093
     83  NZ        20.9760  -74.8010   49.9400 N.3   404  LYS404     -0.1314
     84  N          6.9400  -74.3470   56.6410 N.3   457  ARG457     -0.1245
     85  CA         8.0850  -73.8250   57.3910 C.3   457  ARG457      0.1563
     86  C          7.6620  -72.7160   58.3230 C.2   457  ARG457      0.2260
     87  O          8.0030  -72.7390   59.5220 O.2   457  ARG457     -0.2867
     88  CB         9.2150  -73.3480   56.4850 C.3   457  ARG457      0.0307
     89  CG         9.7740  -74.4390   55.6290 C.3   457  ARG457      0.0489
     90  CD        11.1580  -74.1470   55.0660 C.3   457  ARG457      0.2205
     91  NE        11.6830  -75.3820   54.4710 N.pl3 457  ARG457     -0.0865
     92  CZ        11.6580  -75.6720   53.1750 C.cat 457  ARG457      0.5346
     93  NH1       11.1760  -74.7970   52.3150 N.pl3 457  ARG457      0.1354
     94  NH2       12.1330  -76.8330   52.7390 N.pl3 457  ARG457      0.1354
     95  N          7.5600  -72.5670   62.4600 N.3   461  LEU461     -0.1245
     96  CA         8.3210  -71.5750   63.1750 C.3   461  LEU461      0.1561
     97  C          7.4170  -70.7940   64.1390 C.2   461  LEU461      0.2260
     98  O          7.7910  -70.5690   65.3060 O.2   461  LEU461     -0.2867
     99  CB         9.0020  -70.6460   62.1810 C.3   461  LEU461      0.0270
    100  CG        10.1280  -71.3100   61.4050 C.3   461  LEU461      0.0019
    101  CD1       10.6910  -70.3690   60.3480 C.3   461  LEU461      0.0001
    102  CD2       11.1830  -71.6850   62.3950 C.3   461  LEU461      0.0001
    103  N         13.2740  -63.0440   57.1600 N.3   475  THR475     -0.1218
    104  CA        14.5660  -62.9660   56.5040 C.3   475  THR475      0.1862
    105  C         14.4600  -62.3840   55.1010 C.2   475  THR475      0.2287
    106  O         15.4760  -62.1530   54.4600 O.2   475  THR475     -0.2866
    107  CB        15.1950  -64.3630   56.3840 C.3   475  THR475      0.1770
    108  OG1       14.3440  -65.1990   55.5770 O.3   475  THR475     -0.2211
    109  CG2       15.3770  -64.9900   57.7540 C.3   475  THR475      0.0375
    110  N         13.1240  -58.7190   47.1770 N.3   480  GLU480     -0.1245
    111  CA        12.0140  -59.6930   47.2420 C.3   480  GLU480      0.1567
    112  C         10.6820  -58.9840   47.4950 C.2   480  GLU480      0.2260
    113  O          9.6550  -59.3250   46.9050 O.2   480  GLU480     -0.2867
    114  CB        12.3010  -60.7710   48.3030 C.3   480  GLU480      0.0388
    115  CG        13.2860  -61.8660   47.8280 C.3   480  GLU480      0.1160
    116  CD        13.7650  -62.7810   48.9370 C.2   480  GLU480      0.3649
    117  OE1       13.3400  -62.5840   50.0970 O.co2 480  GLU480     -0.2457
    118  OE2       14.5690  -63.6990   48.6460 O.co2 480  GLU480     -0.2457
    119  N          8.3530  -61.6910   45.3100 N.3   485  TRP485     -0.1241
    120  CA         9.0130  -62.9870   45.3380 C.3   485  TRP485      0.1605
    121  C          9.0530  -63.4760   46.8030 C.2   485  TRP485      0.2264
    122  O         10.0750  -63.4100   47.4810 O.2   485  TRP485     -0.2867
    123  CB        10.4080  -62.8410   44.7270 C.3   485  TRP485      0.0550
    124  CG        11.0420  -64.1050   44.2660 C.ar  485  TRP485      0.0003
    125  CD1       12.0950  -64.7530   44.8460 C.ar  485  TRP485      0.0946
    126  CD2       10.6720  -64.8860   43.1190 C.ar  485  TRP485      0.0152
    127  NE1       12.3830  -65.9100   44.1430 N.ar  485  TRP485     -0.2442
    128  CE2       11.5240  -66.0050   43.0790 C.ar  485  TRP485      0.0810
    129  CE3        9.6930  -64.7540   42.1320 C.ar  485  TRP485      0.0012
    130  CZ2       11.4320  -66.9720   42.0840 C.ar  485  TRP485      0.0191
    131  CZ3        9.6020  -65.7270   41.1430 C.ar  485  TRP485      0.0001
    132  CH2       10.4640  -66.8110   41.1260 C.ar  485  TRP485      0.0015
    133  N          6.9610  -67.1870   53.8120 N.3   492  ASP492     -0.1239
    134  CA         8.1730  -66.4930   54.2360 C.3   492  ASP492      0.1674
    135  C          8.0260  -64.9610   54.2560 C.2   492  ASP492      0.2266
    136  O          8.8970  -64.2580   54.7710 O.2   492  ASP492     -0.2867
    137  CB         9.3010  -66.9010   53.3120 C.3   492  ASP492      0.1410
    138  CG         8.9580  -66.6770   51.8630 C.2   492  ASP492      0.3668
    139  OD1        8.1770  -67.4850   51.3220 O.co2 492  ASP492     -0.2456
    140  OD2        9.4620  -65.6940   51.2630 O.co2 492  ASP492     -0.2456
    141  N         18.7980  -56.9040   47.6940 N.3   505  LYS505     -0.1245
    142  CA        19.6190  -58.1140   47.5750 C.3   505  LYS505      0.1561
    143  C         21.0520  -57.7760   47.1860 C.2   505  LYS505      0.2260
    144  O         21.9670  -58.4190   47.6660 O.2   505  LYS505     -0.2867
    145  CB        19.0030  -59.1390   46.6040 C.3   505  LYS505      0.0271
    146  CG        19.4790  -60.5600   46.8180 C.3   505  LYS505      0.0035
    147  CD        18.7290  -61.5570   45.9290 C.3   505  LYS505      0.0206
    148  CE        17.2910  -61.8080   46.3880 C.3   505  LYS505      0.1093
    149  NZ        17.2040  -62.7200   47.5730 N.3   505  LYS505     -0.1314
    150  N         26.8270  -69.6190   47.5440 N.3   536  GLU536     -0.1245
    151  CA        25.5450  -69.0130   47.0780 C.3   536  GLU536      0.1567
    152  C         25.7000  -68.0530   45.9000 C.2   536  GLU536      0.2260
    153  O         24.6910  -67.5730   45.3900 O.2   536  GLU536     -0.2867
    154  CB        24.8340  -68.2980   48.2360 C.3   536  GLU536      0.0388
    155  CG        24.5540  -69.1920   49.4510 C.3   536  GLU536      0.1160
    156  CD        23.8210  -70.4830   49.1030 C.2   536  GLU536      0.3649
    157  OE1       22.7330  -70.4100   48.4800 O.co2 536  GLU536     -0.2457
    158  OE2       24.3400  -71.5610   49.4690 O.co2 536  GLU536     -0.2457
@<TRIPOS>BOND
     1   132   131   ar
     2   132   130   ar
     3   131   129   ar
     4   130   128   ar
     5   129   126   ar
     6   128   126   ar
     7   128   127   ar
     8   126   124   ar
     9   127   125   ar
    10   124   123    1
    11   124   125   ar
    12   123   120    1
    13   119   120    1
    14   120   121    1
    15   153   152    2
    16   152   151    1
    17   147   148    1
    18   147   146    1
    19   148   149    1
    20   145   146    1
    21   145   142    1
    22   121   122    2
    23   113   112    2
    24   151   150    1
    25   151   154    1
    26   110   111    1
    27   143   142    1
    28   143   144    2
    29   111   112    1
    30   111   114    1
    31   142   141    1
    32   115   114    1
    33   115   116    1
    34   154   155    1
    35    28    27    1
    36   157   156   ar
    37   118   116   ar
    38   116   117   ar
    39   156   155    1
    40   156   158   ar
    41    27    29    1
    42    27    26    1
    43    83    82    1
    44    82    81    1
    45    80    81    1
    46    80    79    1
    47    26    23    1
    48    37    35   ar
    49   140   138   ar
    50   139   138   ar
    51    36    35   ar
    52    22    23    1
    53    22    20   am
    54    35    34    1
    55   138   137    1
    56    19    20    1
    57    19    18    1
    58    23    24    1
    59    79    76    1
    60    93    92    1
    61    20    21    2
    62    75    76    1
    63    30    24   am
    64    30    31    1
    65    94    92    1
    66    24    25    2
    67    76    77    1
    68    34    31    1
    69    92    91    2
    70   137   134    1
    71    15    14    2
    72    17    16    1
    73    31    32    1
    74   133   134    1
    75    16    13    1
    76   134   135    1
    77   135   136    2
    78    77    78    2
    79    14    13    1
    80   106   105    2
    81    91    90    1
    82    70    69    1
    83    70    71    2
    84    32    38   am
    85    32    33    2
    86    90    89    1
    87    13    12    1
    88   105   104    1
    89    69    72    1
    90    69    68    1
    91    38    39    1
    92    72    73    1
    93   108   107    1
    94    63    62    2
    95    43    42    1
    96    89    88    1
    97    12     7   am
    98   107   104    1
    99   107   109    1
   100    68    62   am
   101    68    74    1
   102    42    39    1
   103    88    85    1
   104    39    40    1
   105   104   103    1
   106    62    61    1
   107    84    85    1
   108    73    74    1
   109    40    41    2
   110    85    86    1
   111     7     8    2
   112     7     6    1
   113    61    64    1
   114    61    60    1
   115    64    65    1
   116    60    57   am
   117    86    87    2
   118     4     3    2
   119     6     5    1
   120     6     9    1
   121    66    65    1
   122     3     5   am
   123     3     2    1
   124    65    67    1
   125    57    56    1
   126    57    58    2
   127    59    56    1
   128     9    11    1
   129     9    10    1
   130    56    55    1
   131     2     1    1
   132   101   100    1
   133    47    46    2
   134    55    46   am
   135    46    45    1
   136   100    99    1
   137   100   102    1
   138    99    96    1
   139    95    96    1
   140    45    48    1
   141    45    44    1
   142    48    49    1
   143    96    97    1
   144    97    98    2
   145    49    51   ar
   146    49    50   ar
   147    51    53   ar
   148    50    52   ar
   149    53    54   ar
   150    52    54   ar
