@<TRIPOS>MOLECULE
tmp/3seqA02.pdb
 92 88 0 0 0
SMALL
GASTEIGER

@<TRIPOS>ATOM
      1  N         12.9470  -54.0920   69.6050 N.3   355  ARG355     -0.1245
      2  CA        11.8350  -55.0380   69.6260 C.3   355  ARG355      0.1563
      3  C         12.0500  -55.9920   70.7900 C.2   355  ARG355      0.2260
      4  O         11.1140  -56.2300   71.5510 O.2   355  ARG355     -0.2867
      5  CB        11.7010  -55.8070   68.3020 C.3   355  ARG355      0.0307
      6  CG        10.4710  -56.7020   68.2150 C.3   355  ARG355      0.0489
      7  CD         9.1650  -55.9840   68.5790 C.3   355  ARG355      0.2205
      8  NE         8.9690  -54.7740   67.7800 N.pl3 355  ARG355     -0.0865
      9  CZ         8.0680  -54.6230   66.8030 C.cat 355  ARG355      0.5346
     10  NH1        7.2490  -55.5960   66.4700 N.pl3 355  ARG355      0.1354
     11  NH2        7.9960  -53.4770   66.1410 N.pl3 355  ARG355      0.1354
     12  N         11.4740  -54.4780   74.2410 N.3   358  ALA358     -0.1231
     13  CA        10.0540  -54.2460   74.4560 C.3   358  ALA358      0.1694
     14  C          9.2950  -55.5220   74.8000 C.2   358  ALA358      0.2591
     15  O          8.3330  -55.5060   75.5520 O.2   358  ALA358     -0.2718
     16  CB         9.4350  -53.5670   73.2350 C.3   358  ALA358      0.0304
     17  N          9.7250  -56.6400   74.2420 N.am  359  LEU359     -0.1980
     18  CA         9.0770  -57.9020   74.5350 C.3   359  LEU359      0.1596
     19  C          9.7560  -58.6200   75.7290 C.2   359  LEU359      0.2287
     20  O          9.6110  -59.8360   75.9130 O.2   359  LEU359     -0.2864
     21  CB         9.0620  -58.7670   73.2660 C.3   359  LEU359      0.0297
     22  CG         8.3050  -58.1260   72.1060 C.3   359  LEU359      0.0022
     23  CD1        8.4430  -58.8660   70.7850 C.3   359  LEU359      0.0001
     24  CD2        6.8500  -58.0320   72.5090 C.3   359  LEU359      0.0001
     25  N         12.3400  -62.0600   74.4920 N.3   362  PRO362     -0.2116
     26  CA        11.8600  -63.3580   74.0300 C.3   362  PRO362      0.1372
     27  C         13.0000  -64.1150   73.3880 C.2   362  PRO362      0.2244
     28  O         14.0610  -63.5310   73.1480 O.2   362  PRO362     -0.2868
     29  CB        10.8370  -62.9760   72.9720 C.3   362  PRO362      0.0268
     30  CG        11.3540  -61.7060   72.4150 C.3   362  PRO362      0.0207
     31  CD        11.9730  -60.9730   73.5820 C.3   362  PRO362      0.0892
     32  N          6.2300  -70.4010   63.6560 N.3   462  PHE462     -0.1227
     33  CA         5.2930  -69.6180   64.4530 C.3   462  PHE462      0.1736
     34  C          4.8250  -70.4140   65.6610 C.2   462  PHE462      0.2595
     35  O          4.6890  -69.8640   66.7650 O.2   462  PHE462     -0.2718
     36  CB         4.0980  -69.1630   63.6070 C.3   462  PHE462      0.0547
     37  CG         4.2760  -67.8080   63.0010 C.ar  462  PHE462     -0.0202
     38  CD1        3.6410  -66.6970   63.5400 C.ar  462  PHE462     -0.0042
     39  CD2        5.1020  -67.6320   61.8960 C.ar  462  PHE462     -0.0042
     40  CE1        3.8330  -65.4360   62.9800 C.ar  462  PHE462     -0.0003
     41  CE2        5.3050  -66.3660   61.3300 C.ar  462  PHE462     -0.0003
     42  CZ         4.6700  -65.2690   61.8710 C.ar  462  PHE462     -0.0000
     43  N          4.5980  -71.7140   65.4590 N.am  463  ARG463     -0.1980
     44  CA         4.0770  -72.5400   66.5380 C.3   463  ARG463      0.1597
     45  C          5.1540  -72.7820   67.5800 C.2   463  ARG463      0.2287
     46  O          4.8820  -72.7140   68.7910 O.2   463  ARG463     -0.2864
     47  CB         3.4730  -73.8420   66.0110 C.3   463  ARG463      0.0334
     48  CG         2.1200  -73.6320   65.3160 C.3   463  ARG463      0.0492
     49  CD         1.3270  -72.4970   65.9780 C.3   463  ARG463      0.2205
     50  NE         0.6640  -71.6940   64.9670 N.pl3 463  ARG463     -0.0865
     51  CZ         0.5700  -70.3680   65.0050 C.cat 463  ARG463      0.5346
     52  NH1        1.0720  -69.6890   66.0240 N.pl3 463  ARG463      0.1354
     53  NH2       -0.0470  -69.7170   64.0300 N.pl3 463  ARG463      0.1354
     54  N          7.5660  -70.7390   68.1600 N.3   465  ALA465     -0.1231
     55  CA         7.6550  -69.4580   68.8580 C.3   465  ALA465      0.1694
     56  C          6.5800  -69.2780   69.9400 C.2   465  ALA465      0.2592
     57  O          6.8830  -68.7550   71.0230 O.2   465  ALA465     -0.2718
     58  CB         7.6420  -68.2940   67.8760 C.3   465  ALA465      0.0304
     59  N          5.3370  -69.6890   69.6580 N.am  466  ASN466     -0.1974
     60  CA         4.2910  -69.6750   70.6930 C.3   466  ASN466      0.1688
     61  C          4.7070  -70.5830   71.8490 C.2   466  ASN466      0.2292
     62  O          4.5690  -70.2360   73.0240 O.2   466  ASN466     -0.2864
     63  CB         2.9670  -70.2290   70.1740 C.3   466  ASN466      0.1181
     64  CG         2.2740  -69.3270   69.1740 C.2   466  ASN466      0.2629
     65  OD1        1.7480  -69.7910   68.1520 O.2   466  ASN466     -0.2716
     66  ND2        2.2240  -68.0460   69.4820 N.am  466  ASN466     -0.0877
     67  N          8.2470  -69.5580   73.6870 N.3   469  GLY469     -0.1210
     68  CA         8.2560  -68.1670   74.1270 C.3   469  GLY469      0.1956
     69  C          9.1310  -67.2170   73.3030 C.2   469  GLY469      0.2612
     70  O          9.8770  -66.3850   73.8570 O.2   469  GLY469     -0.2717
     71  N          9.0470  -67.3280   71.9760 N.am  470  GLY470     -0.1942
     72  CA         9.8730  -66.5110   71.1060 C.3   470  GLY470      0.2014
     73  C          9.1220  -65.6620   70.0910 C.2   470  GLY470      0.2638
     74  O          7.8860  -65.6240   70.0930 O.2   470  GLY470     -0.2714
     75  N          9.8710  -64.9660   69.2300 N.am  471  ILE471     -0.1977
     76  CA         9.2860  -64.3020   68.0780 C.3   471  ILE471      0.1596
     77  C          9.9800  -64.8270   66.8440 C.2   471  ILE471      0.2287
     78  O         11.1640  -65.1560   66.8940 O.2   471  ILE471     -0.2864
     79  CB         9.4780  -62.7880   68.1300 C.3   471  ILE471      0.0276
     80  CG1       10.9520  -62.4410   68.2770 C.3   471  ILE471      0.0022
     81  CG2        8.7240  -62.1910   69.2850 C.3   471  ILE471      0.0022
     82  CD1       11.2060  -60.9660   68.2320 C.3   471  ILE471      0.0001
     83  N          7.4320  -62.0130   62.8160 N.3   496  HIS496     -0.1241
     84  CA         7.1580  -61.1020   63.9340 C.3   496  HIS496      0.1621
     85  C          7.9410  -59.8210   63.8570 C.2   496  HIS496      0.2264
     86  O          7.5250  -58.7860   64.4170 O.2   496  HIS496     -0.2867
     87  CB         7.4100  -61.7760   65.2680 C.3   496  HIS496      0.0745
     88  CG         6.3590  -62.7780   65.6050 C.ar  496  HIS496      0.0817
     89  ND1        6.5530  -64.1280   65.4470 N.ar  496  HIS496     -0.2268
     90  CD2        5.0790  -62.6240   66.0170 C.ar  496  HIS496      0.1154
     91  CE1        5.4520  -64.7670   65.7880 C.ar  496  HIS496      0.1986
     92  NE2        4.5410  -63.8760   66.1350 N.ar  496  HIS496     -0.2212
@<TRIPOS>BOND
     1    41    42   ar
     2    41    39   ar
     3    42    40   ar
     4    39    37   ar
     5    83    84    1
     6    40    38   ar
     7    37    38   ar
     8    37    36    1
     9    36    33    1
    10    32    33    1
    11    85    84    1
    12    85    86    2
    13    84    87    1
    14    53    51    1
    15    33    34    1
    16    50    51    2
    17    50    49    1
    18    51    52    1
    19    87    88    1
    20    48    49    1
    21    48    47    1
    22    89    88   ar
    23    89    91   ar
    24    43    34   am
    25    43    44    1
    26    88    90   ar
    27    34    35    2
    28    91    92   ar
    29    47    44    1
    30    90    92   ar
    31    11     9    1
    32    10     9    1
    33    44    45    1
    34     9     8    2
    35    77    78    2
    36    77    76    1
    37    45    46    2
    38     8     7    1
    39    58    55    1
    40    76    79    1
    41    76    75    1
    42    79    80    1
    43    79    81    1
    44    65    64    2
    45    54    55    1
    46     6     5    1
    47     6     7    1
    48    82    80    1
    49     5     2    1
    50    55    56    1
    51    64    66   am
    52    64    63    1
    53    75    73   am
    54     1     2    1
    55     2     3    1
    56    59    56   am
    57    59    60    1
    58    56    57    2
    59    73    74    2
    60    73    72    1
    61    63    60    1
    62    60    61    1
    63    23    22    1
    64     3     4    2
    65    72    71    1
    66    61    62    2
    67    71    69   am
    68    22    24    1
    69    22    21    1
    70    30    29    1
    71    30    31    1
    72    29    26    1
    73    28    27    2
    74    16    13    1
    75    21    18    1
    76    69    70    2
    77    69    68    1
    78    27    26    1
    79    31    25    1
    80    67    68    1
    81    26    25    1
    82    12    13    1
    83    17    18    1
    84    17    14   am
    85    13    14    1
    86    18    19    1
    87    14    15    2
    88    19    20    2
