@<TRIPOS>MOLECULE
tmp/3sezD01.pdb
 155 147 0 0 0
SMALL
GASTEIGER

@<TRIPOS>ATOM
      1  N        -13.3140  -70.1330   55.9710 N.3   366  GLY366     -0.1210
      2  CA       -13.5430  -71.1030   57.0240 C.3   366  GLY366      0.1956
      3  C        -14.8090  -70.7450   57.7680 C.2   366  GLY366      0.2612
      4  O        -14.8830  -69.6330   58.3180 O.2   366  GLY366     -0.2717
      5  N        -15.7990  -71.6500   57.7580 N.am  367  VAL367     -0.1965
      6  CA       -17.0890  -71.4190   58.4350 C.3   367  VAL367      0.1727
      7  C        -17.2580  -72.2750   59.6730 C.2   367  VAL367      0.2616
      8  O        -17.2830  -73.4800   59.5820 O.2   367  VAL367     -0.2715
      9  CB       -18.3130  -71.5910   57.4840 C.3   367  VAL367      0.0290
     10  CG1      -18.3910  -70.4250   56.5320 C.3   367  VAL367      0.0023
     11  CG2      -18.2090  -72.8800   56.6960 C.3   367  VAL367      0.0023
     12  N        -17.3800  -71.6400   60.8290 N.am  368  SER368     -0.1950
     13  CA       -17.4010  -72.3530   62.0940 C.3   368  SER368      0.1924
     14  C        -18.7910  -72.3210   62.6790 C.2   368  SER368      0.2314
     15  O        -19.0090  -72.8360   63.7670 O.2   368  SER368     -0.2863
     16  CB       -16.4930  -71.6350   63.0770 C.3   368  SER368      0.2116
     17  OG       -17.0500  -70.3820   63.4320 O.3   368  SER368     -0.2180
     18  N        -20.0050  -69.6020   63.7320 N.3   370  GLY370     -0.1210
     19  CA       -19.9850  -68.4560   64.6350 C.3   370  GLY370      0.1956
     20  C        -20.5360  -67.1880   63.9960 C.2   370  GLY370      0.2612
     21  O        -20.7850  -67.1440   62.7890 O.2   370  GLY370     -0.2717
     22  N        -20.7460  -66.1530   64.7950 N.am  371  LEU371     -0.1965
     23  CA       -21.2880  -64.9140   64.2380 C.3   371  LEU371      0.1728
     24  C        -20.4100  -64.3430   63.1310 C.2   371  LEU371      0.2616
     25  O        -20.9030  -64.0690   62.0390 O.2   371  LEU371     -0.2715
     26  CB       -21.5160  -63.8690   65.3220 C.3   371  LEU371      0.0311
     27  CG       -22.6470  -64.1150   66.3130 C.3   371  LEU371      0.0022
     28  CD1      -22.7580  -62.9980   67.3290 C.3   371  LEU371      0.0001
     29  CD2      -23.9710  -64.2600   65.5720 C.3   371  LEU371      0.0001
     30  N        -19.1120  -64.1850   63.4010 N.am  372  ASP372     -0.1957
     31  CA       -18.2440  -63.5400   62.4340 C.3   372  ASP372      0.1840
     32  C        -18.2140  -64.2250   61.0670 C.2   372  ASP372      0.2622
     33  O        -18.4030  -63.5820   60.0180 O.2   372  ASP372     -0.2715
     34  CB       -16.8370  -63.3580   62.9990 C.3   372  ASP372      0.1450
     35  CG       -16.7480  -62.2130   64.0040 C.2   372  ASP372      0.3671
     36  OD1      -17.7140  -61.4310   64.0870 O.co2 372  ASP372     -0.2456
     37  OD2      -15.7210  -62.0960   64.7120 O.co2 372  ASP372     -0.2456
     38  N        -17.9860  -65.5320   61.0850 N.am  373  SER373     -0.1950
     39  CA       -17.8320  -66.3100   59.8520 C.3   373  SER373      0.1924
     40  C        -19.1450  -66.4010   59.0790 C.2   373  SER373      0.2314
     41  O        -19.1540  -66.4000   57.8440 O.2   373  SER373     -0.2863
     42  CB       -17.2900  -67.6920   60.1750 C.3   373  SER373      0.2116
     43  OG       -17.3010  -67.8680   61.5870 O.3   373  SER373     -0.2180
     44  N        -15.5300  -73.9630   54.1400 N.3   397  PHE397     -0.1227
     45  CA       -14.9270  -75.1180   54.7990 C.3   397  PHE397      0.1736
     46  C        -15.1780  -75.1970   56.2840 C.2   397  PHE397      0.2595
     47  O        -14.9360  -74.2460   57.0300 O.2   397  PHE397     -0.2718
     48  CB       -13.4280  -75.1170   54.6210 C.3   397  PHE397      0.0547
     49  CG       -12.9890  -75.4100   53.2370 C.ar  397  PHE397     -0.0202
     50  CD1      -12.8370  -74.3880   52.3100 C.ar  397  PHE397     -0.0042
     51  CD2      -12.7110  -76.6990   52.8590 C.ar  397  PHE397     -0.0042
     52  CE1      -12.4230  -74.6660   51.0290 C.ar  397  PHE397     -0.0003
     53  CE2      -12.2910  -76.9850   51.5850 C.ar  397  PHE397     -0.0003
     54  CZ       -12.1450  -75.9750   50.6670 C.ar  397  PHE397     -0.0000
     55  N        -15.6270  -76.3700   56.7080 N.am  398  ALA398     -0.1966
     56  CA       -15.6690  -76.7010   58.1180 C.3   398  ALA398      0.1728
     57  C        -14.3550  -77.3830   58.3800 C.2   398  ALA398      0.2616
     58  O        -13.9570  -78.2500   57.6050 O.2   398  ALA398     -0.2715
     59  CB       -16.8170  -77.6340   58.4150 C.3   398  ALA398      0.0334
     60  N        -13.6860  -76.9840   59.4610 N.am  399  LEU399     -0.1964
     61  CA       -12.3410  -77.4750   59.7790 C.3   399  LEU399      0.1713
     62  C        -12.2780  -77.9970   61.2050 C.2   399  LEU399      0.2458
     63  O        -11.5900  -77.4170   62.0490 O.2   399  LEU399     -0.2730
     64  CB       -11.2950  -76.3650   59.6030 C.3   399  LEU399      0.0310
     65  CG       -11.2710  -75.7210   58.2140 C.3   399  LEU399      0.0022
     66  CD1      -10.5630  -74.3970   58.2210 C.3   399  LEU399      0.0001
     67  CD2      -10.6450  -76.6660   57.2050 C.3   399  LEU399      0.0001
     68  N        -12.9910  -79.1040   61.4710 N.am  400  PRO400     -0.2727
     69  CA       -13.1210  -79.7180   62.8040 C.3   400  PRO400      0.1402
     70  C        -11.7570  -80.0480   63.4540 C.2   400  PRO400      0.2269
     71  O        -10.8280  -80.6040   62.8120 O.2   400  PRO400     -0.2865
     72  CB       -13.8650  -81.0230   62.5270 C.3   400  PRO400      0.0296
     73  CG       -14.3720  -80.9380   61.1390 C.3   400  PRO400      0.0237
     74  CD       -13.5660  -79.9420   60.4000 C.3   400  PRO400      0.0939
     75  N         -5.7470  -74.4010   60.6010 N.3   446  ARG446     -0.1245
     76  CA        -6.8860  -73.9410   59.8260 C.3   446  ARG446      0.1563
     77  C         -6.4780  -72.9350   58.7520 C.2   446  ARG446      0.2260
     78  O         -6.8390  -73.0610   57.5740 O.2   446  ARG446     -0.2867
     79  CB        -7.9730  -73.3700   60.7340 C.3   446  ARG446      0.0307
     80  CG        -8.5010  -74.3790   61.7150 C.3   446  ARG446      0.0489
     81  CD        -9.7570  -73.9090   62.4070 C.3   446  ARG446      0.2205
     82  NE       -10.4210  -75.0670   62.9950 N.pl3 446  ARG446     -0.0865
     83  CZ       -10.3380  -75.4040   64.2770 C.cat 446  ARG446      0.5346
     84  NH1       -9.6470  -74.6460   65.1210 N.pl3 446  ARG446      0.1354
     85  NH2      -10.9630  -76.4960   64.7160 N.pl3 446  ARG446      0.1354
     86  N         -6.4100  -73.3530   54.6830 N.3   450  LEU450     -0.1245
     87  CA        -7.1530  -72.4370   53.8360 C.3   450  LEU450      0.1561
     88  C         -6.2480  -71.7470   52.8020 C.2   450  LEU450      0.2260
     89  O         -6.6330  -71.6050   51.6430 O.2   450  LEU450     -0.2867
     90  CB        -7.8670  -71.4230   54.6900 C.3   450  LEU450      0.0270
     91  CG        -8.9490  -71.9740   55.6050 C.3   450  LEU450      0.0019
     92  CD1       -9.4050  -70.8870   56.5570 C.3   450  LEU450      0.0001
     93  CD2      -10.0810  -72.4240   54.7410 C.3   450  LEU450      0.0001
     94  N        -11.9360  -62.9860   58.5960 N.3   464  THR464     -0.1218
     95  CA       -13.1830  -63.1620   59.2790 C.3   464  THR464      0.1862
     96  C        -13.2640  -62.3810   60.5840 C.2   464  THR464      0.2287
     97  O        -14.3530  -62.0590   61.0460 O.2   464  THR464     -0.2866
     98  CB       -13.4290  -64.7010   59.5200 C.3   464  THR464      0.1770
     99  OG1      -14.7520  -65.0340   59.1000 O.3   464  THR464     -0.2211
    100  CG2      -13.2460  -65.0540   60.9820 C.3   464  THR464      0.0375
    101  N        -11.9450  -57.6790   68.0260 N.3   469  GLU469     -0.1245
    102  CA       -10.8300  -58.6520   68.1700 C.3   469  GLU469      0.1567
    103  C         -9.5020  -57.9960   67.7830 C.2   469  GLU469      0.2260
    104  O         -8.5050  -58.2110   68.4380 O.2   469  GLU469     -0.2867
    105  CB       -11.1260  -59.8990   67.3540 C.3   469  GLU469      0.0388
    106  CG       -12.1470  -60.8160   68.0270 C.3   469  GLU469      0.1160
    107  CD       -12.7660  -61.8470   67.0880 C.2   469  GLU469      0.3649
    108  OE1      -12.6450  -61.7160   65.8510 O.co2 469  GLU469     -0.2457
    109  OE2      -13.3980  -62.7870   67.6040 O.co2 469  GLU469     -0.2457
    110  N         -7.1860  -60.2570   70.2430 N.3   474  TRP474     -0.1241
    111  CA        -7.7880  -61.5570   70.4740 C.3   474  TRP474      0.1605
    112  C         -7.8780  -62.2930   69.1350 C.2   474  TRP474      0.2264
    113  O         -8.8950  -62.2490   68.4340 O.2   474  TRP474     -0.2867
    114  CB        -9.1750  -61.3850   71.1130 C.3   474  TRP474      0.0550
    115  CG        -9.8030  -62.6430   71.5890 C.ar  474  TRP474      0.0003
    116  CD1      -10.8000  -63.3500   70.9770 C.ar  474  TRP474      0.0946
    117  CD2       -9.4710  -63.3650   72.7790 C.ar  474  TRP474      0.0152
    118  NE1      -11.1010  -64.4770   71.7130 N.ar  474  TRP474     -0.2442
    119  CE2      -10.3020  -64.5060   72.8270 C.ar  474  TRP474      0.0810
    120  CE3       -8.5470  -63.1630   73.8130 C.ar  474  TRP474      0.0012
    121  CZ2      -10.2460  -65.4260   73.8630 C.ar  474  TRP474      0.0191
    122  CZ3       -8.4940  -64.0870   74.8500 C.ar  474  TRP474      0.0001
    123  CH2       -9.3320  -65.2020   74.8630 C.ar  474  TRP474      0.0015
    124  N         -5.9460  -66.9680   62.4980 N.3   481  ASP481     -0.1239
    125  CA        -7.1290  -66.2440   62.0090 C.3   481  ASP481      0.1674
    126  C         -6.8960  -64.7410   61.8350 C.2   481  ASP481      0.2266
    127  O         -7.7210  -64.0520   61.2500 O.2   481  ASP481     -0.2867
    128  CB        -8.3070  -66.4810   62.9630 C.3   481  ASP481      0.1410
    129  CG        -7.9390  -66.1910   64.4030 C.2   481  ASP481      0.3668
    130  OD1       -7.0380  -66.8740   64.9390 O.co2 481  ASP481     -0.2456
    131  OD2       -8.5400  -65.2940   65.0040 O.co2 481  ASP481     -0.2456
    132  N        -17.7090  -56.0530   67.1360 N.3   494  LYS494     -0.1245
    133  CA       -18.5560  -57.1730   67.5080 C.3   494  LYS494      0.1561
    134  C        -20.0010  -56.7810   67.8800 C.2   494  LYS494      0.2260
    135  O        -20.9480  -57.4760   67.4900 O.2   494  LYS494     -0.2867
    136  CB       -17.9150  -57.9830   68.6240 C.3   494  LYS494      0.0271
    137  CG       -18.4430  -59.4640   68.6860 C.3   494  LYS494      0.0035
    138  CD       -17.6620  -60.2790   69.6950 C.3   494  LYS494      0.0206
    139  CE       -16.2080  -60.4920   69.2600 C.3   494  LYS494      0.1093
    140  NZ       -16.0750  -61.4910   68.1400 N.3   494  LYS494     -0.1314
    141  N        -25.7040  -68.4760   69.0540 N.3   525  GLU525     -0.1245
    142  CA       -24.4640  -67.7620   69.4880 C.3   525  GLU525      0.1567
    143  C        -24.6340  -66.7580   70.6360 C.2   525  GLU525      0.2260
    144  O        -23.6380  -66.4030   71.2520 O.2   525  GLU525     -0.2867
    145  CB       -23.7780  -67.1130   68.2950 C.3   525  GLU525      0.0388
    146  CG       -23.4530  -68.1000   67.1910 C.3   525  GLU525      0.1160
    147  CD       -22.7530  -69.3610   67.6940 C.2   525  GLU525      0.3649
    148  OE1      -21.5970  -69.2570   68.2090 O.co2 525  GLU525     -0.2457
    149  OE2      -23.3670  -70.4570   67.5470 O.co2 525  GLU525     -0.2457
    150  N        -14.1260  -66.4790   75.7380 N.3   527  SER527     -0.1217
    151  CA       -13.5760  -65.2480   75.1420 C.3   527  SER527      0.1889
    152  C        -13.8570  -63.9790   75.9680 C.2   527  SER527      0.2288
    153  O        -12.9520  -63.3760   76.5510 O.2   527  SER527     -0.2866
    154  CB       -14.1260  -65.0340   73.7270 C.3   527  SER527      0.2089
    155  OG       -13.9530  -63.6670   73.3380 O.3   527  SER527     -0.2183
@<TRIPOS>BOND
     1    54    52   ar
     2    54    53   ar
     3    52    50   ar
     4    53    51   ar
     5    89    88    2
     6    50    49   ar
     7    88    87    1
     8    51    49   ar
     9    49    48    1
    10    87    86    1
    11    87    90    1
    12    44    45    1
    13    48    45    1
    14    90    91    1
    15    93    91    1
    16    45    46    1
    17    91    92    1
    18     1     2    1
    19    46    55   am
    20    46    47    2
    21    10     9    1
    22    11     9    1
    23    55    56    1
    24     2     3    1
    25    67    65    1
    26     9     6    1
    27    78    77    2
    28    58    57    2
    29     5     3   am
    30     5     6    1
    31     3     4    2
    32    41    40    2
    33    56    57    1
    34    56    59    1
    35    65    66    1
    36    65    64    1
    37    57    60   am
    38     6     7    1
    39    94    95    1
    40    77    76    1
    41    40    39    1
    42    99    98    1
    43    95    98    1
    44    95    96    1
    45    60    61    1
    46    98   100    1
    47     8     7    2
    48    64    61    1
    49     7    12   am
    50    61    62    1
    51    76    75    1
    52    76    79    1
    53    39    42    1
    54    39    38    1
    55    33    32    2
    56    42    43    1
    57    74    73    1
    58    74    68    1
    59    96    97    2
    60    79    80    1
    61    12    13    1
    62    32    38   am
    63    32    31    1
    64    73    72    1
    65    62    68   am
    66    62    63    2
    67   127   126    2
    68    68    69    1
    69    80    81    1
    70   126   125    1
    71   125   124    1
    72   125   128    1
    73    25    24    2
    74    13    14    1
    75    13    16    1
    76    81    82    1
    77    31    34    1
    78    31    30    1
    79    72    69    1
    80    14    15    2
    81    21    20    2
    82    69    70    1
    83    71    70    2
    84   128   129    1
    85    82    83    2
    86    34    35    1
    87    16    17    1
    88    24    30   am
    89    24    23    1
    90    18    19    1
    91    20    19    1
    92    20    22   am
    93    35    36   ar
    94    35    37   ar
    95    23    22    1
    96    23    26    1
    97    83    85    1
    98    83    84    1
    99   129   130   ar
   100   129   131   ar
   101    26    27    1
   102    29    27    1
   103   108   107   ar
   104    27    28    1
   105   107   109   ar
   106   107   106    1
   107   132   133    1
   108   146   147    1
   109   146   145    1
   110   105   106    1
   111   105   102    1
   112   135   134    2
   113   133   134    1
   114   133   136    1
   115   149   147   ar
   116   147   148   ar
   117   103   102    1
   118   103   104    2
   119   101   102    1
   120   140   139    1
   121   145   142    1
   122   113   112    2
   123   136   137    1
   124   137   138    1
   125   141   142    1
   126   112   111    1
   127   139   138    1
   128   142   143    1
   129   110   111    1
   130   111   114    1
   131   143   144    2
   132   116   115   ar
   133   116   118   ar
   134   114   115    1
   135   115   117   ar
   136   118   119   ar
   137   117   119   ar
   138   117   120   ar
   139   119   121   ar
   140   155   154    1
   141   154   151    1
   142   120   122   ar
   143   121   123   ar
   144   122   123   ar
   145   151   150    1
   146   151   152    1
   147   152   153    2
