@<TRIPOS>MOLECULE
tmp/3sf5A03.pdb
 120 115 0 0 0
SMALL
GASTEIGER

@<TRIPOS>ATOM
      1  N         -6.5830   37.2110  100.4600 N.3    13  VAL13      -0.1231
      2  CA        -6.4260   36.8650  101.8750 C.3    13  VAL13       0.1692
      3  C         -5.1750   36.0250  102.1580 C.2    13  VAL13       0.2592
      4  O         -4.7040   35.9760  103.2960 O.2    13  VAL13      -0.2718
      5  CB        -7.6690   36.1370  102.4500 C.3    13  VAL13       0.0266
      6  CG1       -8.9350   36.9580  102.2140 C.3    13  VAL13       0.0020
      7  CG2       -7.7990   34.7390  101.8570 C.3    13  VAL13       0.0020
      8  N         -4.6470   35.3640  101.1290 N.am   14  ASN14      -0.1960
      9  CA        -3.4300   34.5620  101.2680 C.3    14  ASN14       0.1819
     10  C         -2.1940   35.3280  100.8120 C.2    14  ASN14       0.2621
     11  O         -1.0670   34.8410  100.9200 O.2    14  ASN14      -0.2715
     12  CB        -3.5480   33.2540  100.4820 C.3    14  ASN14       0.1195
     13  CG        -4.4710   32.2530  101.1490 C.2    14  ASN14       0.2630
     14  OD1       -4.2670   31.8730  102.3000 O.2    14  ASN14      -0.2716
     15  ND2       -5.4930   31.8190  100.4260 N.am   14  ASN14      -0.0877
     16  N         -2.4220   36.5260  100.2900 N.am   15  ASP15      -0.1957
     17  CA        -1.3470   37.3920   99.8370 C.3    15  ASP15       0.1840
     18  C         -0.3820   37.6650  100.9870 C.2    15  ASP15       0.2621
     19  O         -0.8020   37.9280  102.1150 O.2    15  ASP15      -0.2715
     20  CB        -1.9340   38.7040   99.3190 C.3    15  ASP15       0.1450
     21  CG        -0.9310   39.5380   98.5510 C.2    15  ASP15       0.3671
     22  OD1        0.2880   39.2940   98.6750 O.co2  15  ASP15      -0.2456
     23  OD2       -1.3710   40.4550   97.8250 O.co2  15  ASP15      -0.2456
     24  N          0.9130   37.5970  100.7040 N.am   16  ALA16      -0.1977
     25  CA         1.9170   37.8420  101.7320 C.3    16  ALA16       0.1597
     26  C          1.7380   39.2100  102.3920 C.2    16  ALA16       0.2287
     27  O          2.1870   39.4190  103.5170 O.2    16  ALA16      -0.2864
     28  CB         3.3200   37.7010  101.1560 C.3    16  ALA16       0.0319
     29  N         -1.2590   40.6860  102.9740 N.3    18  PHE18      -0.1241
     30  CA        -2.5080   40.7550  103.7260 C.3    18  PHE18       0.1605
     31  C         -2.1680   41.1030  105.1770 C.2    18  PHE18       0.2264
     32  O         -1.4900   40.3370  105.8590 O.2    18  PHE18      -0.2867
     33  CB        -3.2530   39.4230  103.6350 C.3    18  PHE18       0.0534
     34  CG        -4.6760   39.4850  104.1070 C.ar   18  PHE18      -0.0203
     35  CD1       -5.6080   40.2620  103.4390 C.ar   18  PHE18      -0.0042
     36  CD2       -5.0870   38.7530  105.2080 C.ar   18  PHE18      -0.0042
     37  CE1       -6.9220   40.3170  103.8690 C.ar   18  PHE18      -0.0003
     38  CE2       -6.3960   38.8040  105.6430 C.ar   18  PHE18      -0.0003
     39  CZ        -7.3160   39.5860  104.9720 C.ar   18  PHE18      -0.0000
     40  N         -1.9640   41.1180  108.5080 N.3    20  ILE20      -0.1245
     41  CA        -2.2030   40.5120  109.8180 C.3    20  ILE20       0.1561
     42  C         -0.9170   40.2770  110.6150 C.2    20  ILE20       0.2260
     43  O         -0.9570   39.7720  111.7340 O.2    20  ILE20      -0.2867
     44  CB        -3.0200   39.2060  109.7230 C.3    20  ILE20       0.0252
     45  CG1       -2.2690   38.1540  108.9090 C.3    20  ILE20       0.0019
     46  CG2       -4.3920   39.4790  109.1240 C.3    20  ILE20       0.0019
     47  CD1       -3.0070   36.8510  108.7940 C.3    20  ILE20       0.0001
     48  N          1.9790   38.4610  109.8150 N.3    22  SER22      -0.1217
     49  CA         2.6340   37.1590  109.7500 C.3    22  SER22       0.1889
     50  C          4.1540   37.2860  109.7710 C.2    22  SER22       0.2288
     51  O          4.8420   36.5090  110.4370 O.2    22  SER22      -0.2866
     52  CB         2.2030   36.4040  108.4900 C.3    22  SER22       0.2089
     53  OG         0.8110   36.1390  108.4970 O.3    22  SER22      -0.2183
     54  N         -7.1200   38.7010  111.3840 N.3   106  PHE106     -0.1241
     55  CA        -7.7320   38.1710  110.1700 C.3   106  PHE106      0.1605
     56  C         -9.2140   38.5330  110.1040 C.2   106  PHE106      0.2264
     57  O         -9.7020   39.0020  109.0780 O.2   106  PHE106     -0.2867
     58  CB        -7.5500   36.6520  110.1050 C.3   106  PHE106      0.0534
     59  CG        -8.1820   36.0110  108.9020 C.ar  106  PHE106     -0.0203
     60  CD1       -9.4070   35.3760  109.0040 C.ar  106  PHE106     -0.0042
     61  CD2       -7.5480   36.0370  107.6720 C.ar  106  PHE106     -0.0042
     62  CE1       -9.9900   34.7840  107.9040 C.ar  106  PHE106     -0.0003
     63  CE2       -8.1270   35.4470  106.5650 C.ar  106  PHE106     -0.0003
     64  CZ        -9.3500   34.8190  106.6820 C.ar  106  PHE106     -0.0000
     65  N         -5.8100   31.8870  113.1460 N.3   134  HIS134     -0.1241
     66  CA        -5.7730   32.1570  111.7210 C.3   134  HIS134      0.1621
     67  C         -6.4220   30.9940  110.9680 C.2   134  HIS134      0.2264
     68  O         -7.2520   31.2020  110.0840 O.2   134  HIS134     -0.2867
     69  CB        -4.3250   32.3680  111.2730 C.3   134  HIS134      0.0745
     70  CG        -4.1830   32.8250  109.8570 C.ar  134  HIS134      0.0817
     71  ND1       -2.9650   32.8930  109.2140 N.ar  134  HIS134     -0.2268
     72  CD2       -5.1070   33.2370  108.9530 C.ar  134  HIS134      0.1154
     73  CE1       -3.1420   33.3240  107.9810 C.ar  134  HIS134      0.1986
     74  NE2       -4.4320   33.5420  107.7950 N.ar  134  HIS134     -0.2212
     75  N        -10.1210   31.1110  109.2200 N.3   138  TYR138     -0.1241
     76  CA        -9.9730   30.9770  107.7730 C.3   138  TYR138      0.1605
     77  C        -10.8020   29.8080  107.2380 C.2   138  TYR138      0.2264
     78  O        -11.3200   29.8570  106.1210 O.2   138  TYR138     -0.2867
     79  CB        -8.4960   30.7910  107.4180 C.3   138  TYR138      0.0534
     80  CG        -8.2140   30.4930  105.9600 C.ar  138  TYR138     -0.0201
     81  CD1       -8.2260   29.1880  105.4820 C.ar  138  TYR138     -0.0009
     82  CD2       -7.9140   31.5130  105.0680 C.ar  138  TYR138     -0.0009
     83  CE1       -7.9610   28.9090  104.1550 C.ar  138  TYR138      0.0417
     84  CE2       -7.6460   31.2450  103.7390 C.ar  138  TYR138      0.0417
     85  CZ        -7.6700   29.9420  103.2870 C.ar  138  TYR138      0.1957
     86  OH        -7.4050   29.6740  101.9600 O.3   138  TYR138     -0.2866
     87  N         -3.6710   28.1950  101.6770 N.3   156  TYR156     -0.1241
     88  CA        -3.2440   28.4170  103.0500 C.3   156  TYR156      0.1605
     89  C         -1.8830   27.7700  103.2950 C.2   156  TYR156      0.2264
     90  O         -0.9880   28.3860  103.8680 O.2   156  TYR156     -0.2867
     91  CB        -4.2820   27.8680  104.0290 C.3   156  TYR156      0.0534
     92  CG        -4.1010   28.3590  105.4460 C.ar  156  TYR156     -0.0201
     93  CD1       -3.3880   27.6130  106.3770 C.ar  156  TYR156     -0.0009
     94  CD2       -4.6410   29.5720  105.8540 C.ar  156  TYR156     -0.0009
     95  CE1       -3.2210   28.0640  107.6760 C.ar  156  TYR156      0.0417
     96  CE2       -4.4780   30.0290  107.1460 C.ar  156  TYR156      0.0417
     97  CZ        -3.7700   29.2730  108.0530 C.ar  156  TYR156      0.1957
     98  OH        -3.6140   29.7330  109.3410 O.3   156  TYR156     -0.2866
     99  N          1.0110   29.6170  101.4120 N.3   159  ALA159     -0.1231
    100  CA         1.2340   30.9420  101.9790 C.3   159  ALA159      0.1694
    101  C          2.0150   30.8860  103.2850 C.2   159  ALA159      0.2591
    102  O          2.9090   31.6980  103.5180 O.2   159  ALA159     -0.2718
    103  CB        -0.0920   31.6620  102.1880 C.3   159  ALA159      0.0304
    104  N          1.6710   29.9300  104.1390 N.am  160  GLN160     -0.1979
    105  CA         2.3440   29.8010  105.4230 C.3   160  GLN160      0.1601
    106  C          3.7620   29.2840  105.2350 C.2   160  GLN160      0.2287
    107  O          4.6970   29.7560  105.8810 O.2   160  GLN160     -0.2864
    108  CB         1.5580   28.8840  106.3560 C.3   160  GLN160      0.0394
    109  CG         0.1210   29.3320  106.5850 C.3   160  GLN160      0.0908
    110  CD         0.0290   30.7170  107.1920 C.2   160  GLN160      0.2608
    111  OE1        0.0700   30.8750  108.4130 O.2   160  GLN160     -0.2717
    112  NE2       -0.0990   31.7300  106.3430 N.am  160  GLN160     -0.0878
    113  N          6.0410   32.0110  103.9560 N.3   163  ASN163     -0.1240
    114  CA         6.4700   32.8780  105.0520 C.3   163  ASN163      0.1653
    115  C          7.6130   32.2610  105.8510 C.2   163  ASN163      0.2266
    116  O          8.5520   32.9550  106.2450 O.2   163  ASN163     -0.2867
    117  CB         5.3030   33.2230  105.9830 C.3   163  ASN163      0.1155
    118  CG         4.2480   34.0810  105.3070 C.2   163  ASN163      0.2627
    119  OD1        4.4540   34.5880  104.2030 O.2   163  ASN163     -0.2716
    120  ND2        3.1120   34.2580  105.9760 N.am  163  ASN163     -0.0877
@<TRIPOS>BOND
     1    23    21   ar
     2    21    22   ar
     3    21    20    1
     4    20    17    1
     5    17    16    1
     6    17    18    1
     7    16    10   am
     8    15    13   am
     9     1     2    1
    10    12    13    1
    11    12     9    1
    12    24    18   am
    13    24    25    1
    14    10    11    2
    15    10     9    1
    16    18    19    2
    17     8     9    1
    18     8     3   am
    19    13    14    2
    20    28    25    1
    21    99   100    1
    22    87    88    1
    23    25    26    1
    24     7     5    1
    25     2     3    1
    26     2     5    1
    27    86    85    1
    28   100   103    1
    29   100   101    1
    30     3     4    2
    31     6     5    1
    32    26    27    2
    33    29    30    1
    34    88    89    1
    35    88    91    1
    36   101   102    2
    37   101   104   am
    38    85    84   ar
    39    85    83   ar
    40    89    90    2
    41    35    37   ar
    42    35    34   ar
    43    33    30    1
    44    33    34    1
    45    30    31    1
    46    84    82   ar
    47    37    39   ar
    48   113   114    1
    49    91    92    1
    50    34    36   ar
    51   104   105    1
    52    83    81   ar
    53   119   118    2
    54    39    38   ar
    55   114   115    1
    56   114   117    1
    57    82    80   ar
    58    31    32    2
    59    36    38   ar
    60   106   105    1
    61   106   107    2
    62   118   120   am
    63   118   117    1
    64   105   108    1
    65    92    94   ar
    66    92    93   ar
    67    81    80   ar
    68   115   116    2
    69    94    96   ar
    70    80    79    1
    71    78    77    2
    72   112   110   am
    73   108   109    1
    74    93    95   ar
    75    63    64   ar
    76    63    61   ar
    77   109   110    1
    78    64    62   ar
    79    96    97   ar
    80   110   111    2
    81    77    76    1
    82    79    76    1
    83    61    59   ar
    84    95    97   ar
    85    76    75    1
    86    74    73   ar
    87    74    72   ar
    88    62    60   ar
    89    73    71   ar
    90    97    98    1
    91    52    53    1
    92    52    49    1
    93    40    41    1
    94    47    45    1
    95    59    60   ar
    96    59    58    1
    97    45    44    1
    98    72    70   ar
    99    57    56    2
   100    46    44    1
   101    71    70   ar
   102    44    41    1
   103    49    50    1
   104    49    48    1
   105    50    51    2
   106    41    42    1
   107    70    69    1
   108    68    67    2
   109    56    55    1
   110    58    55    1
   111    55    54    1
   112    42    43    2
   113    67    66    1
   114    69    66    1
   115    66    65    1
