@<TRIPOS>MOLECULE
tmp/3sf5B01.pdb
 84 81 0 0 0
SMALL
GASTEIGER

@<TRIPOS>ATOM
      1  N          9.5790    1.2590  136.1640 N.3    78  PHE78      -0.1241
      2  CA         9.3620    1.5630  134.7550 C.3    78  PHE78       0.1605
      3  C          8.3050    0.6210  134.1980 C.2    78  PHE78       0.2264
      4  O          8.2640   -0.5580  134.5480 O.2    78  PHE78      -0.2867
      5  CB        10.6620    1.4250  133.9580 C.3    78  PHE78       0.0534
      6  CG        11.6630    2.5130  134.2350 C.ar   78  PHE78      -0.0203
      7  CD1       12.5000    2.4430  135.3380 C.ar   78  PHE78      -0.0042
      8  CD2       11.7680    3.6060  133.3910 C.ar   78  PHE78      -0.0042
      9  CE1       13.4200    3.4440  135.5950 C.ar   78  PHE78      -0.0003
     10  CE2       12.6880    4.6120  133.6420 C.ar   78  PHE78      -0.0003
     11  CZ        13.5130    4.5300  134.7450 C.ar   78  PHE78      -0.0000
     12  N          8.1810    2.4520  128.6440 N.3   111  ILE111     -0.1245
     13  CA         9.1750    1.8840  127.7380 C.3   111  ILE111      0.1561
     14  C          8.5080    0.9080  126.7790 C.2   111  ILE111      0.2260
     15  O          8.3280   -0.2650  127.1060 O.2   111  ILE111     -0.2867
     16  CB        10.2850    1.1380  128.4900 C.3   111  ILE111      0.0252
     17  CG1       10.8500    2.0020  129.6170 C.3   111  ILE111      0.0019
     18  CG2       11.3890    0.7280  127.5250 C.3   111  ILE111      0.0019
     19  CD1       11.8920    1.2930  130.4460 C.3   111  ILE111      0.0001
     20  N          9.7710    7.0110  126.8700 N.3   139  VAL139     -0.1245
     21  CA        11.0550    6.6180  126.3080 C.3   139  VAL139      0.1561
     22  C         10.8510    6.0300  124.9150 C.2   139  VAL139      0.2260
     23  O          9.8040    5.4480  124.6290 O.2   139  VAL139     -0.2867
     24  CB        11.7770    5.6060  127.2180 C.3   139  VAL139      0.0252
     25  CG1       13.2300    5.4590  126.8030 C.3   139  VAL139      0.0019
     26  CG2       11.6850    6.0490  128.6700 C.3   139  VAL139      0.0019
     27  N         12.0640    3.5510  123.5920 N.3   141  GLY141     -0.1210
     28  CA        12.1300    2.1020  123.5970 C.3   141  GLY141      0.1956
     29  C         13.3020    1.6700  124.4500 C.2   141  GLY141      0.2612
     30  O         13.7860    2.4460  125.2710 O.2   141  GLY141     -0.2717
     31  N         13.7620    0.4370  124.2650 N.am  142  ARG142     -0.1965
     32  CA        14.9430   -0.0400  124.9750 C.3   142  ARG142      0.1729
     33  C         16.2030    0.5130  124.3270 C.2   142  ARG142      0.2616
     34  O         16.8300   -0.1420  123.4920 O.2   142  ARG142     -0.2715
     35  CB        14.9780   -1.5690  125.0190 C.3   142  ARG142      0.0348
     36  CG        13.9750   -2.1670  125.9900 C.3   142  ARG142      0.0492
     37  CD        13.9290   -3.6750  125.8850 C.3   142  ARG142      0.2205
     38  NE        13.3990   -4.1040  124.5960 N.pl3 142  ARG142     -0.0865
     39  CZ        13.1480   -5.3690  124.2800 C.cat 142  ARG142      0.5346
     40  NH1       13.3780   -6.3310  125.1630 N.pl3 142  ARG142      0.1354
     41  NH2       12.6650   -5.6710  123.0830 N.pl3 142  ARG142      0.1354
     42  N         16.5590    1.7270  124.7300 N.am  143  VAL143     -0.1977
     43  CA        17.6690    2.4720  124.1470 C.3   143  VAL143      0.1596
     44  C         18.9890    1.6980  124.1290 C.2   143  VAL143      0.2287
     45  O         19.8010    1.8690  123.2200 O.2   143  VAL143     -0.2864
     46  CB        17.8690    3.8090  124.8940 C.3   143  VAL143      0.0276
     47  CG1       19.0140    4.6020  124.2890 C.3   143  VAL143      0.0022
     48  CG2       16.5840    4.6210  124.8650 C.3   143  VAL143      0.0022
     49  N         14.3890   10.3380  125.5570 N.3   192  HIS192     -0.1241
     50  CA        13.5350   10.3930  126.7390 C.3   192  HIS192      0.1621
     51  C         12.7710   11.7060  126.7780 C.2   192  HIS192      0.2264
     52  O         13.3520   12.7760  126.6070 O.2   192  HIS192     -0.2867
     53  CB        14.3660   10.2380  128.0150 C.3   192  HIS192      0.0745
     54  CG        15.0160    8.8980  128.1530 C.ar  192  HIS192      0.0817
     55  ND1       16.0320    8.4740  127.3250 N.ar  192  HIS192     -0.2268
     56  CD2       14.7950    7.8860  129.0260 C.ar  192  HIS192      0.1154
     57  CE1       16.4090    7.2580  127.6790 C.ar  192  HIS192      0.1986
     58  NE2       15.6740    6.8790  128.7100 N.ar  192  HIS192     -0.2212
     59  N         18.8160   10.0570  128.5720 N.3   238  GLY238     -0.1210
     60  CA        18.6710    9.0780  129.6310 C.3   238  GLY238      0.1956
     61  C         17.5490    9.5180  130.5490 C.2   238  GLY238      0.2613
     62  O         17.0980   10.6590  130.4790 O.2   238  GLY238     -0.2717
     63  N         17.0930    8.6210  131.4100 N.am  239  SER239     -0.1938
     64  CA        15.9930    8.9400  132.3120 C.3   239  SER239      0.2055
     65  C         16.4630    9.7360  133.5270 C.2   239  SER239      0.2643
     66  O         15.7070   10.5230  134.0930 O.2   239  SER239     -0.2714
     67  CB        15.2810    7.6620  132.7580 C.3   239  SER239      0.2130
     68  OG        16.2120    6.7190  133.2640 O.3   239  SER239     -0.2179
     69  N         17.7160    9.5370  133.9180 N.am  240  GLU240     -0.1963
     70  CA        18.2420   10.1520  135.1340 C.3   240  GLU240      0.1718
     71  C         18.1920   11.6850  135.1220 C.2   240  GLU240      0.2458
     72  O         17.7740   12.2970  136.1070 O.2   240  GLU240     -0.2730
     73  CB        19.6620    9.6500  135.4230 C.3   240  GLU240      0.0428
     74  CG        20.1490    9.9160  136.8410 C.3   240  GLU240      0.1163
     75  CD        20.5590   11.3610  137.0630 C.2   240  GLU240      0.3649
     76  OE1       21.1210   11.9750  136.1290 O.co2 240  GLU240     -0.2457
     77  OE2       20.3190   11.8860  138.1720 O.co2 240  GLU240     -0.2457
     78  N         18.6240   12.3130  134.0160 N.am  241  PRO241     -0.2727
     79  CA        18.5790   13.7790  133.9700 C.3   241  PRO241      0.1402
     80  C         17.1530   14.3120  134.0850 C.2   241  PRO241      0.2269
     81  O         16.9400   15.3670  134.6820 O.2   241  PRO241     -0.2865
     82  CB        19.1630   14.1060  132.5920 C.3   241  PRO241      0.0296
     83  CG        20.0120   12.9200  132.2490 C.3   241  PRO241      0.0237
     84  CD        19.2890   11.7420  132.8300 C.3   241  PRO241      0.0939
@<TRIPOS>BOND
     1    41    39    1
     2    45    44    2
     3    34    33    2
     4    27    28    1
     5    28    29    1
     6    44    43    1
     7    43    42    1
     8    43    46    1
     9    31    29   am
    10    31    32    1
    11    39    38    2
    12    39    40    1
    13    47    46    1
    14    33    42   am
    15    33    32    1
    16    29    30    2
    17    38    37    1
    18    23    22    2
    19    48    46    1
    20    22    21    1
    21    32    35    1
    22    35    36    1
    23    49    50    1
    24    37    36    1
    25    21    20    1
    26    21    24    1
    27    52    51    2
    28    50    51    1
    29    50    53    1
    30    14    15    2
    31    14    13    1
    32    25    24    1
    33    24    26    1
    34    55    57   ar
    35    55    54   ar
    36    18    16    1
    37    57    58   ar
    38    13    16    1
    39    13    12    1
    40    53    54    1
    41    54    56   ar
    42    16    17    1
    43    59    60    1
    44    58    56   ar
    45    17    19    1
    46    60    61    1
    47    62    61    2
    48    61    63   am
    49    63    64    1
    50    83    82    1
    51    83    84    1
    52    64    67    1
    53    64    65    1
    54    82    79    1
    55    67    68    1
    56    84    78    1
    57     8    10   ar
    58     8     6   ar
    59    65    69   am
    60    65    66    2
    61    10    11   ar
    62    69    70    1
    63     5     6    1
    64     5     2    1
    65    79    78    1
    66    79    80    1
    67    78    71   am
    68    80    81    2
    69     3     4    2
    70     3     2    1
    71     6     7   ar
    72    11     9   ar
    73     2     1    1
    74    71    70    1
    75    71    72    2
    76    70    73    1
    77     7     9   ar
    78    73    74    1
    79    76    75   ar
    80    74    75    1
    81    75    77   ar
