@<TRIPOS>MOLECULE
tmp/3sfcA01.pdb
 188 182 0 0 0
SMALL
GASTEIGER

@<TRIPOS>ATOM
      1  N        -17.5060  -28.1660   -3.9900 N.3    18  THR18      -0.1203
      2  CA       -16.1730  -27.5450   -3.9360 C.3    18  THR18       0.1994
      3  C        -15.9100  -26.8610   -2.6050 C.2    18  THR18       0.2617
      4  O        -14.7560  -26.6530   -2.2460 O.2    18  THR18      -0.2717
      5  CB       -15.9420  -26.6150   -5.1420 C.3    18  THR18       0.1784
      6  OG1      -16.9510  -25.6040   -5.1790 O.3    18  THR18      -0.2211
      7  CG2      -15.9060  -27.3580   -6.4630 C.3    18  THR18       0.0376
      8  N        -16.9740  -26.4760   -1.8750 N.am   19  GLN19      -0.1979
      9  CA       -16.8020  -25.7670   -0.6030 C.3    19  GLN19       0.1601
     10  C        -17.6690  -26.3840    0.4830 C.2    19  GLN19       0.2287
     11  O        -18.8760  -26.5610    0.3060 O.2    19  GLN19      -0.2864
     12  CB       -17.1000  -24.2640   -0.7790 C.3    19  GLN19       0.0394
     13  CG       -16.1710  -23.5580   -1.7850 C.3    19  GLN19       0.0908
     14  CD       -16.4040  -22.0790   -1.9080 C.2    19  GLN19       0.2608
     15  OE1      -16.4130  -21.3620   -0.9230 O.2    19  GLN19      -0.2717
     16  NE2      -16.5280  -21.5750   -3.1210 N.am   19  GLN19      -0.0878
     17  N        -14.3540  -22.6540    6.8440 N.3    36  VAL36      -0.1245
     18  CA       -13.8920  -23.9340    6.3130 C.3    36  VAL36       0.1561
     19  C        -12.9940  -24.5630    7.3940 C.2    36  VAL36       0.2260
     20  O        -12.2220  -23.8520    8.0270 O.2    36  VAL36      -0.2867
     21  CB       -13.2230  -23.8140    4.9100 C.3    36  VAL36       0.0252
     22  CG1      -11.8870  -23.0670    4.9620 C.3    36  VAL36       0.0019
     23  CG2      -13.0600  -25.1770    4.2590 C.3    36  VAL36       0.0019
     24  N        -10.0490  -26.8500    7.9580 N.3    38  ASP38      -0.1239
     25  CA        -8.8880  -27.2280    7.1620 C.3    38  ASP38       0.1674
     26  C         -7.7780  -27.9840    7.9050 C.2    38  ASP38       0.2266
     27  O         -7.0510  -27.3790    8.6930 O.2    38  ASP38      -0.2867
     28  CB        -8.3250  -25.9420    6.5130 C.3    38  ASP38       0.1410
     29  CG        -7.1810  -26.1450    5.5460 C.2    38  ASP38       0.3668
     30  OD1       -7.1380  -27.1940    4.9010 O.co2  38  ASP38      -0.2456
     31  OD2       -6.3330  -25.2510    5.4380 O.co2  38  ASP38      -0.2456
     32  N         -5.1500  -28.9740    6.4890 N.3    40  GLY40      -0.1225
     33  CA        -3.9530  -28.4880    5.8120 C.3    40  GLY40       0.1811
     34  C         -3.3470  -27.2200    6.3870 C.2    40  GLY40       0.2280
     35  O         -2.3100  -26.7570    5.9100 O.2    40  GLY40      -0.2866
     36  N         -8.7580  -17.8400   11.6780 N.3    45  TRP45      -0.1241
     37  CA        -8.8390  -16.4510   11.2470 C.3    45  TRP45       0.1605
     38  C        -10.2050  -16.1370   10.6660 C.2    45  TRP45       0.2264
     39  O        -10.8610  -17.0030   10.0850 O.2    45  TRP45      -0.2867
     40  CB        -7.6830  -16.0390   10.2890 C.3    45  TRP45       0.0550
     41  CG        -7.7330  -16.6540    8.9150 C.ar   45  TRP45       0.0003
     42  CD1       -7.0670  -17.7670    8.4970 C.ar   45  TRP45       0.0946
     43  CD2       -8.4970  -16.1940    7.7800 C.ar   45  TRP45       0.0152
     44  NE1       -7.3210  -17.9990    7.1660 N.ar   45  TRP45      -0.2442
     45  CE2       -8.2250  -17.0700    6.7100 C.ar   45  TRP45       0.0810
     46  CE3       -9.3860  -15.1240    7.5670 C.ar   45  TRP45       0.0012
     47  CZ2       -8.8090  -16.9120    5.4410 C.ar   45  TRP45       0.0191
     48  CZ3       -9.9580  -14.9640    6.3190 C.ar   45  TRP45       0.0001
     49  CH2       -9.6660  -15.8470    5.2680 C.ar   45  TRP45       0.0015
     50  N         -1.1480  -19.3700    2.0380 N.3    83  TYR83      -0.1227
     51  CA        -1.7700  -20.6180    1.5950 C.3    83  TYR83       0.1736
     52  C         -1.3910  -20.8950    0.1550 C.2    83  TYR83       0.2596
     53  O         -0.7590  -20.0550   -0.4910 O.2    83  TYR83      -0.2718
     54  CB        -3.3030  -20.5680    1.7550 C.3    83  TYR83       0.0548
     55  CG        -3.7710  -20.3450    3.1740 C.ar   83  TYR83      -0.0200
     56  CD1       -3.8070  -21.3910    4.0870 C.ar   83  TYR83      -0.0009
     57  CD2       -4.2130  -19.0930    3.5940 C.ar   83  TYR83      -0.0009
     58  CE1       -4.2690  -21.1990    5.3880 C.ar   83  TYR83       0.0417
     59  CE2       -4.6810  -18.8890    4.8900 C.ar   83  TYR83       0.0417
     60  CZ        -4.7180  -19.9510    5.7830 C.ar   83  TYR83       0.1957
     61  OH        -5.1630  -19.7710    7.0730 O.3    83  TYR83      -0.2866
     62  N         -1.7890  -22.0740   -0.3420 N.am   84  SER84      -0.1938
     63  CA        -1.5690  -22.5730   -1.7010 C.3    84  SER84       0.2055
     64  C         -2.1440  -21.6200   -2.7750 C.2    84  SER84       0.2644
     65  O         -1.5510  -21.4680   -3.8360 O.2    84  SER84      -0.2714
     66  CB        -2.2590  -23.9280   -1.8590 C.3    84  SER84       0.2130
     67  OG        -1.7770  -24.8980   -0.9470 O.3    84  SER84      -0.2179
     68  N         -3.3000  -21.0080   -2.4950 N.am   85  THR85      -0.1936
     69  CA        -4.0240  -20.1690   -3.4440 C.3    85  THR85       0.2032
     70  C         -4.0980  -18.6960   -3.0800 C.2    85  THR85       0.2681
     71  O         -4.6750  -17.8990   -3.8310 O.2    85  THR85      -0.2710
     72  CB        -5.4460  -20.7360   -3.6600 C.3    85  THR85       0.1808
     73  OG1       -6.1730  -20.7050   -2.4270 O.3    85  THR85      -0.2208
     74  CG2       -5.4450  -22.1200   -4.2530 C.3    85  THR85       0.0379
     75  N         -3.5550  -18.3350   -1.9360 N.am   86  GLY86      -0.1729
     76  CA        -3.6220  -16.9510   -1.4920 C.2    86  GLY86       0.1340
     77  C         -2.9600  -16.6730   -0.1670 C.2    86  GLY86       0.2521
     78  O         -2.5070  -17.5800    0.5220 O.2    86  GLY86      -0.2816
     79  N         -8.7630  -12.2450   -5.2040 N.3   117  LEU117     -0.1231
     80  CA        -8.5220  -13.6310   -5.6110 C.3   117  LEU117      0.1678
     81  C         -7.6580  -14.3270   -4.5550 C.2   117  LEU117      0.2434
     82  O         -6.6010  -13.7950   -4.2010 O.2   117  LEU117     -0.2733
     83  CB        -7.8900  -13.7180   -7.0040 C.3   117  LEU117      0.0284
     84  CG        -8.8020  -13.3420   -8.1580 C.3   117  LEU117      0.0019
     85  CD1       -7.9980  -12.9150   -9.3590 C.3   117  LEU117      0.0001
     86  CD2       -9.6810  -14.4850   -8.5360 C.3   117  LEU117      0.0001
     87  N         -8.1120  -15.4490   -3.9570 N.am  118  PRO118     -0.2718
     88  CA        -9.3240  -16.2300   -4.2690 C.3   118  PRO118      0.1535
     89  C        -10.5650  -15.9440   -3.4030 C.2   118  PRO118      0.2598
     90  O        -11.5810  -16.5890   -3.6100 O.2   118  PRO118     -0.2715
     91  CB        -8.8370  -17.6600   -4.0120 C.3   118  PRO118      0.0310
     92  CG        -7.9340  -17.5080   -2.7940 C.3   118  PRO118      0.0237
     93  CD        -7.2990  -16.1310   -2.9260 C.3   118  PRO118      0.0939
     94  N        -10.4650  -15.0330   -2.4260 N.am  119  PHE119     -0.1974
     95  CA       -11.4920  -14.7380   -1.4220 C.3   119  PHE119      0.1639
     96  C        -12.8820  -14.2790   -1.9170 C.2   119  PHE119      0.2290
     97  O        -13.8820  -14.5770   -1.2570 O.2   119  PHE119     -0.2864
     98  CB       -10.9140  -13.9320   -0.2330 C.3   119  PHE119      0.0560
     99  CG        -9.7760  -14.6950    0.4240 C.ar  119  PHE119     -0.0200
    100  CD1      -10.0350  -15.7720    1.2710 C.ar  119  PHE119     -0.0042
    101  CD2       -8.4530  -14.3980    0.1210 C.ar  119  PHE119     -0.0042
    102  CE1       -8.9880  -16.5360    1.8000 C.ar  119  PHE119     -0.0003
    103  CE2       -7.4080  -15.1570    0.6620 C.ar  119  PHE119     -0.0003
    104  CZ        -7.6830  -16.2040    1.5210 C.ar  119  PHE119     -0.0000
    105  N        -14.2870  -15.6270   -4.4750 N.3   121  LEU121     -0.1231
    106  CA       -14.8700  -16.8950   -4.9570 C.3   121  LEU121      0.1693
    107  C        -15.2760  -17.7650   -3.7600 C.2   121  LEU121      0.2591
    108  O        -15.9460  -18.7860   -3.9350 O.2   121  LEU121     -0.2718
    109  CB       -13.8660  -17.6890   -5.8160 C.3   121  LEU121      0.0284
    110  CG       -13.3320  -17.0210   -7.0810 C.3   121  LEU121      0.0019
    111  CD1      -11.8460  -16.8970   -7.0130 C.3   121  LEU121      0.0001
    112  CD2      -13.6830  -17.8050   -8.2930 C.3   121  LEU121      0.0001
    113  N        -14.8350  -17.3810   -2.5540 N.am  122  ALA122     -0.1980
    114  CA       -15.0970  -18.1030   -1.3190 C.3   122  ALA122      0.1597
    115  C        -16.4700  -17.7980   -0.6920 C.2   122  ALA122      0.2287
    116  O        -16.8210  -16.6380   -0.5020 O.2   122  ALA122     -0.2864
    117  CB       -13.9730  -17.8330   -0.3150 C.3   122  ALA122      0.0319
    118  N        -17.2540  -19.2550    2.3020 N.3   124  PHE124     -0.1241
    119  CA       -16.8500  -19.1260    3.7060 C.3   124  PHE124      0.1605
    120  C        -16.2200  -17.7260    3.9480 C.2   124  PHE124      0.2264
    121  O        -15.6600  -17.1250    3.0200 O.2   124  PHE124     -0.2867
    122  CB       -15.8430  -20.2290    4.0730 C.3   124  PHE124      0.0534
    123  CG       -14.6380  -20.3440    3.1570 C.ar  124  PHE124     -0.0203
    124  CD1      -14.6950  -21.1140    1.9930 C.ar  124  PHE124     -0.0042
    125  CD2      -13.4450  -19.6930    3.4590 C.ar  124  PHE124     -0.0042
    126  CE1      -13.5790  -21.2220    1.1490 C.ar  124  PHE124     -0.0003
    127  CE2      -12.3360  -19.7970    2.6100 C.ar  124  PHE124     -0.0003
    128  CZ       -12.4060  -20.5770    1.4710 C.ar  124  PHE124     -0.0000
    129  N        -11.3600  -19.3070    8.2100 N.3   127  VAL127     -0.1245
    130  CA       -10.7670  -20.6280    8.3050 C.3   127  VAL127      0.1561
    131  C        -10.5510  -21.0500    9.7420 C.2   127  VAL127      0.2260
    132  O        -10.0550  -20.2650   10.5570 O.2   127  VAL127     -0.2867
    133  CB        -9.4210  -20.6530    7.5150 C.3   127  VAL127      0.0252
    134  CG1       -8.6740  -21.9760    7.7000 C.3   127  VAL127      0.0019
    135  CG2       -9.6370  -20.3540    6.0310 C.3   127  VAL127      0.0019
    136  N         -6.1120  -33.2670    3.0480 N.3   226  ASP226     -0.1239
    137  CA        -6.4960  -31.8520    3.1040 C.3   226  ASP226      0.1674
    138  C         -8.0080  -31.5550    2.9850 C.2   226  ASP226      0.2266
    139  O         -8.5320  -31.4200    1.8750 O.2   226  ASP226     -0.2867
    140  CB        -5.6800  -31.0740    2.0310 C.3   226  ASP226      0.1410
    141  CG        -5.4820  -29.5970    2.2720 C.2   226  ASP226      0.3668
    142  OD1       -6.1490  -29.0530    3.1540 O.co2 226  ASP226     -0.2456
    143  OD2       -4.6460  -28.9840    1.5680 O.co2 226  ASP226     -0.2456
    144  N         -9.6480  -28.8040    3.5520 N.3   228  GLY228     -0.1210
    145  CA        -9.9090  -27.4860    2.9770 C.3   228  GLY228      0.1956
    146  C         -9.6650  -27.3810    1.4890 C.2   228  GLY228      0.2612
    147  O         -9.8710  -26.3110    0.9070 O.2   228  GLY228     -0.2717
    148  N         -9.1460  -28.4620    0.8730 N.am  229  ALA229     -0.1965
    149  CA        -8.8790  -28.5250   -0.5600 C.3   229  ALA229      0.1728
    150  C        -10.1170  -29.1150   -1.2550 C.2   229  ALA229      0.2617
    151  O        -10.6610  -30.1240   -0.7940 O.2   229  ALA229     -0.2715
    152  CB        -7.6500  -29.3890   -0.8230 C.3   229  ALA229      0.0334
    153  N        -10.5910  -28.4580   -2.3300 N.am  230  SER230     -0.1936
    154  CA       -11.7730  -28.9060   -3.0820 C.3   230  SER230      0.2055
    155  C        -11.5450  -30.2060   -3.8490 C.2   230  SER230      0.2643
    156  O        -12.4670  -31.0220   -3.9570 O.2   230  SER230     -0.2714
    157  CB       -12.2050  -27.8390   -4.0880 C.3   230  SER230      0.2130
    158  OG       -12.3450  -26.5610   -3.4960 O.3   230  SER230     -0.2179
    159  N        -10.3580  -30.3640   -4.4340 N.am  231  TYR231     -0.1973
    160  CA       -10.0230  -31.4730   -5.3120 C.3   231  TYR231      0.1639
    161  C         -8.8800  -32.3600   -4.8530 C.2   231  TYR231      0.2290
    162  O         -8.3560  -32.1950   -3.7670 O.2   231  TYR231     -0.2864
    163  CB        -9.6980  -30.9190   -6.7280 C.3   231  TYR231      0.0560
    164  CG       -10.5510  -29.7400   -7.1510 C.ar  231  TYR231     -0.0198
    165  CD1      -10.0170  -28.4570   -7.2260 C.ar  231  TYR231     -0.0009
    166  CD2      -11.9120  -29.8980   -7.4320 C.ar  231  TYR231     -0.0009
    167  CE1      -10.8030  -27.3630   -7.6000 C.ar  231  TYR231      0.0417
    168  CE2      -12.7110  -28.8100   -7.8000 C.ar  231  TYR231      0.0417
    169  CZ       -12.1500  -27.5430   -7.8900 C.ar  231  TYR231      0.1957
    170  OH       -12.9390  -26.4750   -8.2550 O.3   231  TYR231     -0.2866
    171  N         -6.5120  -31.6900  -10.0690 N.3   301  HIS301     -0.1241
    172  CA        -5.7610  -30.5670  -10.6280 C.3   301  HIS301      0.1621
    173  C         -4.2860  -30.6310  -10.2780 C.2   301  HIS301      0.2264
    174  O         -3.8960  -31.4540   -9.4600 O.2   301  HIS301     -0.2867
    175  CB        -6.3880  -29.2250  -10.1860 C.3   301  HIS301      0.0745
    176  CG        -6.1360  -28.8090   -8.7780 C.ar  301  HIS301      0.0817
    177  ND1       -5.4210  -27.6480   -8.4820 N.ar  301  HIS301     -0.2268
    178  CD2       -6.5990  -29.3360   -7.6250 C.ar  301  HIS301      0.1154
    179  CE1       -5.4420  -27.5390   -7.1620 C.ar  301  HIS301      0.1986
    180  NE2       -6.1470  -28.5220   -6.6040 N.ar  301  HIS301     -0.2212
    181  N         -1.1110  -28.9020   -8.4590 N.3   303  MET303     -0.1245
    182  CA        -0.7350  -27.9580   -7.4070 C.3   303  MET303      0.1570
    183  C          0.6710  -28.3140   -6.9200 C.2   303  MET303      0.2261
    184  O          0.8790  -29.4000   -6.3690 O.2   303  MET303     -0.2867
    185  CB        -1.7490  -27.9450   -6.2480 C.3   303  MET303      0.0387
    186  CG        -1.4230  -26.9120   -5.1730 C.3   303  MET303      0.0595
    187  SD        -1.8050  -25.1920   -5.6630 S.3   303  MET303     -0.1393
    188  CE        -3.4740  -25.1410   -5.2040 C.3   303  MET303      0.0692
@<TRIPOS>BOND
     1   172   173    1
     2   172   175    1
     3   172   171    1
     4   173   174    2
     5   175   176    1
     6    85    84    1
     7   176   177   ar
     8   176   178   ar
     9    86    84    1
    10   177   179   ar
    11   181   182    1
    12   112   110    1
    13   170   169    1
    14    84    83    1
    15   169   168   ar
    16   169   167   ar
    17   168   166   ar
    18   178   180   ar
    19   167   165   ar
    20   166   164   ar
    21   182   183    1
    22   182   185    1
    23   165   164   ar
    24   179   180   ar
    25   164   163    1
    26   110   111    1
    27   110   109    1
    28    83    80    1
    29   183   184    2
    30   163   160    1
    31     7     5    1
    32   185   186    1
    33   109   106    1
    34   187   188    1
    35   187   186    1
    36    80    79    1
    37    80    81    1
    38   160   161    1
    39   160   159    1
    40     6     5    1
    41     5     2    1
    42   106   105    1
    43   106   107    1
    44   161   162    2
    45    81    82    2
    46    81    87   am
    47   159   155   am
    48    88    91    1
    49    88    87    1
    50    88    89    1
    51    74    72    1
    52   157   158    1
    53   157   154    1
    54    91    92    1
    55     1     2    1
    56    87    93    1
    57   156   155    2
    58     2     3    1
    59   108   107    2
    60   155   154    1
    61    65    64    2
    62    71    70    2
    63   107   113   am
    64    72    69    1
    65    72    73    1
    66    90    89    2
    67    69    70    1
    68    69    68    1
    69    89    94   am
    70    16    14   am
    71   154   153    1
    72    70    75    1
    73    93    92    1
    74    64    68   am
    75    64    63    1
    76     3     4    2
    77     3     8   am
    78   113   114    1
    79    94    95    1
    80   153   150   am
    81    75    76    2
    82    96    95    1
    83    96    97    2
    84    14    13    1
    85    14    15    2
    86     8     9    1
    87    66    63    1
    88    66    67    1
    89    13    12    1
    90    63    62    1
    91    76    77    1
    92    95    98    1
    93   114   115    1
    94   114   117    1
    95   150   151    2
    96   150   149    1
    97   152   149    1
    98    12     9    1
    99   115   116    2
   100     9    10    1
   101   149   148    1
   102    53    52    2
   103    62    52   am
   104    98    99    1
   105    77    78    2
   106   101    99   ar
   107   101   103   ar
   108    52    51    1
   109    11    10    2
   110    99   100   ar
   111   103   104   ar
   112   148   146   am
   113   147   146    2
   114   126   128   ar
   115   126   124   ar
   116   100   102   ar
   117   128   127   ar
   118   146   145    1
   119   104   102   ar
   120   143   141   ar
   121    51    54    1
   122    51    50    1
   123    54    55    1
   124   139   138    2
   125   124   123   ar
   126   140   141    1
   127   140   137    1
   128   141   142   ar
   129   118   119    1
   130   127   125   ar
   131   145   144    1
   132   138   137    1
   133   121   120    2
   134   136   137    1
   135   123   125   ar
   136   123   122    1
   137    55    57   ar
   138    55    56   ar
   139    57    59   ar
   140   119   120    1
   141   119   122    1
   142    56    58   ar
   143    23    21    1
   144    59    60   ar
   145    30    29   ar
   146    21    22    1
   147    21    18    1
   148    49    47   ar
   149    49    48   ar
   150    58    60   ar
   151    31    29   ar
   152    47    45   ar
   153    29    28    1
   154    60    61    1
   155    33    34    1
   156    33    32    1
   157    35    34    2
   158   135   133    1
   159    18    17    1
   160    18    19    1
   161    48    46   ar
   162    28    25    1
   163    45    44   ar
   164    45    43   ar
   165    25    26    1
   166    25    24    1
   167    44    42   ar
   168    19    20    2
   169   133   134    1
   170   133   130    1
   171    46    43   ar
   172    43    41   ar
   173    26    27    2
   174   129   130    1
   175   130   131    1
   176    42    41   ar
   177    41    40    1
   178   131   132    2
   179    39    38    2
   180    40    37    1
   181    38    37    1
   182    37    36    1
