@<TRIPOS>MOLECULE
tmp/3sfdD00.pdb
 91 84 0 0 0
SMALL
GASTEIGER

@<TRIPOS>ATOM
      1  N         65.1280   70.1270   87.1810 N.3    13  ARG13      -0.1245
      2  CA        64.5890   68.7760   87.0650 C.3    13  ARG13       0.1563
      3  C         63.2490   68.7990   86.3260 C.2    13  ARG13       0.2260
      4  O         62.9200   67.8560   85.5930 O.2    13  ARG13      -0.2867
      5  CB        64.4120   68.1240   88.4420 C.3    13  ARG13       0.0307
      6  CG        65.4440   68.4980   89.5140 C.3    13  ARG13       0.0489
      7  CD        66.7970   67.8170   89.3220 C.3    13  ARG13       0.2205
      8  NE        67.8460   68.7440   88.9030 N.pl3  13  ARG13      -0.0865
      9  CZ        69.1330   68.4210   88.7960 C.cat  13  ARG13       0.5346
     10  NH1       69.5290   67.1930   89.0750 N.pl3  13  ARG13       0.1354
     11  NH2       70.0250   69.3220   88.4110 N.pl3  13  ARG13       0.1354
     12  N         63.6610   69.4020   82.6300 N.3    16  SER16      -0.1217
     13  CA        64.2870   68.1820   82.1210 C.3    16  SER16       0.1889
     14  C         63.2470   67.1410   81.7290 C.2    16  SER16       0.2288
     15  O         63.3170   66.5950   80.6310 O.2    16  SER16      -0.2866
     16  CB        65.2810   67.6020   83.1320 C.3    16  SER16       0.2089
     17  OG        66.4430   68.4120   83.2180 O.3    16  SER16      -0.2183
     18  N         61.3390   68.5980   78.8310 N.3    19  LEU19      -0.1231
     19  CA        62.0830   68.3950   77.5940 C.3    19  LEU19       0.1693
     20  C         62.1090   66.9230   77.1880 C.2    19  LEU19       0.2591
     21  O         62.1210   66.6080   76.0000 O.2    19  LEU19      -0.2718
     22  CB        63.5080   68.9320   77.7410 C.3    19  LEU19       0.0284
     23  CG        64.4300   68.9890   76.5200 C.3    19  LEU19       0.0019
     24  CD1       63.8630   69.9050   75.4510 C.3    19  LEU19       0.0001
     25  CD2       65.8340   69.4340   76.9200 C.3    19  LEU19       0.0001
     26  N         62.1280   66.0290   78.1740 N.am   20  LEU20      -0.1980
     27  CA        62.0680   64.5940   77.9150 C.3    20  LEU20       0.1596
     28  C         60.7230   64.2310   77.2970 C.2    20  LEU20       0.2287
     29  O         60.6670   63.4900   76.3200 O.2    20  LEU20      -0.2864
     30  CB        62.2970   63.7950   79.2030 C.3    20  LEU20       0.0297
     31  CG        62.1070   62.2720   79.1800 C.3    20  LEU20       0.0022
     32  CD1       63.1820   61.5880   78.3620 C.3    20  LEU20       0.0001
     33  CD2       62.0980   61.7310   80.5940 C.3    20  LEU20       0.0001
     34  N         59.9000   65.5100   73.4250 N.3    23  LEU23      -0.1245
     35  CA        60.4750   64.8320   72.2530 C.3    23  LEU23       0.1561
     36  C         59.4990   63.8640   71.5730 C.2    23  LEU23       0.2260
     37  O         59.2720   63.9790   70.3700 O.2    23  LEU23      -0.2867
     38  CB        61.8070   64.1340   72.5760 C.3    23  LEU23       0.0270
     39  CG        62.9880   64.9290   73.1480 C.3    23  LEU23       0.0019
     40  CD1       64.2590   64.1010   73.0400 C.3    23  LEU23       0.0001
     41  CD2       63.1820   66.2870   72.4770 C.3    23  LEU23       0.0001
     42  N         64.4280   73.6650   75.0250 N.3    42  LEU42      -0.1245
     43  CA        65.7910   73.5200   74.5080 C.3    42  LEU42       0.1561
     44  C         66.7570   74.5630   75.0620 C.2    42  LEU42       0.2260
     45  O         67.8370   74.2170   75.5420 O.2    42  LEU42      -0.2867
     46  CB        65.7920   73.5970   72.9770 C.3    42  LEU42       0.0270
     47  CG        65.9960   72.3500   72.1040 C.3    42  LEU42       0.0019
     48  CD1       65.6030   71.0310   72.7680 C.3    42  LEU42       0.0001
     49  CD2       65.2590   72.5300   70.7790 C.3    42  LEU42       0.0001
     50  N         66.8750   74.8310   79.4360 N.3    45  HIS45      -0.1226
     51  CA        67.6320   73.6900   79.9610 C.3    45  HIS45       0.1752
     52  C         69.1050   73.7340   79.5780 C.2    45  HIS45       0.2596
     53  O         69.9710   73.3890   80.3780 O.2    45  HIS45      -0.2718
     54  CB        67.0070   72.3800   79.4850 C.3    45  HIS45       0.0759
     55  CG        67.8850   71.1820   79.6740 C.ar   45  HIS45       0.0818
     56  ND1       67.7390   70.3160   80.7340 N.ar   45  HIS45      -0.2268
     57  CD2       68.9140   70.7040   78.9370 C.ar   45  HIS45       0.1154
     58  CE1       68.6390   69.3550   80.6410 C.ar   45  HIS45       0.1986
     59  NE2       69.3660   69.5690   79.5610 N.ar   45  HIS45      -0.2212
     60  N         69.3790   74.1420   78.3460 N.am   46  GLY46      -0.1957
     61  CA        70.7460   74.3300   77.8880 C.3    46  GLY46       0.1869
     62  C         71.4380   75.4890   78.5870 C.2    46  GLY46       0.2309
     63  O         72.6340   75.4070   78.8750 O.2    46  GLY46      -0.2863
     64  N         72.1890   74.4360   82.1730 N.3    49  GLY49      -0.1210
     65  CA        73.2730   73.4600   82.1020 C.3    49  GLY49       0.1956
     66  C         74.6710   74.0340   81.9190 C.2    49  GLY49       0.2611
     67  O         75.5840   73.7010   82.6710 O.2    49  GLY49      -0.2717
     68  N         74.8470   74.8850   80.9120 N.am   50  ILE50      -0.1979
     69  CA        76.1340   75.5640   80.6940 C.3    50  ILE50       0.1595
     70  C         76.4670   76.4920   81.8810 C.2    50  ILE50       0.2287
     71  O         77.6390   76.6390   82.2450 O.2    50  ILE50      -0.2864
     72  CB        76.1940   76.3310   79.3290 C.3    50  ILE50       0.0276
     73  CG1       75.7820   75.4250   78.1560 C.3    50  ILE50       0.0022
     74  CG2       77.5880   76.9360   79.0900 C.3    50  ILE50       0.0022
     75  CD1       76.8810   74.4950   77.6070 C.3    50  ILE50       0.0001
     76  N         75.9600   75.7770   84.9360 N.3    52  GLN52      -0.1231
     77  CA        76.6090   74.8270   85.8540 C.3    52  GLN52       0.1698
     78  C         78.0860   74.6600   85.5350 C.2    52  GLN52       0.2592
     79  O         78.9340   74.6430   86.4250 O.2    52  GLN52      -0.2718
     80  CB        75.9410   73.4450   85.7770 C.3    52  GLN52       0.0381
     81  CG        74.4870   73.3830   86.2340 C.3    52  GLN52       0.0905
     82  CD        74.3150   73.6810   87.7120 C.2    52  GLN52       0.2608
     83  OE1       75.2530   73.5660   88.4980 O.2    52  GLN52      -0.2717
     84  NE2       73.1070   74.0660   88.0960 N.am   52  GLN52      -0.0878
     85  N         78.3780   74.5180   84.2500 N.am   53  VAL53      -0.1980
     86  CA        79.7390   74.3460   83.7830 C.3    53  VAL53       0.1595
     87  C         80.5160   75.6460   84.0030 C.2    53  VAL53       0.2287
     88  O         81.7130   75.6070   84.2940 O.2    53  VAL53      -0.2864
     89  CB        79.7720   73.9230   82.2920 C.3    53  VAL53       0.0276
     90  CG1       81.1110   73.3130   81.9330 C.3    53  VAL53       0.0022
     91  CG2       78.6690   72.9210   81.9960 C.3    53  VAL53       0.0022
@<TRIPOS>BOND
     1    37    36    2
     2    49    47    1
     3    36    35    1
     4    47    48    1
     5    47    46    1
     6    35    38    1
     7    35    34    1
     8    41    39    1
     9    38    39    1
    10    46    43    1
    11    40    39    1
    12    43    42    1
    13    43    44    1
    14    44    45    2
    15    24    23    1
    16    21    20    2
    17    29    28    2
    18    23    25    1
    19    23    22    1
    20    20    19    1
    21    20    26   am
    22    28    27    1
    23    19    22    1
    24    19    18    1
    25    75    73    1
    26    61    60    1
    27    61    62    1
    28    27    26    1
    29    27    30    1
    30    73    72    1
    31    60    52   am
    32    32    31    1
    33    62    63    2
    34    57    59   ar
    35    57    55   ar
    36    74    72    1
    37    31    30    1
    38    31    33    1
    39    72    69    1
    40    50    51    1
    41    54    55    1
    42    54    51    1
    43    59    58   ar
    44    52    51    1
    45    52    53    2
    46    55    56   ar
    47    15    14    2
    48    58    56   ar
    49    69    68    1
    50    69    70    1
    51    68    66   am
    52    14    13    1
    53    70    71    2
    54    66    65    1
    55    66    67    2
    56    90    89    1
    57    91    89    1
    58    65    64    1
    59    13    12    1
    60    13    16    1
    61    89    86    1
    62    16    17    1
    63    86    87    1
    64    86    85    1
    65    87    88    2
    66    85    78   am
    67    76    77    1
    68    78    77    1
    69    78    79    2
    70     4     3    2
    71    80    77    1
    72    80    81    1
    73    81    82    1
    74     3     2    1
    75     2     1    1
    76     2     5    1
    77    82    84   am
    78    82    83    2
    79    11     9    1
    80     5     6    1
    81     9     8    2
    82     9    10    1
    83     8     7    1
    84     7     6    1
