@<TRIPOS>MOLECULE
tmp/3sfeC00.pdb
 123 116 0 0 0
SMALL
GASTEIGER

@<TRIPOS>ATOM
      1  N         80.5810   60.2440   83.6200 N.3    38  SER38      -0.1217
      2  CA        80.1760   61.5120   84.2030 C.3    38  SER38       0.1889
      3  C         80.6310   62.6950   83.3490 C.2    38  SER38       0.2288
      4  O         79.8580   63.6240   83.1330 O.2    38  SER38      -0.2866
      5  CB        80.6800   61.6400   85.6460 C.3    38  SER38       0.2089
      6  OG        82.0960   61.5920   85.7140 O.3    38  SER38      -0.2183
      7  N         78.7570   62.8470   80.0570 N.3    41  HIS41      -0.1226
      8  CA        77.5390   63.6170   80.2360 C.3    41  HIS41       0.1752
      9  C         77.7820   65.1280   80.1050 C.2    41  HIS41       0.2595
     10  O         76.9550   65.8350   79.5350 O.2    41  HIS41      -0.2718
     11  CB        76.8810   63.2930   81.5690 C.3    41  HIS41       0.0759
     12  CG        75.4190   63.6050   81.6010 C.ar   41  HIS41       0.0818
     13  ND1       74.4500   62.6430   81.4120 N.ar   41  HIS41      -0.2268
     14  CD2       74.7600   64.7730   81.7800 C.ar   41  HIS41       0.1154
     15  CE1       73.2570   63.2030   81.4810 C.ar   41  HIS41       0.1986
     16  NE2       73.4160   64.4950   81.7010 N.ar   41  HIS41      -0.2212
     17  N         78.9090   65.6170   80.6250 N.am   42  ARG42      -0.1980
     18  CA        79.2970   67.0150   80.4300 C.3    42  ARG42       0.1597
     19  C         79.6600   67.2850   78.9850 C.2    42  ARG42       0.2287
     20  O         79.3020   68.3270   78.4400 O.2    42  ARG42      -0.2864
     21  CB        80.4700   67.4150   81.3210 C.3    42  ARG42       0.0334
     22  CG        80.0320   68.0240   82.6230 C.3    42  ARG42       0.0492
     23  CD        80.6880   69.3720   82.8840 C.3    42  ARG42       0.2205
     24  NE        79.9090   70.1560   83.8480 N.pl3  42  ARG42      -0.0865
     25  CZ        80.2410   70.3660   85.1230 C.cat  42  ARG42       0.5346
     26  NH1       79.4470   71.0920   85.8990 N.pl3  42  ARG42       0.1354
     27  NH2       81.3600   69.8630   85.6300 N.pl3  42  ARG42       0.1354
     28  N         76.5650   67.0060   76.9250 N.3    45  GLY45      -0.1210
     29  CA        75.8620   68.2120   77.3640 C.3    45  GLY45       0.1956
     30  C         76.3470   69.4940   76.7110 C.2    45  GLY45       0.2611
     31  O         75.5530   70.2230   76.1150 O.2    45  GLY45      -0.2717
     32  N         77.6490   69.7630   76.8200 N.am   46  ILE46      -0.1979
     33  CA        78.2620   70.9650   76.2400 C.3    46  ILE46       0.1595
     34  C         78.1860   70.9460   74.7170 C.2    46  ILE46       0.2287
     35  O         77.8370   71.9540   74.1010 O.2    46  ILE46      -0.2864
     36  CB        79.7380   71.1600   76.7080 C.3    46  ILE46       0.0276
     37  CG1       79.7730   71.6110   78.1690 C.3    46  ILE46       0.0022
     38  CG2       80.4730   72.1800   75.8370 C.3    46  ILE46       0.0022
     39  CD1       81.0760   71.3270   78.8630 C.3    46  ILE46       0.0001
     40  N         76.0560   69.3570   72.6990 N.3    48  LEU48      -0.1231
     41  CA        74.6730   69.5620   72.2760 C.3    48  LEU48       0.1693
     42  C         74.2640   71.0240   72.3670 C.2    48  LEU48       0.2592
     43  O         73.6840   71.5640   71.4280 O.2    48  LEU48      -0.2718
     44  CB        73.7220   68.6930   73.1030 C.3    48  LEU48       0.0284
     45  CG        73.3510   67.2830   72.6190 C.3    48  LEU48       0.0019
     46  CD1       74.4360   66.6190   71.7880 C.3    48  LEU48       0.0001
     47  CD2       72.9810   66.4070   73.8030 C.3    48  LEU48       0.0001
     48  N         74.5880   71.6630   73.4890 N.am   49  SER49      -0.1952
     49  CA        74.2760   73.0750   73.6970 C.3    49  SER49       0.1924
     50  C         74.9710   73.9620   72.6820 C.2    49  SER49       0.2314
     51  O         74.4480   75.0110   72.3190 O.2    49  SER49      -0.2863
     52  CB        74.6560   73.5090   75.1070 C.3    49  SER49       0.2116
     53  OG        73.9150   72.7720   76.0580 O.3    49  SER49      -0.2180
     54  N         72.8160   73.3890   69.3750 N.3    52  VAL52      -0.1245
     55  CA        71.5930   74.1820   69.4840 C.3    52  VAL52       0.1561
     56  C         71.8820   75.6840   69.3550 C.2    52  VAL52       0.2260
     57  O         71.1250   76.4110   68.7150 O.2    52  VAL52      -0.2867
     58  CB        70.8490   73.8770   70.8150 C.3    52  VAL52       0.0252
     59  CG1       69.6830   74.8370   71.0410 C.3    52  VAL52       0.0019
     60  CG2       70.3690   72.4340   70.8370 C.3    52  VAL52       0.0019
     61  N         73.4580   62.9670   71.4750 N.3    94  LEU94      -0.1245
     62  CA        72.1220   63.2480   72.0100 C.3    94  LEU94       0.1561
     63  C         71.5080   62.0450   72.7250 C.2    94  LEU94       0.2260
     64  O         70.8820   62.1930   73.7760 O.2    94  LEU94      -0.2867
     65  CB        71.1970   63.7500   70.8920 C.3    94  LEU94       0.0270
     66  CG        69.8320   64.4140   71.1500 C.3    94  LEU94       0.0019
     67  CD1       68.6920   63.4140   71.0940 C.3    94  LEU94       0.0001
     68  CD2       69.7840   65.2270   72.4480 C.3    94  LEU94       0.0001
     69  N         73.3900   61.3510   76.1610 N.3    97  HIS97      -0.1226
     70  CA        72.9520   62.3590   77.1200 C.3    97  HIS97       0.1752
     71  C         71.4800   62.1970   77.5030 C.2    97  HIS97       0.2596
     72  O         71.0990   62.4780   78.6420 O.2    97  HIS97      -0.2718
     73  CB        73.1980   63.7560   76.5650 C.3    97  HIS97       0.0759
     74  CG        73.0250   64.8470   77.5740 C.ar   97  HIS97       0.0818
     75  ND1       74.0900   65.4870   78.1680 N.ar   97  HIS97      -0.2268
     76  CD2       71.9100   65.4120   78.0930 C.ar   97  HIS97       0.1154
     77  CE1       73.6380   66.4010   79.0090 C.ar   97  HIS97       0.1986
     78  NE2       72.3180   66.3760   78.9810 N.ar   97  HIS97      -0.2212
     79  N         70.6580   61.7530   76.5550 N.am   98  THR98      -0.1953
     80  CA        69.2590   61.4400   76.8500 C.3    98  THR98       0.1897
     81  C         69.1690   60.2910   77.8470 C.2    98  THR98       0.2313
     82  O         68.5650   60.4470   78.9070 O.2    98  THR98      -0.2863
     83  CB        68.4270   61.1270   75.5700 C.3    98  THR98       0.1794
     84  OG1       68.0990   62.3520   74.9020 O.3    98  THR98      -0.2208
     85  CG2       67.1240   60.3960   75.9100 C.3    98  THR98       0.0378
     86  N         70.8900   61.0230   81.1760 N.3   101  GLY101     -0.1210
     87  CA        70.0540   62.0220   81.8510 C.3   101  GLY101      0.1956
     88  C         68.9340   61.3810   82.6570 C.2   101  GLY101      0.2611
     89  O         68.6200   61.8260   83.7660 O.2   101  GLY101     -0.2717
     90  N         68.3360   60.3290   82.0960 N.am  102  ILE102     -0.1979
     91  CA        67.2830   59.5580   82.7650 C.3   102  ILE102      0.1595
     92  C         67.8410   58.9100   84.0270 C.2   102  ILE102      0.2287
     93  O         67.2070   58.9380   85.0850 O.2   102  ILE102     -0.2864
     94  CB        66.6510   58.5080   81.7980 C.3   102  ILE102      0.0276
     95  CG1       65.6280   59.1910   80.8830 C.3   102  ILE102      0.0022
     96  CG2       66.0090   57.3380   82.5580 C.3   102  ILE102      0.0022
     97  CD1       65.3150   58.4370   79.6000 C.3   102  ILE102      0.0001
     98  N         70.4180   59.9780   85.7200 N.3   104  HIS104     -0.1226
     99  CA        70.6020   61.0890   86.6520 C.3   104  HIS104      0.1752
    100  C         69.3390   61.4480   87.4230 C.2   104  HIS104      0.2595
    101  O         69.4220   61.8720   88.5720 O.2   104  HIS104     -0.2718
    102  CB        71.1350   62.3270   85.9330 C.3   104  HIS104      0.0759
    103  CG        72.5840   62.5970   86.1890 C.ar  104  HIS104      0.0818
    104  ND1       73.5690   62.3240   85.2630 N.ar  104  HIS104     -0.2268
    105  CD2       73.2160   63.1110   87.2710 C.ar  104  HIS104      0.1154
    106  CE1       74.7450   62.6600   85.7620 C.ar  104  HIS104      0.1986
    107  NE2       74.5590   63.1390   86.9800 N.ar  104  HIS104     -0.2212
    108  N         68.1800   61.2750   86.7910 N.am  105  LEU105     -0.1980
    109  CA        66.8950   61.5770   87.4250 C.3   105  LEU105      0.1596
    110  C         66.4430   60.4860   88.3840 C.2   105  LEU105      0.2287
    111  O         65.8230   60.7790   89.4050 O.2   105  LEU105     -0.2864
    112  CB        65.8160   61.8480   86.3750 C.3   105  LEU105      0.0297
    113  CG        65.8430   63.2210   85.6950 C.3   105  LEU105      0.0022
    114  CD1       65.0080   63.1990   84.4230 C.3   105  LEU105      0.0001
    115  CD2       65.3770   64.3380   86.6410 C.3   105  LEU105      0.0001
    116  N         68.2990   61.2720   91.3480 N.3   108  ASP108     -0.1239
    117  CA        67.7110   62.4080   92.0700 C.3   108  ASP108      0.1674
    118  C         66.5330   61.9820   92.9560 C.2   108  ASP108      0.2266
    119  O         66.2290   62.6440   93.9510 O.2   108  ASP108     -0.2867
    120  CB        67.3150   63.5380   91.1070 C.3   108  ASP108      0.1410
    121  CG        68.5270   64.2440   90.4890 C.2   108  ASP108      0.3668
    122  OD1       68.4000   64.7940   89.3710 O.co2 108  ASP108     -0.2456
    123  OD2       69.6100   64.2470   91.1150 O.co2 108  ASP108     -0.2456
@<TRIPOS>BOND
     1    57    56    2
     2    56    55    1
     3    54    55    1
     4    55    58    1
     5    58    60    1
     6    58    59    1
     7    65    66    1
     8    65    62    1
     9    67    66    1
    10    66    68    1
    11    43    42    2
    12    61    62    1
    13    46    45    1
    14    62    63    1
    15    41    42    1
    16    41    40    1
    17    41    44    1
    18    51    50    2
    19    42    48   am
    20    45    44    1
    21    45    47    1
    22    50    49    1
    23    63    64    2
    24    48    49    1
    25    49    52    1
    26    35    34    2
    27    34    33    1
    28    84    83    1
    29    52    53    1
    30    83    85    1
    31    83    80    1
    32    38    36    1
    33    31    30    2
    34    69    70    1
    35    33    36    1
    36    33    32    1
    37    79    80    1
    38    79    71   am
    39    73    70    1
    40    73    74    1
    41    36    37    1
    42    30    32   am
    43    30    29    1
    44    80    81    1
    45    28    29    1
    46    70    71    1
    47    71    72    2
    48    74    76   ar
    49    74    75   ar
    50    81    82    2
    51    76    78   ar
    52    75    77   ar
    53    37    39    1
    54    20    19    2
    55    78    77   ar
    56    19    18    1
    57    10     9    2
    58    97    95    1
    59     7     8    1
    60     9     8    1
    61     9    17   am
    62     8    11    1
    63    18    17    1
    64    18    21    1
    65    95    94    1
    66    86    87    1
    67    21    22    1
    68    13    15   ar
    69    13    12   ar
    70    15    16   ar
    71    11    12    1
    72    12    14   ar
    73    16    14   ar
    74    94    96    1
    75    94    91    1
    76    87    88    1
    77    90    88   am
    78    90    91    1
    79    22    23    1
    80    88    89    2
    81    91    92    1
    82    23    24    1
    83     4     3    2
    84     3     2    1
    85     1     2    1
    86    24    25    2
    87    92    93    2
    88     2     5    1
    89   114   113    1
    90    25    27    1
    91    25    26    1
    92   104   106   ar
    93   104   103   ar
    94     5     6    1
    95   113   112    1
    96   113   115    1
    97    98    99    1
    98   106   107   ar
    99   102   103    1
   100   102    99    1
   101   103   105   ar
   102   112   109    1
   103    99   100    1
   104   108   100   am
   105   108   109    1
   106   107   105   ar
   107   100   101    2
   108   109   110    1
   109   110   111    2
   110   122   121   ar
   111   121   120    1
   112   121   123   ar
   113   120   117    1
   114   116   117    1
   115   117   118    1
   116   118   119    2
