@<TRIPOS>MOLECULE
tmp/3sffA00.pdb
 166 164 0 0 0
SMALL
GASTEIGER

@<TRIPOS>ATOM
      1  N         13.0040   19.6930  -17.5180 N.3    20  LYS20      -0.1231
      2  CA        12.6720   20.5540  -18.6570 C.3    20  LYS20       0.1693
      3  C         11.4500   21.4630  -18.4630 C.2    20  LYS20       0.2591
      4  O         11.1610   22.2820  -19.3400 O.2    20  LYS20      -0.2718
      5  CB        12.5490   19.7190  -19.9560 C.3    20  LYS20       0.0285
      6  CG        13.6240   18.6240  -20.1620 C.3    20  LYS20       0.0035
      7  CD        15.0000   19.1750  -20.5210 C.3    20  LYS20       0.0206
      8  CE        16.0720   18.7580  -19.5370 C.3    20  LYS20       0.1093
      9  NZ        16.4320   17.3180  -19.6680 N.3    20  LYS20      -0.1314
     10  N         10.7440   21.3440  -17.3100 N.am   21  ILE21      -0.1980
     11  CA         9.5260   22.1290  -17.0240 C.3    21  ILE21       0.1595
     12  C          9.6390   22.9240  -15.7040 C.2    21  ILE21       0.2287
     13  O          8.7980   22.7350  -14.8160 O.2    21  ILE21      -0.2864
     14  CB         8.2700   21.2120  -17.1080 C.3    21  ILE21       0.0276
     15  CG1        8.3770   19.9660  -16.1590 C.3    21  ILE21       0.0022
     16  CG2        8.0120   20.8010  -18.5810 C.3    21  ILE21       0.0022
     17  CD1        7.0760   19.0880  -16.0330 C.3    21  ILE21       0.0001
     18  N          6.6660   24.9850  -13.8300 N.3    24  ARG24      -0.1245
     19  CA         5.4430   24.7780  -14.6110 C.3    24  ARG24       0.1563
     20  C          4.2380   24.4620  -13.7310 C.2    24  ARG24       0.2260
     21  O          3.1710   24.9870  -13.9930 O.2    24  ARG24      -0.2867
     22  CB         5.6220   23.7250  -15.7360 C.3    24  ARG24       0.0307
     23  CG         4.5180   23.7730  -16.8060 C.3    24  ARG24       0.0489
     24  CD         4.5850   22.6670  -17.8660 C.3    24  ARG24       0.2205
     25  NE         4.2080   21.3550  -17.3240 N.pl3  24  ARG24      -0.0865
     26  CZ         4.1510   20.2210  -18.0240 C.cat  24  ARG24       0.5346
     27  NH1        4.4090   20.2210  -19.3280 N.pl3  24  ARG24       0.1354
     28  NH2        3.8340   19.0880  -17.4300 N.pl3  24  ARG24       0.1354
     29  N          0.5660   14.9710  -13.9820 N.3   103  GLY103     -0.1210
     30  CA         0.7200   13.5940  -14.4540 C.3   103  GLY103      0.1956
     31  C          0.7980   13.4550  -15.9640 C.2   103  GLY103      0.2612
     32  O          1.1000   14.4290  -16.6550 O.2   103  GLY103     -0.2717
     33  N          0.5470   12.2340  -16.4740 N.am  104  GLY104     -0.1942
     34  CA         0.5820   11.9230  -17.9130 C.3   104  GLY104      0.2014
     35  C          1.9450   11.5010  -18.4620 C.2   104  GLY104      0.2639
     36  O          2.2390   11.7340  -19.6340 O.2   104  GLY104     -0.2714
     37  N          2.7850   10.8670  -17.6300 N.am  105  TRP105     -0.1959
     38  CA         4.1410   10.4420  -17.9970 C.3   105  TRP105      0.1771
     39  C          4.1060    9.0810  -18.7470 C.2   105  TRP105      0.2620
     40  O          4.6090    8.0600  -18.2780 O.2   105  TRP105     -0.2715
     41  CB         5.0320   10.4530  -16.7400 C.3   105  TRP105      0.0590
     42  CG         5.1490   11.8280  -16.1480 C.ar  105  TRP105      0.0006
     43  CD1        4.2660   12.4220  -15.2960 C.ar  105  TRP105      0.0946
     44  CD2        6.1370   12.8210  -16.4550 C.ar  105  TRP105      0.0152
     45  NE1        4.6850   13.6930  -14.9880 N.ar  105  TRP105     -0.2442
     46  CE2        5.8280   13.9680  -15.6860 C.ar  105  TRP105      0.0810
     47  CE3        7.3280   12.8120  -17.2010 C.ar  105  TRP105      0.0012
     48  CZ2        6.6370   15.1160  -15.6820 C.ar  105  TRP105      0.0191
     49  CZ3        8.1410   13.9410  -17.1890 C.ar  105  TRP105      0.0001
     50  CH2        7.7980   15.0760  -16.4400 C.ar  105  TRP105      0.0015
     51  N          3.5040    9.1300  -19.9320 N.am  106  HIS106     -0.1959
     52  CA         3.0740    8.0510  -20.8170 C.3   106  HIS106      0.1787
     53  C          4.1120    7.1260  -21.4690 C.2   106  HIS106      0.2620
     54  O          3.7300    6.0590  -21.9360 O.2   106  HIS106     -0.2715
     55  CB         2.0510    8.6020  -21.8520 C.3   106  HIS106      0.0785
     56  CG         2.5850    9.6360  -22.8170 C.ar  106  HIS106      0.0821
     57  ND1        1.8500   10.0330  -23.9250 N.ar  106  HIS106     -0.2267
     58  CD2        3.7670   10.2990  -22.8270 C.ar  106  HIS106      0.1154
     59  CE1        2.6080   10.9180  -24.5560 C.ar  106  HIS106      0.1986
     60  NE2        3.7600   11.1220  -23.9170 N.ar  106  HIS106     -0.2212
     61  N          5.4070    7.5030  -21.4960 N.am  107  HIS107     -0.1973
     62  CA         6.4400    6.6900  -22.1490 C.3   107  HIS107      0.1656
     63  C          7.0440    5.5650  -21.3030 C.2   107  HIS107      0.2291
     64  O          7.6470    4.6370  -21.8630 O.2   107  HIS107     -0.2864
     65  CB         7.5930    7.5960  -22.6180 C.3   107  HIS107      0.0771
     66  CG         7.2200    8.6080  -23.6760 C.ar  107  HIS107      0.0820
     67  ND1        6.4480    8.2580  -24.7870 N.ar  107  HIS107     -0.2267
     68  CD2        7.5800    9.9090  -23.7890 C.ar  107  HIS107      0.1154
     69  CE1        6.3890    9.3460  -25.5360 C.ar  107  HIS107      0.1986
     70  NE2        7.0380   10.3690  -24.9730 N.ar  107  HIS107     -0.2212
     71  N         11.8940    6.0310  -20.1800 N.3   114  SER114     -0.1202
     72  CA        12.1300    6.5660  -21.5240 C.3   114  SER114      0.2020
     73  C         11.4050    7.8690  -21.7220 C.2   114  SER114      0.2619
     74  O         10.4170    8.1300  -21.0230 O.2   114  SER114     -0.2717
     75  CB        11.7620    5.5810  -22.6260 C.3   114  SER114      0.2103
     76  OG        10.3670    5.4200  -22.7390 O.3   114  SER114     -0.2182
     77  N         11.9170    8.6720  -22.6620 N.am  115  GLY115     -0.1942
     78  CA        11.3420    9.9630  -23.0200 C.3   115  GLY115      0.2014
     79  C         11.0150   10.8210  -21.8120 C.2   115  GLY115      0.2639
     80  O          9.9340   11.4010  -21.7550 O.2   115  GLY115     -0.2714
     81  N         11.9420   10.8730  -20.8240 N.am  116  PHE116     -0.1959
     82  CA        11.8420   11.6370  -19.5500 C.3   116  PHE116      0.1771
     83  C         10.8010   11.0950  -18.5530 C.2   116  PHE116      0.2619
     84  O         10.5370   11.7310  -17.5180 O.2   116  PHE116     -0.2715
     85  CB        11.6690   13.1610  -19.7840 C.3   116  PHE116      0.0574
     86  CG        12.6180   13.7650  -20.8050 C.ar  116  PHE116     -0.0200
     87  CD1       13.9770   13.4780  -20.7750 C.ar  116  PHE116     -0.0042
     88  CD2       12.1570   14.6540  -21.7620 C.ar  116  PHE116     -0.0042
     89  CE1       14.8520   14.0510  -21.7020 C.ar  116  PHE116     -0.0003
     90  CE2       13.0340   15.2270  -22.6890 C.ar  116  PHE116     -0.0003
     91  CZ        14.3720   14.9170  -22.6540 C.ar  116  PHE116     -0.0000
     92  N         10.2120    9.9250  -18.8670 N.am  117  CYS117     -0.1968
     93  CA         9.2020    9.2840  -18.0170 C.3   117  CYS117      0.1712
     94  C          9.8520    8.1380  -17.2320 C.2   117  CYS117      0.2296
     95  O         10.2800    7.1500  -17.8310 O.2   117  CYS117     -0.2864
     96  CB         8.0060    8.8120  -18.8500 C.3   117  CYS117      0.0983
     97  SG         7.2460   10.1080  -19.8790 S.3   117  CYS117     -0.0798
     98  N         -1.7080   14.0160  -26.3150 N.3   142  ASP142     -0.1239
     99  CA        -0.3500   14.5790  -26.2870 C.3   142  ASP142      0.1674
    100  C          0.2100   14.4600  -27.7120 C.2   142  ASP142      0.2266
    101  O         -0.1980   13.5450  -28.4230 O.2   142  ASP142     -0.2867
    102  CB         0.5020   13.7610  -25.3300 C.3   142  ASP142      0.1410
    103  CG         1.8800   14.3250  -25.0410 C.2   142  ASP142      0.3668
    104  OD1        2.7950   14.1220  -25.8770 O.co2 142  ASP142     -0.2456
    105  OD2        2.0770   14.8590  -23.9310 O.co2 142  ASP142     -0.2456
    106  N          2.9820   13.3010  -28.6110 N.3   144  HIS144     -0.1241
    107  CA         3.6910   12.0140  -28.7110 C.3   144  HIS144      0.1621
    108  C          2.8060   10.8010  -28.5300 C.2   144  HIS144      0.2264
    109  O          1.7980   10.8680  -27.8320 O.2   144  HIS144     -0.2867
    110  CB         4.8540   11.9500  -27.7150 C.3   144  HIS144      0.0745
    111  CG         5.8490   13.0600  -27.9000 C.ar  144  HIS144      0.0817
    112  ND1        5.7490   14.2390  -27.1870 N.ar  144  HIS144     -0.2268
    113  CD2        6.9440   13.1210  -28.6940 C.ar  144  HIS144      0.1154
    114  CE1        6.7870   14.9770  -27.5550 C.ar  144  HIS144      0.1986
    115  NE2        7.5360   14.3540  -28.4520 N.ar  144  HIS144     -0.2212
    116  N         10.2140   11.0070  -32.0520 N.3   172  PHE172     -0.1241
    117  CA        10.0650   10.1660  -30.8510 C.3   172  PHE172      0.1605
    118  C          8.5980    9.8060  -30.4950 C.2   172  PHE172      0.2264
    119  O          7.7300   10.6650  -30.5590 O.2   172  PHE172     -0.2867
    120  CB        10.7750   10.8280  -29.6290 C.3   172  PHE172      0.0534
    121  CG        10.8500    9.9410  -28.4030 C.ar  172  PHE172     -0.0203
    122  CD1        9.8270    9.9400  -27.4620 C.ar  172  PHE172     -0.0042
    123  CD2       11.8690    8.9980  -28.2680 C.ar  172  PHE172     -0.0042
    124  CE1        9.8800    9.0970  -26.3480 C.ar  172  PHE172     -0.0003
    125  CE2       11.8910    8.1150  -27.1860 C.ar  172  PHE172     -0.0003
    126  CZ        10.8950    8.1730  -26.2320 C.ar  172  PHE172     -0.0000
    127  N          1.8090   19.9290  -25.6630 N.3   231  ASP231     -0.1239
    128  CA         2.8690   20.0430  -26.6600 C.3   231  ASP231      0.1674
    129  C          2.3810   20.0670  -28.1050 C.2   231  ASP231      0.2266
    130  O          3.1880   20.2180  -29.0090 O.2   231  ASP231     -0.2867
    131  CB         4.0440   19.0590  -26.4080 C.3   231  ASP231      0.1410
    132  CG         3.7010   17.6110  -26.1800 C.2   231  ASP231      0.3668
    133  OD1        2.4950   17.2630  -26.2600 O.co2 231  ASP231     -0.2456
    134  OD2        4.6410   16.8160  -25.8930 O.co2 231  ASP231     -0.2456
    135  N          8.4840   21.9340  -29.4810 N.3   238  MET238     -0.1245
    136  CA         8.2600   20.7290  -30.2930 C.3   238  MET238      0.1570
    137  C          8.0000   21.1270  -31.7540 C.2   238  MET238      0.2261
    138  O          8.3140   20.3570  -32.6620 O.2   238  MET238     -0.2867
    139  CB         7.0870   19.8990  -29.7540 C.3   238  MET238      0.0387
    140  CG         7.3440   19.2150  -28.4050 C.3   238  MET238      0.0595
    141  SD         8.8470   18.2090  -28.2840 S.3   238  MET238     -0.1393
    142  CE         8.6640   17.2030  -29.6800 C.3   238  MET238      0.0692
    143  N          0.6820   16.3700  -19.3200 N.3   267  GLY267     -0.1210
    144  CA         1.6440   15.7100  -20.1960 C.3   267  GLY267      0.1956
    145  C          2.7430   16.6670  -20.6060 C.2   267  GLY267      0.2612
    146  O          3.1690   17.4950  -19.7890 O.2   267  GLY267     -0.2717
    147  N          3.2020   16.5490  -21.8570 N.am  268  GLY268     -0.1942
    148  CA         4.2480   17.4100  -22.4150 C.3   268  GLY268      0.2014
    149  C          3.7680   18.8420  -22.5260 C.2   268  GLY268      0.2639
    150  O          2.5690   19.0960  -22.4120 O.2   268  GLY268     -0.2714
    151  N          4.6940   19.7720  -22.7390 N.am  269  GLY269     -0.1939
    152  CA         4.3630   21.1910  -22.8790 C.3   269  GLY269      0.2014
    153  C          5.5050   22.0290  -22.3740 C.2   269  GLY269      0.2638
    154  O          5.6510   22.1980  -21.1620 O.2   269  GLY269     -0.2714
    155  N          6.3660   22.4760  -23.3030 N.am  270  TYR270     -0.1973
    156  CA         7.5980   23.2250  -23.0190 C.3   270  TYR270      0.1639
    157  C          7.5140   24.7600  -23.1210 C.2   270  TYR270      0.2290
    158  O          8.4060   25.4540  -22.6360 O.2   270  TYR270     -0.2864
    159  CB         8.7910   22.6430  -23.7970 C.3   270  TYR270      0.0560
    160  CG         9.2730   21.2570  -23.4030 C.ar  270  TYR270     -0.0198
    161  CD1       10.1910   20.5680  -24.1930 C.ar  270  TYR270     -0.0009
    162  CD2        8.8960   20.6810  -22.1930 C.ar  270  TYR270     -0.0009
    163  CE1       10.6840   19.3190  -23.8110 C.ar  270  TYR270      0.0417
    164  CE2        9.3640   19.4220  -21.8100 C.ar  270  TYR270      0.0417
    165  CZ        10.2490   18.7400  -22.6270 C.ar  270  TYR270      0.1957
    166  OH        10.7210   17.5030  -22.2530 O.3   270  TYR270     -0.2866
@<TRIPOS>BOND
     1   138   137    2
     2   116   117    1
     3   137   136    1
     4   117   118    1
     5   117   120    1
     6   119   118    2
     7   136   139    1
     8   136   135    1
     9   139   140    1
    10   142   141    1
    11   120   121    1
    12   130   129    2
    13   107   106    1
    14   107   108    1
    15   107   110    1
    16   113   115   ar
    17   113   111   ar
    18   108   109    2
    19   115   114   ar
    20   101   100    2
    21   140   141    1
    22   121   123   ar
    23   121   122   ar
    24   123   125   ar
    25   129   128    1
    26   111   110    1
    27   111   112   ar
    28   100    99    1
    29   114   112   ar
    30   122   124   ar
    31   125   126   ar
    32   128   131    1
    33   128   127    1
    34   131   132    1
    35   124   126   ar
    36    98    99    1
    37    99   102    1
    38   133   132   ar
    39   132   134   ar
    40   104   103   ar
    41    69    70   ar
    42    69    67   ar
    43   102   103    1
    44   103   105   ar
    45    70    68   ar
    46    67    66   ar
    47    59    57   ar
    48    59    60   ar
    49   161   163   ar
    50   161   160   ar
    51    57    56   ar
    52    60    58   ar
    53   163   165   ar
    54   159   160    1
    55   159   156    1
    56    68    66   ar
    57    66    65    1
    58   160   162   ar
    59   155   156    1
    60   155   153   am
    61   157   156    1
    62   157   158    2
    63    78    77    1
    64    78    79    1
    65   152   151    1
    66   152   153    1
    67    58    56   ar
    68    56    55    1
    69    76    75    1
    70   151   149   am
    71    90    91   ar
    72    90    88   ar
    73    77    73   am
    74    91    89   ar
    75   165   166    1
    76   165   164   ar
    77    75    72    1
    78    65    62    1
    79   149   148    1
    80   149   150    2
    81   148   147    1
    82   153   154    2
    83   162   164   ar
    84    62    61    1
    85    62    63    1
    86    54    53    2
    87    64    63    2
    88   147   145   am
    89    55    52    1
    90    79    80    2
    91    79    81   am
    92    88    86   ar
    93    73    72    1
    94    73    74    2
    95    89    87   ar
    96    72    71    1
    97    61    53   am
    98    53    52    1
    99    81    82    1
   100    52    51    1
   101    86    87   ar
   102    86    85    1
   103   145   144    1
   104   145   146    2
   105     7     6    1
   106     7     8    1
   107   144   143    1
   108     6     5    1
   109     5     2    1
   110    51    39   am
   111    97    96    1
   112    85    82    1
   113     9     8    1
   114    36    35    2
   115    82    83    1
   116     4     3    2
   117    27    26    1
   118    92    83   am
   119    92    93    1
   120    96    93    1
   121    39    40    2
   122    39    38    1
   123     2     3    1
   124     2     1    1
   125    16    14    1
   126    83    84    2
   127     3    10   am
   128    35    34    1
   129    35    37   am
   130    26    28    1
   131    26    25    2
   132    93    94    1
   133    38    37    1
   134    38    41    1
   135    34    33    1
   136    24    25    1
   137    24    23    1
   138    95    94    2
   139    10    11    1
   140    47    49   ar
   141    47    44   ar
   142    49    50   ar
   143    14    11    1
   144    14    15    1
   145    11    12    1
   146    23    22    1
   147    41    42    1
   148    32    31    2
   149    33    31   am
   150    44    42   ar
   151    44    46   ar
   152    50    48   ar
   153    15    17    1
   154    42    43   ar
   155    31    30    1
   156    22    19    1
   157    12    13    2
   158    46    48   ar
   159    46    45   ar
   160    43    45   ar
   161    19    18    1
   162    19    20    1
   163    30    29    1
   164    21    20    2
