@<TRIPOS>MOLECULE
tmp/3sfgC00.pdb
 121 115 0 0 0
SMALL
GASTEIGER

@<TRIPOS>ATOM
      1  N         89.2410   40.6910    8.3690 N.3   181  ARG181     -0.1245
      2  CA        88.3590   41.8540    8.4800 C.3   181  ARG181      0.1563
      3  C         89.0630   43.1840    8.2420 C.2   181  ARG181      0.2260
      4  O         90.1880   43.4090    8.6930 O.2   181  ARG181     -0.2867
      5  CB        87.5880   41.8480    9.7930 C.3   181  ARG181      0.0307
      6  CG        86.6640   40.6370    9.9100 C.3   181  ARG181      0.0489
      7  CD        85.5380   40.8760   10.9080 C.3   181  ARG181      0.2205
      8  NE        86.0040   40.8010   12.2870 N.pl3 181  ARG181     -0.0865
      9  CZ        85.5330   41.5490   13.2800 C.cat 181  ARG181      0.5346
     10  NH1       84.5800   42.4460   13.0510 N.pl3 181  ARG181      0.1354
     11  NH2       86.0240   41.4030   14.5060 N.pl3 181  ARG181      0.1354
     12  N         89.8160   47.1870    8.3990 N.3   183  LEU183     -0.1245
     13  CA        89.7790   48.2600    9.3820 C.3   183  LEU183      0.1561
     14  C         89.9530   49.6080    8.7190 C.2   183  LEU183      0.2260
     15  O         90.7070   49.7500    7.7640 O.2   183  LEU183     -0.2867
     16  CB        90.8870   48.0730   10.4130 C.3   183  LEU183      0.0270
     17  CG        90.7980   46.7210   11.1120 C.3   183  LEU183      0.0019
     18  CD1       91.9510   46.5260   12.0870 C.3   183  LEU183      0.0001
     19  CD2       89.4540   46.5990   11.8060 C.3   183  LEU183      0.0001
     20  N         77.2690   44.2230    8.5380 N.3   245  TRP245     -0.1227
     21  CA        76.4790   45.3920    8.8440 C.3   245  TRP245      0.1737
     22  C         77.1460   46.6740    8.3510 C.2   245  TRP245      0.2595
     23  O         76.4800   47.5590    7.7970 O.2   245  TRP245     -0.2718
     24  CB        76.2900   45.4700   10.3720 C.3   245  TRP245      0.0564
     25  CG        75.7490   46.7840   10.8300 C.ar  245  TRP245      0.0003
     26  CD1       76.4440   47.9550   10.9960 C.ar  245  TRP245      0.0946
     27  CD2       74.3830   47.0780   11.1470 C.ar  245  TRP245      0.0152
     28  NE1       75.5880   48.9580   11.4030 N.ar  245  TRP245     -0.2442
     29  CE2       74.3190   48.4440   11.5080 C.ar  245  TRP245      0.0810
     30  CE3       73.2080   46.3150   11.1510 C.ar  245  TRP245      0.0012
     31  CZ2       73.1220   49.0660   11.8830 C.ar  245  TRP245      0.0191
     32  CZ3       72.0190   46.9300   11.5210 C.ar  245  TRP245      0.0001
     33  CH2       71.9860   48.2940   11.8920 C.ar  245  TRP245      0.0015
     34  N         78.4570   46.7830    8.5730 N.am  246  ASP246     -0.1974
     35  CA        79.1770   48.0220    8.2500 C.3   246  ASP246      0.1709
     36  C         79.1030   48.3440    6.7690 C.2   246  ASP246      0.2293
     37  O         78.7730   49.4690    6.3690 O.2   246  ASP246     -0.2864
     38  CB        80.6470   47.9460    8.6990 C.3   246  ASP246      0.1436
     39  CG        80.8180   48.1960   10.1940 C.2   246  ASP246      0.3671
     40  OD1       79.7920   48.2540   10.9170 O.co2 246  ASP246     -0.2456
     41  OD2       81.9780   48.3310   10.6430 O.co2 246  ASP246     -0.2456
     42  N         79.5830   52.3390    6.0580 N.3   297  LEU297     -0.1245
     43  CA        80.0100   53.0540    7.2520 C.3   297  LEU297      0.1561
     44  C         81.5280   53.2150    7.2310 C.2   297  LEU297      0.2260
     45  O         82.2610   52.2250    7.1510 O.2   297  LEU297     -0.2867
     46  CB        79.5730   52.2780    8.4980 C.3   297  LEU297      0.0270
     47  CG        79.6510   52.9270    9.8770 C.3   297  LEU297      0.0019
     48  CD1       80.7090   52.2390   10.7100 C.3   297  LEU297      0.0001
     49  CD2       79.9090   54.4090    9.7820 C.3   297  LEU297      0.0001
     50  N         84.3830   53.7410    9.3940 N.3   299  SER299     -0.1202
     51  CA        84.6310   53.5930   10.8290 C.3   299  SER299      0.2020
     52  C         85.9470   54.2490   11.2640 C.2   299  SER299      0.2619
     53  O         86.5760   54.9740   10.4990 O.2   299  SER299     -0.2717
     54  CB        84.6100   52.1050   11.1980 C.3   299  SER299      0.2103
     55  OG        84.6180   51.3060   10.0220 O.3   299  SER299     -0.2182
     56  N         86.3590   54.0150   12.5000 N.am  300  GLY300     -0.1956
     57  CA        87.6740   54.4640   12.9200 C.3   300  GLY300      0.1869
     58  C         87.8090   55.8570   13.5070 C.2   300  GLY300      0.2309
     59  O         88.8410   56.1600   14.1110 O.2   300  GLY300     -0.2863
     60  N         82.1760   56.7990   16.0970 N.3   304  THR304     -0.1203
     61  CA        81.6780   55.8400   15.1340 C.3   304  THR304      0.1994
     62  C         80.6800   54.8800   15.7830 C.2   304  THR304      0.2618
     63  O         79.5410   54.7380   15.3160 O.2   304  THR304     -0.2717
     64  CB        82.8310   55.0260   14.5310 C.3   304  THR304      0.1784
     65  OG1       83.6830   55.9010   13.7800 O.3   304  THR304     -0.2211
     66  CG2       82.2880   53.9240   13.6120 C.3   304  THR304      0.0376
     67  N         81.1040   54.2170   16.8540 N.am  305  THR305     -0.1952
     68  CA        80.2470   53.2090   17.4440 C.3   305  THR305      0.1897
     69  C         78.9110   53.8150   17.8570 C.2   305  THR305      0.2313
     70  O         77.8640   53.2190   17.6260 O.2   305  THR305     -0.2863
     71  CB        80.9170   52.4230   18.5960 C.3   305  THR305      0.1794
     72  OG1       82.2100   51.9820   18.1770 O.3   305  THR305     -0.2208
     73  CG2       80.1050   51.1830   18.9280 C.3   305  THR305      0.0378
     74  N         76.8700   54.5840   14.7470 N.3   308  ASN308     -0.1240
     75  CA        76.4750   53.3120   14.1620 C.3   308  ASN308      0.1653
     76  C         75.3020   52.7170   14.9440 C.2   308  ASN308      0.2266
     77  O         74.3050   52.2420   14.3690 O.2   308  ASN308     -0.2867
     78  CB        77.6660   52.3520   14.1650 C.3   308  ASN308      0.1155
     79  CG        77.5360   51.2460   13.1310 C.2   308  ASN308      0.2627
     80  OD1       76.7580   51.3600   12.1660 O.2   308  ASN308     -0.2716
     81  ND2       78.3040   50.1680   13.3160 N.am  308  ASN308     -0.0877
     82  N         74.9370   48.0610   20.1450 N.3   340  TYR340     -0.1227
     83  CA        76.3510   48.3900   20.2530 C.3   340  TYR340      0.1736
     84  C         76.9690   48.1650   18.8790 C.2   340  TYR340      0.2596
     85  O         77.3910   47.0470   18.5700 O.2   340  TYR340     -0.2718
     86  CB        77.0150   47.4520   21.2590 C.3   340  TYR340      0.0548
     87  CG        78.3280   47.9470   21.8040 C.ar  340  TYR340     -0.0200
     88  CD1       79.4070   48.1890   20.9600 C.ar  340  TYR340     -0.0009
     89  CD2       78.5010   48.1440   23.1800 C.ar  340  TYR340     -0.0009
     90  CE1       80.6220   48.6420   21.4650 C.ar  340  TYR340      0.0417
     91  CE2       79.7060   48.5870   23.6970 C.ar  340  TYR340      0.0417
     92  CZ        80.7650   48.8350   22.8320 C.ar  340  TYR340      0.1957
     93  OH        81.9700   49.2690   23.3370 O.3   340  TYR340     -0.2866
     94  N         77.0360   49.2170   18.0630 N.am  341  GLY341     -0.1942
     95  CA        77.4220   49.0450   16.6710 C.3   341  GLY341      0.2014
     96  C         76.4300   48.1110   15.9810 C.2   341  GLY341      0.2639
     97  O         75.2410   48.4300   15.9010 O.2   341  GLY341     -0.2714
     98  N         76.8830   46.9500   15.5180 N.am  342  ASP342     -0.1957
     99  CA        75.9790   46.0470   14.8140 C.3   342  ASP342      0.1840
    100  C         75.3100   45.0440   15.7660 C.2   342  ASP342      0.2622
    101  O         74.4520   44.2580   15.3600 O.2   342  ASP342     -0.2715
    102  CB        76.7420   45.2840   13.7340 C.3   342  ASP342      0.1450
    103  CG        77.7770   44.3390   14.3250 C.2   342  ASP342      0.3671
    104  OD1       78.2380   44.6070   15.4560 O.co2 342  ASP342     -0.2456
    105  OD2       78.1330   43.3320   13.6780 O.co2 342  ASP342     -0.2456
    106  N         75.7210   45.0620   17.0300 N.am  343  ASP343     -0.1971
    107  CA        75.2690   44.0700   17.9940 C.3   343  ASP343      0.1709
    108  C         73.9580   44.5290   18.6480 C.2   343  ASP343      0.2293
    109  O         73.7620   45.7220   18.9190 O.2   343  ASP343     -0.2864
    110  CB        76.3650   43.8410   19.0400 C.3   343  ASP343      0.1436
    111  CG        76.2310   42.5100   19.7530 C.2   343  ASP343      0.3671
    112  OD1       75.5900   41.5870   19.2100 O.co2 343  ASP343     -0.2456
    113  OD2       76.7770   42.3710   20.8640 O.co2 343  ASP343     -0.2456
    114  N         77.6520   41.3560   23.2870 N.3   390  LEU390     -0.1245
    115  CA        79.0740   41.6290   23.4850 C.3   390  LEU390      0.1561
    116  C         79.8500   40.3450   23.7740 C.2   390  LEU390      0.2260
    117  O         80.7440   40.3230   24.6220 O.2   390  LEU390     -0.2867
    118  CB        79.2780   42.6560   24.5920 C.3   390  LEU390      0.0270
    119  CG        78.5220   43.9650   24.3380 C.3   390  LEU390      0.0019
    120  CD1       78.6800   44.9060   25.5200 C.3   390  LEU390      0.0001
    121  CD2       79.0030   44.6320   23.0610 C.3   390  LEU390      0.0001
@<TRIPOS>BOND
     1    42    43    1
     2    37    36    2
     3    36    35    1
     4    45    44    2
     5    44    43    1
     6    43    46    1
     7    15    14    2
     8    23    22    2
     9     3     2    1
    10     3     4    2
    11    35    34    1
    12    35    38    1
    13    22    34   am
    14    22    21    1
    15     1     2    1
    16    12    13    1
    17     2     5    1
    18    46    47    1
    19    20    21    1
    20    38    39    1
    21    14    13    1
    22    21    24    1
    23    13    16    1
    24    50    51    1
    25    49    47    1
    26     5     6    1
    27    47    48    1
    28     6     7    1
    29    55    54    1
    30    39    41   ar
    31    39    40   ar
    32    24    25    1
    33    16    17    1
    34    53    52    2
    35    51    54    1
    36    51    52    1
    37    25    26   ar
    38    25    27   ar
    39     7     8    1
    40    26    28   ar
    41    17    19    1
    42    17    18    1
    43    27    30   ar
    44    27    29   ar
    45    30    32   ar
    46    52    56   am
    47    28    29   ar
    48    29    31   ar
    49    32    33   ar
    50    31    33   ar
    51    80    79    2
    52     8     9    2
    53    56    57    1
    54    57    58    1
    55    10     9    1
    56    79    81   am
    57    79    78    1
    58     9    11    1
    59    58    59    2
    60    66    64    1
    61   105   103   ar
    62   102   103    1
    63   102    99    1
    64    65    64    1
    65    75    78    1
    66    75    74    1
    67    75    76    1
    68   103   104   ar
    69    77    76    2
    70    64    61    1
    71    99    98    1
    72    99   100    1
    73    61    62    1
    74    61    60    1
    75    63    62    2
    76   101   100    2
    77    98    96   am
    78   100   106   am
    79    62    67   am
    80    97    96    2
    81    96    95    1
    82    95    94    1
    83    67    68    1
    84   106   107    1
    85    68    69    1
    86    68    71    1
    87    70    69    2
    88   107   108    1
    89   107   110    1
    90    94    84   am
    91    72    71    1
    92    85    84    2
    93    71    73    1
    94   108   109    2
    95    84    83    1
    96   110   111    1
    97   112   111   ar
    98   111   113   ar
    99    82    83    1
   100    83    86    1
   101    88    90   ar
   102    88    87   ar
   103    86    87    1
   104    90    92   ar
   105    87    89   ar
   106    92    93    1
   107    92    91   ar
   108   121   119    1
   109    89    91   ar
   110   114   115    1
   111   115   116    1
   112   115   118    1
   113   116   117    2
   114   119   118    1
   115   119   120    1
