@<TRIPOS>MOLECULE
tmp/3sfhA00.pdb
 147 145 0 0 0
SMALL
GASTEIGER

@<TRIPOS>ATOM
      1  N         10.8940   21.6820  -17.1020 N.3    21  ILE21      -0.1245
      2  CA         9.6360   22.3670  -16.8240 C.3    21  ILE21       0.1561
      3  C          9.6540   23.0680  -15.4700 C.2    21  ILE21       0.2260
      4  O          8.7970   22.8220  -14.6190 O.2    21  ILE21      -0.2867
      5  CB         8.4560   21.3830  -16.8410 C.3    21  ILE21       0.0252
      6  CG1        8.7890   20.1690  -15.9730 C.3    21  ILE21       0.0019
      7  CG2        8.1410   20.9760  -18.2660 C.3    21  ILE21       0.0019
      8  CD1        7.5900   19.5760  -15.2750 C.3    21  ILE21       0.0001
      9  N          6.6820   25.0350  -13.4440 N.3    24  ARG24      -0.1245
     10  CA         5.4920   24.8880  -14.2760 C.3    24  ARG24       0.1563
     11  C          4.2650   24.5570  -13.4300 C.2    24  ARG24       0.2260
     12  O          3.1880   25.1180  -13.6310 O.2    24  ARG24      -0.2867
     13  CB         5.7120   23.7870  -15.3200 C.3    24  ARG24       0.0307
     14  CG         4.6880   23.7860  -16.4520 C.3    24  ARG24       0.0489
     15  CD         4.9200   22.6550  -17.4530 C.3    24  ARG24       0.2205
     16  NE         4.4950   21.3540  -16.9350 N.pl3  24  ARG24      -0.0865
     17  CZ         4.2550   20.2890  -17.6950 C.cat  24  ARG24       0.5346
     18  NH1        4.3940   20.3630  -19.0110 N.pl3  24  ARG24       0.1354
     19  NH2        3.8780   19.1480  -17.1380 N.pl3  24  ARG24       0.1354
     20  N          0.6880   12.0890  -16.1110 N.3   105  GLY105     -0.1210
     21  CA         0.5960   11.8350  -17.5360 C.3   105  GLY105      0.1956
     22  C          1.9090   11.4590  -18.1920 C.2   105  GLY105      0.2612
     23  O          2.1200   11.7350  -19.3690 O.2   105  GLY105     -0.2717
     24  N          2.7920   10.8220  -17.4340 N.am  106  TRP106     -0.1962
     25  CA         4.0990   10.4270  -17.9430 C.3   106  TRP106      0.1771
     26  C          4.0330    9.0790  -18.6470 C.2   106  TRP106      0.2620
     27  O          4.2900    8.0330  -18.0560 O.2   106  TRP106     -0.2715
     28  CB         5.0930   10.3900  -16.7890 C.3   106  TRP106      0.0590
     29  CG         5.2250   11.7260  -16.1530 C.ar  106  TRP106      0.0006
     30  CD1        4.3020   12.3510  -15.3660 C.ar  106  TRP106      0.0946
     31  CD2        6.3190   12.6350  -16.2890 C.ar  106  TRP106      0.0152
     32  NE1        4.7510   13.5970  -15.0090 N.ar  106  TRP106     -0.2442
     33  CE2        5.9880   13.7960  -15.5630 C.ar  106  TRP106      0.0810
     34  CE3        7.5440   12.5830  -16.9590 C.ar  106  TRP106      0.0012
     35  CZ2        6.8400   14.8950  -15.4830 C.ar  106  TRP106      0.0191
     36  CZ3        8.3910   13.6740  -16.8790 C.ar  106  TRP106      0.0001
     37  CH2        8.0340   14.8150  -16.1470 C.ar  106  TRP106      0.0015
     38  N          3.7110    9.1320  -19.9330 N.am  107  HIS107     -0.1959
     39  CA         3.1680    7.9950  -20.6650 C.3   107  HIS107      0.1787
     40  C          4.1990    7.0530  -21.2780 C.2   107  HIS107      0.2620
     41  O          3.8400    5.9950  -21.7850 O.2   107  HIS107     -0.2715
     42  CB         2.2340    8.5040  -21.7680 C.3   107  HIS107      0.0785
     43  CG         2.8220    9.6020  -22.6040 C.ar  107  HIS107      0.0821
     44  ND1        2.1780   10.1240  -23.7050 N.ar  107  HIS107     -0.2267
     45  CD2        3.9920   10.2760  -22.5000 C.ar  107  HIS107      0.1154
     46  CE1        2.9250   11.0710  -24.2420 C.ar  107  HIS107      0.1986
     47  NE2        4.0320   11.1840  -23.5290 N.ar  107  HIS107     -0.2212
     48  N          5.4710    7.4310  -21.2420 N.am  108  HIS108     -0.1973
     49  CA         6.4990    6.6480  -21.9200 C.3   108  HIS108      0.1656
     50  C          7.0840    5.5580  -21.0320 C.2   108  HIS108      0.2291
     51  O          7.6160    4.5690  -21.5310 O.2   108  HIS108     -0.2864
     52  CB         7.6230    7.5610  -22.4190 C.3   108  HIS108      0.0771
     53  CG         7.1860    8.5470  -23.4590 C.ar  108  HIS108      0.0820
     54  ND1        6.4330    8.1890  -24.5580 N.ar  108  HIS108     -0.2267
     55  CD2        7.3990    9.8800  -23.5680 C.ar  108  HIS108      0.1154
     56  CE1        6.2020    9.2580  -25.2990 C.ar  108  HIS108      0.1986
     57  NE2        6.7770   10.2980  -24.7200 N.ar  108  HIS108     -0.2212
     58  N         11.7670    8.5560  -22.4180 N.3   116  GLY116     -0.1210
     59  CA        10.9750    9.7390  -22.6930 C.3   116  GLY116      0.1956
     60  C         10.8570   10.6180  -21.4670 C.2   116  GLY116      0.2612
     61  O          9.8890   11.3570  -21.3150 O.2   116  GLY116     -0.2717
     62  N         11.8470   10.5260  -20.5840 N.am  117  PHE117     -0.1962
     63  CA        11.8910   11.3390  -19.3750 C.3   117  PHE117      0.1771
     64  C         10.8300   10.9020  -18.3740 C.2   117  PHE117      0.2619
     65  O         10.5330   11.6210  -17.4210 O.2   117  PHE117     -0.2715
     66  CB        11.7130   12.8190  -19.7280 C.3   117  PHE117      0.0574
     67  CG        12.7270   13.3270  -20.7170 C.ar  117  PHE117     -0.0200
     68  CD1       14.0250   13.6050  -20.3180 C.ar  117  PHE117     -0.0042
     69  CD2       12.3960   13.4930  -22.0530 C.ar  117  PHE117     -0.0042
     70  CE1       14.9720   14.0370  -21.2350 C.ar  117  PHE117     -0.0003
     71  CE2       13.3410   13.9250  -22.9750 C.ar  117  PHE117     -0.0003
     72  CZ        14.6270   14.1950  -22.5650 C.ar  117  PHE117     -0.0000
     73  N         10.2650    9.7180  -18.5890 N.am  118  CYS118     -0.1968
     74  CA         9.2910    9.1560  -17.6570 C.3   118  CYS118      0.1712
     75  C          9.8810    7.9730  -16.8890 C.2   118  CYS118      0.2296
     76  O         10.1810    6.9340  -17.4760 O.2   118  CYS118     -0.2864
     77  CB         8.0470    8.7030  -18.4200 C.3   118  CYS118      0.0983
     78  SG         7.3180    9.9770  -19.4650 S.3   118  CYS118     -0.0798
     79  N         -1.4850   13.7970  -26.1300 N.3   143  ASP143     -0.1239
     80  CA        -0.1310   14.3460  -26.1170 C.3   143  ASP143      0.1674
     81  C          0.4360   14.3930  -27.5390 C.2   143  ASP143      0.2266
     82  O         -0.1190   13.7900  -28.4520 O.2   143  ASP143     -0.2867
     83  CB         0.7630   13.4720  -25.2280 C.3   143  ASP143      0.1410
     84  CG         2.1130   14.1080  -24.9420 C.2   143  ASP143      0.3668
     85  OD1        3.0190   14.0170  -25.7980 O.co2 143  ASP143     -0.2456
     86  OD2        2.2680   14.6970  -23.8530 O.co2 143  ASP143     -0.2456
     87  N          3.2490   13.0570  -28.3430 N.3   145  HIS145     -0.1241
     88  CA         3.9670   11.7960  -28.5300 C.3   145  HIS145      0.1621
     89  C          3.0800   10.5900  -28.2680 C.2   145  HIS145      0.2264
     90  O          2.2550   10.6050  -27.3650 O.2   145  HIS145     -0.2867
     91  CB         5.1700   11.7220  -27.5860 C.3   145  HIS145      0.0745
     92  CG         6.1130   12.8730  -27.7220 C.ar  145  HIS145      0.0817
     93  ND1        5.8940   14.0880  -27.1120 N.ar  145  HIS145     -0.2268
     94  CD2        7.2770   12.9960  -28.4020 C.ar  145  HIS145      0.1154
     95  CE1        6.8820   14.9120  -27.4120 C.ar  145  HIS145      0.1986
     96  NE2        7.7340   14.2740  -28.1930 N.ar  145  HIS145     -0.2212
     97  N         10.1880   10.7900  -31.7410 N.3   173  PHE173     -0.1241
     98  CA        10.0200    9.8990  -30.6020 C.3   173  PHE173      0.1605
     99  C          8.5470    9.5730  -30.3640 C.2   173  PHE173      0.2264
    100  O          7.6800   10.4160  -30.5800 O.2   173  PHE173     -0.2867
    101  CB        10.6080   10.5720  -29.3630 C.3   173  PHE173      0.0534
    102  CG        10.5570    9.7250  -28.1380 C.ar  173  PHE173     -0.0203
    103  CD1        9.4360    9.7220  -27.3290 C.ar  173  PHE173     -0.0042
    104  CD2       11.6260    8.9170  -27.8000 C.ar  173  PHE173     -0.0042
    105  CE1        9.3840    8.9270  -26.2060 C.ar  173  PHE173     -0.0003
    106  CE2       11.5800    8.1220  -26.6820 C.ar  173  PHE173     -0.0003
    107  CZ        10.4580    8.1250  -25.8820 C.ar  173  PHE173     -0.0000
    108  N          2.0760   19.8770  -25.2790 N.3   232  ASP232     -0.1239
    109  CA         3.1340   19.9900  -26.2750 C.3   232  ASP232      0.1674
    110  C          2.6250   19.8050  -27.7000 C.2   232  ASP232      0.2266
    111  O          3.3760   19.4040  -28.5860 O.2   232  ASP232     -0.2867
    112  CB         4.2670   18.9870  -25.9820 C.3   232  ASP232      0.1410
    113  CG         3.8030   17.5370  -25.9860 C.2   232  ASP232      0.3668
    114  OD1        2.6090   17.2750  -26.2160 O.co2 232  ASP232     -0.2456
    115  OD2        4.6420   16.6480  -25.7530 O.co2 232  ASP232     -0.2456
    116  N          8.6390   21.9150  -29.4060 N.3   239  MET239     -0.1245
    117  CA         8.5240   20.7150  -30.2340 C.3   239  MET239      0.1570
    118  C          8.1950   21.0690  -31.6820 C.2   239  MET239      0.2261
    119  O          8.5890   20.3690  -32.6100 O.2   239  MET239     -0.2867
    120  CB         7.4440   19.7860  -29.6750 C.3   239  MET239      0.0387
    121  CG         7.7970   19.1250  -28.3490 C.3   239  MET239      0.0595
    122  SD         9.1020   17.8950  -28.4980 S.3   239  MET239     -0.1393
    123  CE        10.5490   18.9040  -28.1720 C.3   239  MET239      0.0692
    124  N          0.7050   16.4980  -19.1700 N.3   268  GLY268     -0.1210
    125  CA         1.7200   15.7960  -19.9390 C.3   268  GLY268      0.1956
    126  C          2.9230   16.6410  -20.3150 C.2   268  GLY268      0.2612
    127  O          3.4370   17.4030  -19.4960 O.2   268  GLY268     -0.2717
    128  N          3.3770   16.4950  -21.5570 N.am  269  GLY269     -0.1942
    129  CA         4.4620   17.3200  -22.0580 C.3   269  GLY269      0.2014
    130  C          4.0920   18.7910  -22.0510 C.2   269  GLY269      0.2639
    131  O          3.1340   19.1860  -21.3930 O.2   269  GLY269     -0.2714
    132  N          4.8440   19.6070  -22.7810 N.am  270  GLY270     -0.1939
    133  CA         4.6010   21.0380  -22.7720 C.3   270  GLY270      0.2014
    134  C          5.7810   21.8080  -22.2100 C.2   270  GLY270      0.2638
    135  O          5.8370   22.0820  -21.0120 O.2   270  GLY270     -0.2714
    136  N          6.7270   22.1520  -23.0820 N.am  271  TYR271     -0.1973
    137  CA         7.9470   22.8540  -22.6870 C.3   271  TYR271      0.1639
    138  C          7.8240   24.3610  -22.8290 C.2   271  TYR271      0.2290
    139  O          8.7420   25.0980  -22.4710 O.2   271  TYR271     -0.2864
    140  CB         9.1330   22.3850  -23.5270 C.3   271  TYR271      0.0560
    141  CG         9.6800   21.0420  -23.1230 C.ar  271  TYR271     -0.0198
    142  CD1        9.5530   20.5810  -21.8190 C.ar  271  TYR271     -0.0009
    143  CD2       10.3510   20.2450  -24.0380 C.ar  271  TYR271     -0.0009
    144  CE1       10.0860   19.3600  -21.4370 C.ar  271  TYR271      0.0417
    145  CE2       10.8880   19.0240  -23.6670 C.ar  271  TYR271      0.0417
    146  CZ        10.7550   18.5870  -22.3670 C.ar  271  TYR271      0.1957
    147  OH        11.3020   17.3790  -21.9980 O.3   271  TYR271     -0.2866
@<TRIPOS>BOND
     1   119   118    2
     2    97    98    1
     3   118   117    1
     4    98    99    1
     5    98   101    1
     6   100    99    2
     7   117   120    1
     8   117   116    1
     9   120   121    1
    10   101   102    1
    11   111   110    2
    12    88    87    1
    13    88    89    1
    14    88    91    1
    15   122   121    1
    16   122   123    1
    17    82    81    2
    18    94    96   ar
    19    94    92   ar
    20    89    90    2
    21    96    95   ar
    22   102   104   ar
    23   102   103   ar
    24   104   106   ar
    25    92    91    1
    26    92    93   ar
    27   110   109    1
    28    81    80    1
    29    95    93   ar
    30   103   105   ar
    31   106   107   ar
    32   109   112    1
    33   109   108    1
    34   114   113   ar
    35   105   107   ar
    36    79    80    1
    37    80    83    1
    38   113   112    1
    39   113   115   ar
    40    85    84   ar
    41    56    57   ar
    42    56    54   ar
    43    83    84    1
    44    84    86   ar
    45    57    55   ar
    46    54    53   ar
    47    46    44   ar
    48    46    47   ar
    49   143   145   ar
    50   143   141   ar
    51    44    43   ar
    52   145   146   ar
    53    55    53   ar
    54    47    45   ar
    55   140   141    1
    56   140   137    1
    57    53    52    1
    58   141   142   ar
    59   136   137    1
    60   136   134   am
    61    71    72   ar
    62    71    69   ar
    63   138   137    1
    64   138   139    2
    65   132   133    1
    66   132   130   am
    67   133   134    1
    68    59    58    1
    69    59    60    1
    70    43    45   ar
    71    43    42    1
    72    72    70   ar
    73    52    49    1
    74   146   147    1
    75   146   144   ar
    76   134   135    2
    77   129   130    1
    78   129   128    1
    79    69    67   ar
    80   130   131    2
    81    49    48    1
    82    49    50    1
    83   142   144   ar
    84    41    40    2
    85    42    39    1
    86   128   126   am
    87    51    50    2
    88    60    61    2
    89    60    62   am
    90    40    48   am
    91    40    39    1
    92    70    68   ar
    93    67    68   ar
    94    67    66    1
    95    39    38    1
    96    62    63    1
    97   126   125    1
    98   126   127    2
    99   125   124    1
   100    38    26   am
   101    66    63    1
   102    78    77    1
   103    63    64    1
   104    23    22    2
   105    18    17    1
   106    26    27    2
   107    26    25    1
   108    73    64   am
   109    73    74    1
   110    77    74    1
   111    64    65    2
   112     7     5    1
   113    22    21    1
   114    22    24   am
   115    25    24    1
   116    25    28    1
   117    17    19    1
   118    17    16    2
   119    74    75    1
   120    21    20    1
   121    76    75    2
   122    15    16    1
   123    15    14    1
   124     1     2    1
   125    34    36   ar
   126    34    31   ar
   127    36    37   ar
   128     5     2    1
   129     5     6    1
   130     2     3    1
   131    28    29    1
   132    14    13    1
   133    31    29   ar
   134    31    33   ar
   135    29    30   ar
   136    37    35   ar
   137     6     8    1
   138    33    35   ar
   139    33    32   ar
   140     3     4    2
   141    30    32   ar
   142    13    10    1
   143    10     9    1
   144    10    11    1
   145    12    11    2
