@<TRIPOS>MOLECULE
tmp/3sfiA00.pdb
 216 213 0 0 0
SMALL
GASTEIGER

@<TRIPOS>ATOM
      1  N         35.1830   -6.5820   -5.1200 N.3    66  LEU66      -0.1245
      2  CA        33.9250   -6.3060   -4.3900 C.3    66  LEU66       0.1561
      3  C         34.0290   -5.2720   -3.1970 C.2    66  LEU66       0.2260
      4  O         33.1500   -4.4110   -3.0400 O.2    66  LEU66      -0.2867
      5  CB        33.2670   -7.6140   -3.9240 C.3    66  LEU66       0.0270
      6  CG        31.9680   -7.4090   -3.1220 C.3    66  LEU66       0.0019
      7  CD1       30.7760   -6.9410   -4.0550 C.3    66  LEU66       0.0001
      8  CD2       31.6180   -8.6330   -2.2860 C.3    66  LEU66       0.0001
      9  N         34.1170   -1.6840   -4.6630 N.3    69  LEU69      -0.1231
     10  CA        32.7170   -1.3370   -4.9440 C.3    69  LEU69       0.1693
     11  C         31.9410   -0.8700   -3.7270 C.2    69  LEU69       0.2591
     12  O         31.2740    0.1640   -3.7460 O.2    69  LEU69      -0.2718
     13  CB        32.0340   -2.5700   -5.4890 C.3    69  LEU69       0.0284
     14  CG        31.2090   -2.3440   -6.7260 C.3    69  LEU69       0.0019
     15  CD1       32.0590   -1.6350   -7.7670 C.3    69  LEU69       0.0001
     16  CD2       30.7510   -3.7080   -7.2210 C.3    69  LEU69       0.0001
     17  N         32.0260   -1.6710   -2.6790 N.am   70  ALA70      -0.1980
     18  CA        31.4120   -1.3960   -1.4030 C.3    70  ALA70       0.1597
     19  C         31.8530   -0.0650   -0.7390 C.2    70  ALA70       0.2287
     20  O         31.0560    0.5740   -0.0580 O.2    70  ALA70      -0.2864
     21  CB        31.6890   -2.5840   -0.4590 C.3    70  ALA70       0.0319
     22  N         30.7430    4.0340   -3.3790 N.3    73  PRO73      -0.2102
     23  CA        29.3650    3.8350   -3.9540 C.3    73  PRO73       0.1504
     24  C         29.1180    4.3480   -5.4130 C.2    73  PRO73       0.2575
     25  O         28.9580    5.5650   -5.6330 O.2    73  PRO73      -0.2718
     26  CB        28.4490    4.5880   -2.9590 C.3    73  PRO73       0.0282
     27  CG        29.3720    5.5910   -2.2720 C.3    73  PRO73       0.0208
     28  CD        30.7040    4.8650   -2.1600 C.3    73  PRO73       0.0893
     29  N         29.0780    3.4320   -6.3890 N.am   74  ALA74      -0.1980
     30  CA        28.6920    3.7930   -7.7670 C.3    74  ALA74       0.1597
     31  C         27.2620    4.3740   -7.7860 C.2    74  ALA74       0.2287
     32  O         26.3380    3.7950   -7.1650 O.2    74  ALA74      -0.2864
     33  CB        28.8380    2.5930   -8.7320 C.3    74  ALA74       0.0319
     34  N         23.3920   -0.9970   -9.5510 N.3    81  MET81      -0.1230
     35  CA        24.2210   -1.3210   -8.4050 C.3    81  MET81       0.1702
     36  C         24.4180   -2.8330   -8.3700 C.2    81  MET81       0.2592
     37  O         25.5590   -3.3000   -8.2970 O.2    81  MET81      -0.2718
     38  CB        23.5950   -0.8090   -7.0890 C.3    81  MET81       0.0401
     39  CG        24.3070   -1.3150   -5.7990 C.3    81  MET81       0.0596
     40  SD        23.4110   -1.1380   -4.2400 S.3    81  MET81      -0.1393
     41  CE        21.9570   -2.1490   -4.5650 C.3    81  MET81       0.0692
     42  N         23.3120   -3.5980   -8.4060 N.am   82  TRP82      -0.1976
     43  CA        23.4120   -5.0330   -8.2410 C.3    82  TRP82       0.1640
     44  C         24.2180   -5.6490   -9.4110 C.2    82  TRP82       0.2290
     45  O         25.0940   -6.5260   -9.1960 O.2    82  TRP82      -0.2864
     46  CB        22.0040   -5.6810   -8.1120 C.3    82  TRP82       0.0576
     47  CG        21.3640   -5.4560   -6.7320 C.ar   82  TRP82       0.0006
     48  CD1       20.2780   -4.6830   -6.4420 C.ar   82  TRP82       0.0946
     49  CD2       21.8480   -5.9450   -5.4660 C.ar   82  TRP82       0.0152
     50  NE1       20.0200   -4.6950   -5.0640 N.ar   82  TRP82      -0.2442
     51  CE2       20.9610   -5.4710   -4.4530 C.ar   82  TRP82       0.0810
     52  CE3       22.9190   -6.7630   -5.0940 C.ar   82  TRP82       0.0012
     53  CZ2       21.1230   -5.7820   -3.1030 C.ar   82  TRP82       0.0191
     54  CZ3       23.0740   -7.0900   -3.7310 C.ar   82  TRP82       0.0001
     55  CH2       22.1850   -6.6260   -2.7680 C.ar   82  TRP82       0.0015
     56  N         26.4980   -4.1740  -11.2410 N.3    84  THR84      -0.1203
     57  CA        27.9180   -3.8960  -10.9960 C.3    84  THR84       0.1994
     58  C         28.5400   -4.9630  -10.0770 C.2    84  THR84       0.2618
     59  O         29.6390   -5.3970  -10.3380 O.2    84  THR84      -0.2717
     60  CB        28.2140   -2.4580  -10.4640 C.3    84  THR84       0.1784
     61  OG1       27.6230   -1.4670  -11.3220 O.3    84  THR84      -0.2211
     62  CG2       29.7190   -2.2120  -10.5000 C.3    84  THR84       0.0376
     63  N         27.8200   -5.4090   -9.0440 N.am   85  GLY85      -0.1942
     64  CA        28.3920   -6.3930   -8.0810 C.3    85  GLY85       0.2014
     65  C         28.4760   -7.7780   -8.6930 C.2    85  GLY85       0.2638
     66  O         29.4770   -8.4730   -8.5560 O.2    85  GLY85      -0.2714
     67  N         27.4230   -8.1920   -9.3860 N.am   86  ILE86      -0.1977
     68  CA        27.4730   -9.4650  -10.0560 C.3    86  ILE86       0.1596
     69  C         28.5760   -9.3960  -11.1260 C.2    86  ILE86       0.2287
     70  O         29.3520  -10.3580  -11.2810 O.2    86  ILE86      -0.2864
     71  CB        26.1170   -9.8520  -10.6100 C.3    86  ILE86       0.0276
     72  CG1       25.1090   -9.9930   -9.4530 C.3    86  ILE86       0.0022
     73  CG2       26.2140  -11.1320  -11.3820 C.3    86  ILE86       0.0022
     74  CD1       23.6060  -10.1760   -9.9180 C.3    86  ILE86       0.0001
     75  N         32.2160  -10.7090  -10.3250 N.3    89  PHE89      -0.1241
     76  CA        32.4320  -12.1560  -10.3410 C.3    89  PHE89       0.1605
     77  C         32.4230  -12.6920  -11.7320 C.2    89  PHE89       0.2264
     78  O         33.2470  -13.5200  -12.0780 O.2    89  PHE89      -0.2867
     79  CB        31.3830  -12.8290   -9.4060 C.3    89  PHE89       0.0534
     80  CG        31.5860  -12.4330   -7.9750 C.ar   89  PHE89      -0.0203
     81  CD1       32.5460  -13.0630   -7.1990 C.ar   89  PHE89      -0.0042
     82  CD2       30.9680  -11.3150   -7.4730 C.ar   89  PHE89      -0.0042
     83  CE1       32.7790  -12.6320   -5.8980 C.ar   89  PHE89      -0.0003
     84  CE2       31.2060  -10.8580   -6.1840 C.ar   89  PHE89      -0.0003
     85  CZ        32.0860  -11.5030   -5.3920 C.ar   89  PHE89      -0.0000
     86  N         35.9990  -14.1800  -12.5550 N.3    93  PHE93      -0.1241
     87  CA        36.0920  -15.6490  -12.8860 C.3    93  PHE93       0.1605
     88  C         36.0760  -15.9360  -14.3790 C.2    93  PHE93       0.2264
     89  O         36.7280  -16.8820  -14.8520 O.2    93  PHE93      -0.2867
     90  CB        34.9690  -16.4200  -12.2190 C.3    93  PHE93       0.0534
     91  CG        35.0500  -16.4030  -10.7430 C.ar   93  PHE93      -0.0203
     92  CD1       36.0350  -17.1320  -10.0840 C.ar   93  PHE93      -0.0042
     93  CD2       34.1680  -15.6620  -10.0040 C.ar   93  PHE93      -0.0042
     94  CE1       36.1100  -17.1120   -8.6660 C.ar   93  PHE93      -0.0003
     95  CE2       34.2330  -15.6370   -8.5960 C.ar   93  PHE93      -0.0003
     96  CZ        35.1970  -16.3370   -7.9240 C.ar   93  PHE93      -0.0000
     97  N         36.7080  -22.1070   -0.7140 N.3   117  TRP117     -0.1241
     98  CA        35.4790  -21.7390   -1.4130 C.3   117  TRP117      0.1605
     99  C         34.3840  -21.3620   -0.4000 C.2   117  TRP117      0.2264
    100  O         33.7400  -20.2960   -0.5020 O.2   117  TRP117     -0.2867
    101  CB        35.0490  -22.8070   -2.4360 C.3   117  TRP117      0.0550
    102  CG        33.9530  -22.2630   -3.3030 C.ar  117  TRP117      0.0003
    103  CD1       32.6000  -22.5200   -3.2100 C.ar  117  TRP117      0.0946
    104  CD2       34.1000  -21.2920   -4.3510 C.ar  117  TRP117      0.0152
    105  NE1       31.9100  -21.7990   -4.1690 N.ar  117  TRP117     -0.2442
    106  CE2       32.8050  -21.0280   -4.8680 C.ar  117  TRP117      0.0810
    107  CE3       35.1990  -20.6260   -4.9040 C.ar  117  TRP117      0.0012
    108  CZ2       32.5900  -20.1160   -5.9140 C.ar  117  TRP117      0.0191
    109  CZ3       34.9920  -19.7500   -5.9430 C.ar  117  TRP117      0.0001
    110  CH2       33.7010  -19.4880   -6.4340 C.ar  117  TRP117      0.0015
    111  N         32.2990  -17.7730    0.0080 N.3   121  MET121     -0.1245
    112  CA        30.8700  -17.8490   -0.2580 C.3   121  MET121      0.1570
    113  C         30.1180  -17.2660    0.9460 C.2   121  MET121      0.2261
    114  O         29.1670  -16.4390    0.7980 O.2   121  MET121     -0.2867
    115  CB        30.4650  -19.3160   -0.5720 C.3   121  MET121      0.0387
    116  CG        30.7180  -19.7230   -2.0380 C.3   121  MET121      0.0595
    117  SD        30.0460  -18.6020   -3.3700 S.3   121  MET121     -0.1393
    118  CE        28.3100  -18.6280   -3.0670 C.3   121  MET121      0.0692
    119  N         30.6750  -13.4460    0.9910 N.3   124  TRP124     -0.1241
    120  CA        29.8630  -12.8030   -0.0210 C.3   124  TRP124      0.1605
    121  C         28.3480  -12.8710    0.2590 C.2   124  TRP124      0.2264
    122  O         27.6300  -11.8970    0.0230 O.2   124  TRP124     -0.2867
    123  CB        30.1920  -13.3630   -1.4000 C.3   124  TRP124      0.0550
    124  CG        31.6600  -13.1780   -1.7450 C.ar  124  TRP124      0.0003
    125  CD1       32.4960  -12.1720   -1.3180 C.ar  124  TRP124      0.0946
    126  CD2       32.4580  -14.0390   -2.5810 C.ar  124  TRP124      0.0152
    127  NE1       33.7500  -12.3540   -1.8460 N.ar  124  TRP124     -0.2442
    128  CE2       33.7600  -13.4880   -2.6220 C.ar  124  TRP124      0.0810
    129  CE3       32.1910  -15.2110   -3.3140 C.ar  124  TRP124      0.0012
    130  CZ2       34.7970  -14.0830   -3.3480 C.ar  124  TRP124      0.0191
    131  CZ3       33.2210  -15.8080   -4.0530 C.ar  124  TRP124      0.0001
    132  CH2       34.5100  -15.2390   -4.0630 C.ar  124  TRP124      0.0015
    133  N         27.5660  -10.1730    2.9750 N.3   127  TYR127     -0.1227
    134  CA        27.6120   -8.8020    2.4490 C.3   127  TYR127      0.1736
    135  C         26.3800   -8.5490    1.6380 C.2   127  TYR127      0.2596
    136  O         25.7850   -7.4740    1.7000 O.2   127  TYR127     -0.2718
    137  CB        28.8930   -8.5020    1.5980 C.3   127  TYR127      0.0548
    138  CG        28.9910   -6.9720    1.3850 C.ar  127  TYR127     -0.0200
    139  CD1       28.9950   -6.1110    2.4800 C.ar  127  TYR127     -0.0009
    140  CD2       28.9630   -6.4010    0.1140 C.ar  127  TYR127     -0.0009
    141  CE1       29.0170   -4.7120    2.3180 C.ar  127  TYR127      0.0417
    142  CE2       28.9880   -4.9970   -0.0590 C.ar  127  TYR127      0.0417
    143  CZ        29.0180   -4.1710    1.0530 C.ar  127  TYR127      0.1957
    144  OH        29.0450   -2.7860    0.9220 O.3   127  TYR127     -0.2866
    145  N         25.9640   -9.5370    0.8730 N.am  128  THR128     -0.1953
    146  CA        24.6920   -9.4380    0.1600 C.3   128  THR128      0.1897
    147  C         23.6070   -9.3120    1.2000 C.2   128  THR128      0.2313
    148  O         22.6740   -8.5620    1.0280 O.2   128  THR128     -0.2863
    149  CB        24.4180  -10.6930   -0.6730 C.3   128  THR128      0.1794
    150  OG1       25.4670  -10.8960   -1.6200 O.3   128  THR128     -0.2208
    151  CG2       23.0300  -10.6390   -1.3800 C.3   128  THR128      0.0378
    152  N         23.7270   -5.7640    2.6540 N.3   131  VAL131     -0.1245
    153  CA        23.1080   -4.8700    1.7040 C.3   131  VAL131      0.1561
    154  C         21.5740   -5.0420    1.5080 C.2   131  VAL131      0.2260
    155  O         20.8880   -4.0740    1.3690 O.2   131  VAL131     -0.2867
    156  CB        23.8890   -4.8770    0.3750 C.3   131  VAL131      0.0252
    157  CG1       23.2260   -3.9780   -0.6780 C.3   131  VAL131      0.0019
    158  CG2       25.3780   -4.4850    0.6630 C.3   131  VAL131      0.0019
    159  N         23.1470  -16.2860   -4.1940 N.3   155  ASN155     -0.1240
    160  CA        24.5530  -16.4900   -4.4130 C.3   155  ASN155      0.1653
    161  C         24.8210  -17.9110   -4.9300 C.2   155  ASN155      0.2266
    162  O         25.7110  -18.1120   -5.7260 O.2   155  ASN155     -0.2867
    163  CB        25.2980  -16.2250   -3.0990 C.3   155  ASN155      0.1155
    164  CG        25.7050  -14.7780   -2.9690 C.2   155  ASN155      0.2627
    165  OD1       26.7450  -14.4280   -3.4550 O.2   155  ASN155     -0.2716
    166  ND2       24.8910  -13.9300   -2.2770 N.am  155  ASN155     -0.0877
    167  N         24.1740  -17.8740   -8.5950 N.3   158  ASN158     -0.1225
    168  CA        25.2480  -17.2840   -9.4090 C.3   158  ASN158      0.1785
    169  C         26.4050  -18.2470   -9.6120 C.2   158  ASN158      0.2597
    170  O         26.9290  -18.3670  -10.7170 O.2   158  ASN158     -0.2718
    171  CB        25.7560  -16.0380   -8.7200 C.3   158  ASN158      0.1169
    172  CG        24.7900  -14.8980   -8.8390 C.2   158  ASN158      0.2627
    173  OD1       23.6190  -15.0890   -9.2250 O.2   158  ASN158     -0.2716
    174  ND2       25.2680  -13.6950   -8.5270 N.am  158  ASN158     -0.0877
    175  N         26.7820  -18.9450   -8.5440 N.am  159  GLU159     -0.1979
    176  CA        27.8510  -19.9190   -8.6500 C.3   159  GLU159      0.1602
    177  C         27.5790  -20.9560   -9.7250 C.2   159  GLU159      0.2287
    178  O         28.3120  -21.0680  -10.6820 O.2   159  GLU159     -0.2864
    179  CB        28.0040  -20.6050   -7.3300 C.3   159  GLU159      0.0415
    180  CG        29.2030  -21.4610   -7.2530 C.3   159  GLU159      0.1163
    181  CD        29.1010  -22.3980   -6.0640 C.2   159  GLU159      0.3649
    182  OE1       29.2170  -21.8810   -4.9630 O.co2 159  GLU159     -0.2457
    183  OE2       28.9190  -23.6250   -6.2180 O.co2 159  GLU159     -0.2457
    184  N         26.8930  -19.0230  -13.3440 N.3   162  LEU162     -0.1231
    185  CA        28.1340  -18.4410  -13.9050 C.3   162  LEU162      0.1693
    186  C         29.0460  -19.5770  -14.3710 C.2   162  LEU162      0.2592
    187  O         29.4970  -19.5690  -15.5310 O.2   162  LEU162     -0.2718
    188  CB        28.8940  -17.5000  -12.9080 C.3   162  LEU162      0.0284
    189  CG        28.2610  -16.1140  -12.7070 C.3   162  LEU162      0.0019
    190  CD1       28.7780  -15.3870  -11.4630 C.3   162  LEU162      0.0001
    191  CD2       28.3640  -15.2470  -13.9810 C.3   162  LEU162      0.0001
    192  N         29.3000  -20.5680  -13.5180 N.am  163  PHE163     -0.1976
    193  CA        30.2690  -21.6350  -13.9230 C.3   163  PHE163      0.1639
    194  C         29.7430  -22.5630  -14.9780 C.2   163  PHE163      0.2290
    195  O         30.5030  -23.0520  -15.8170 O.2   163  PHE163     -0.2864
    196  CB        30.8390  -22.4060  -12.7260 C.3   163  PHE163      0.0560
    197  CG        31.4390  -21.5120  -11.6730 C.ar  163  PHE163     -0.0200
    198  CD1       32.0220  -20.2760  -12.0260 C.ar  163  PHE163     -0.0042
    199  CD2       31.3830  -21.8630  -10.3400 C.ar  163  PHE163     -0.0042
    200  CE1       32.5170  -19.3960  -11.0170 C.ar  163  PHE163     -0.0003
    201  CE2       31.9150  -21.0350   -9.3560 C.ar  163  PHE163     -0.0003
    202  CZ        32.4640  -19.8020   -9.6810 C.ar  163  PHE163     -0.0000
    203  N         17.9560  -11.3350   -9.3440 N.3   186  TRP186     -0.1241
    204  CA        18.2990  -10.6300   -8.1160 C.3   186  TRP186      0.1605
    205  C         17.2720   -9.4700   -7.8760 C.2   186  TRP186      0.2264
    206  O         16.6830   -9.3260   -6.7770 O.2   186  TRP186     -0.2867
    207  CB        19.6950  -10.0810   -8.2510 C.3   186  TRP186      0.0550
    208  CG        20.7180  -11.1130   -7.9640 C.ar  186  TRP186      0.0003
    209  CD1       20.9300  -12.3210   -8.6400 C.ar  186  TRP186      0.0946
    210  CD2       21.6370  -11.0850   -6.9070 C.ar  186  TRP186      0.0152
    211  NE1       21.9450  -13.0190   -8.0550 N.ar  186  TRP186     -0.2442
    212  CE2       22.3970  -12.2850   -6.9780 C.ar  186  TRP186      0.0810
    213  CE3       21.8960  -10.1690   -5.8660 C.ar  186  TRP186      0.0012
    214  CZ2       23.4210  -12.5700   -6.0540 C.ar  186  TRP186      0.0191
    215  CZ3       22.9150  -10.4740   -4.9410 C.ar  186  TRP186      0.0001
    216  CH2       23.6540  -11.6420   -5.0480 C.ar  186  TRP186      0.0015
@<TRIPOS>BOND
     1   195   194    2
     2   187   186    2
     3   194   193    1
     4    89    88    2
     5    88    87    1
     6   186   185    1
     7   186   192   am
     8   191   189    1
     9   193   192    1
    10   193   196    1
    11   185   184    1
    12   185   188    1
    13   188   189    1
    14    87    86    1
    15    87    90    1
    16   196   197    1
    17   189   190    1
    18    90    91    1
    19    78    77    2
    20   198   197   ar
    21   198   200   ar
    22    77    76    1
    23   197   199   ar
    24    73    71    1
    25    61    60    1
    26    70    69    2
    27    56    57    1
    28    69    68    1
    29   200   202   ar
    30    57    60    1
    31    57    58    1
    32    91    92   ar
    33    91    93   ar
    34   170   169    2
    35   178   177    2
    36    71    68    1
    37    71    72    1
    38    62    60    1
    39    76    75    1
    40    76    79    1
    41   199   201   ar
    42    59    58    2
    43    92    94   ar
    44    58    63   am
    45    68    67    1
    46    93    95   ar
    47    74    72    1
    48   177   176    1
    49   202   201   ar
    50   169   168    1
    51   169   175   am
    52    34    35    1
    53    44    45    2
    54    44    43    1
    55   168   171    1
    56   168   167    1
    57    79    80    1
    58    67    65   am
    59   203   204    1
    60   173   172    2
    61    63    64    1
    62   172   171    1
    63   172   174   am
    64    33    30    1
    65    65    66    2
    66    65    64    1
    67    94    96   ar
    68   176   175    1
    69   176   179    1
    70   209   211   ar
    71   209   208   ar
    72    95    96   ar
    73    42    36   am
    74    42    43    1
    75    35    36    1
    76    35    38    1
    77    36    37    2
    78   207   204    1
    79   207   208    1
    80    43    46    1
    81   204   205    1
    82    46    47    1
    83   211   212   ar
    84    80    82   ar
    85    80    81   ar
    86   208   210   ar
    87   205   206    2
    88    31    30    1
    89    31    32    2
    90    30    29    1
    91    15    14    1
    92    82    84   ar
    93   179   180    1
    94   180   181    1
    95    16    14    1
    96    81    83   ar
    97    38    39    1
    98   212   210   ar
    99   212   214   ar
   100   210   213   ar
   101    47    48   ar
   102    47    49   ar
   103    14    13    1
   104    48    50   ar
   105   110   109   ar
   106   110   108   ar
   107    29    24   am
   108   183   181   ar
   109    84    85   ar
   110   181   182   ar
   111   214   216   ar
   112   109   107   ar
   113   108   106   ar
   114    83    85   ar
   115   213   215   ar
   116    39    40    1
   117   162   161    2
   118    25    24    2
   119    13    10    1
   120    49    52   ar
   121    49    51   ar
   122    24    23    1
   123     1     2    1
   124    52    54   ar
   125    50    51   ar
   126   216   215   ar
   127    10     9    1
   128    10    11    1
   129   161   160    1
   130   107   104   ar
   131   106   104   ar
   132   106   105   ar
   133    41    40    1
   134    51    53   ar
   135   160   159    1
   136   160   163    1
   137     2     5    1
   138     2     3    1
   139   104   102   ar
   140   105   103   ar
   141   132   131   ar
   142   132   130   ar
   143     7     6    1
   144   131   129   ar
   145    23    22    1
   146    23    26    1
   147     5     6    1
   148    12    11    2
   149    54    55   ar
   150    11    17   am
   151   165   164    2
   152    22    28    1
   153   117   118    1
   154   117   116    1
   155   130   128   ar
   156   129   126   ar
   157   102   103   ar
   158   102   101    1
   159     3     4    2
   160     6     8    1
   161    53    55   ar
   162   163   164    1
   163   164   166   am
   164    26    27    1
   165    17    18    1
   166   128   126   ar
   167   128   127   ar
   168   126   124   ar
   169   101    98    1
   170    27    28    1
   171   116   115    1
   172   127   125   ar
   173   124   123    1
   174   124   125   ar
   175   150   149    1
   176    98    97    1
   177    98    99    1
   178    18    19    1
   179    18    21    1
   180   123   120    1
   181   151   149    1
   182    19    20    2
   183   157   156    1
   184   149   146    1
   185   115   112    1
   186   100    99    2
   187   112   111    1
   188   112   113    1
   189   142   140   ar
   190   142   143   ar
   191   120   121    1
   192   120   119    1
   193   122   121    2
   194   140   138   ar
   195   146   145    1
   196   146   147    1
   197   156   158    1
   198   156   153    1
   199   114   113    2
   200   145   135   am
   201   144   143    1
   202   148   147    2
   203   143   141   ar
   204   155   154    2
   205   138   137    1
   206   138   139   ar
   207   154   153    1
   208   137   134    1
   209   135   136    2
   210   135   134    1
   211   153   152    1
   212   141   139   ar
   213   134   133    1
