@<TRIPOS>MOLECULE
tmp/3sfkA00.pdb
 173 161 0 0 0
SMALL
GASTEIGER

@<TRIPOS>ATOM
      1  N         -7.0020  -35.1960  -21.2090 N.3    12  LEU12      -0.1245
      2  CA        -5.9620  -34.4760  -20.4870 C.3    12  LEU12       0.1561
      3  C         -4.5580  -34.8390  -20.9840 C.2    12  LEU12       0.2260
      4  O         -3.7000  -33.9650  -21.1120 O.2    12  LEU12      -0.2867
      5  CB        -6.1110  -34.7330  -18.9860 C.3    12  LEU12       0.0270
      6  CG        -5.1900  -34.0290  -17.9900 C.3    12  LEU12       0.0019
      7  CD1       -5.9980  -33.4290  -16.8570 C.3    12  LEU12       0.0001
      8  CD2       -4.1390  -35.0010  -17.4660 C.3    12  LEU12       0.0001
      9  N         -4.3310  -32.9820  -24.1180 N.3    15  CYS15      -0.1221
     10  CA        -4.1090  -31.5700  -23.8090 C.3    15  CYS15       0.1808
     11  C         -2.6620  -31.2810  -23.4120 C.2    15  CYS15       0.2601
     12  O         -2.1230  -30.2270  -23.7510 O.2    15  CYS15      -0.2717
     13  CB        -5.0540  -31.1060  -22.7000 C.3    15  CYS15       0.0970
     14  SG        -6.7560  -30.8510  -23.2310 S.3    15  CYS15      -0.0800
     15  N         -2.0450  -32.2230  -22.7050 N.am   16  LEU16      -0.1979
     16  CA        -0.6780  -32.0740  -22.2150 C.3    16  LEU16       0.1596
     17  C          0.3400  -32.0360  -23.3500 C.2    16  LEU16       0.2287
     18  O          1.2670  -31.2250  -23.3370 O.2    16  LEU16      -0.2864
     19  CB        -0.3450  -33.2130  -21.2470 C.3    16  LEU16       0.0297
     20  CG         0.9550  -33.1600  -20.4420 C.3    16  LEU16       0.0022
     21  CD1        0.9420  -32.0170  -19.4410 C.3    16  LEU16       0.0001
     22  CD2        1.1700  -34.4840  -19.7350 C.3    16  LEU16       0.0001
     23  N          0.2300  -24.9380  -21.5400 N.3    21  GLY21      -0.1210
     24  CA         0.0240  -25.3140  -20.1390 C.3    21  GLY21       0.1956
     25  C         -1.0650  -24.5580  -19.4030 C.2    21  GLY21       0.2611
     26  O         -1.9590  -25.1690  -18.8090 O.2    21  GLY21      -0.2717
     27  N         -0.9960  -23.2300  -19.4440 N.am   22  GLU22      -0.1979
     28  CA        -1.9620  -22.3980  -18.7320 C.3    22  GLU22       0.1602
     29  C         -3.3480  -22.3990  -19.3730 C.2    22  GLU22       0.2287
     30  O         -4.3590  -22.2960  -18.6740 O.2    22  GLU22      -0.2864
     31  CB        -1.4520  -20.9660  -18.5730 C.3    22  GLU22       0.0415
     32  CG        -2.4890  -20.0300  -17.9710 C.3    22  GLU22       0.1163
     33  CD        -1.8990  -18.7760  -17.3740 C.2    22  GLU22       0.3649
     34  OE1       -0.6590  -18.7010  -17.2200 O.co2  22  GLU22      -0.2457
     35  OE2       -2.6910  -17.8620  -17.0500 O.co2  22  GLU22      -0.2457
     36  N         -4.7160  -24.9370  -20.9490 N.3    24  CYS24      -0.1221
     37  CA        -5.2870  -26.2010  -20.4680 C.3    24  CYS24       0.1808
     38  C         -5.8350  -26.0050  -19.0710 C.2    24  CYS24       0.2601
     39  O         -7.0100  -26.2610  -18.8070 O.2    24  CYS24      -0.2717
     40  CB        -4.2220  -27.2940  -20.3960 C.3    24  CYS24       0.0970
     41  SG        -3.5410  -27.8010  -21.9540 S.3    24  CYS24      -0.0800
     42  N         -4.9580  -25.5540  -18.1800 N.am   25  HIS25      -0.1975
     43  CA        -5.3000  -25.3130  -16.7940 C.3    25  HIS25       0.1656
     44  C         -6.6210  -24.5600  -16.7060 C.2    25  HIS25       0.2291
     45  O         -7.5490  -25.0050  -16.0370 O.2    25  HIS25      -0.2864
     46  CB        -4.1780  -24.5310  -16.1100 C.3    25  HIS25       0.0771
     47  CG        -4.2430  -24.5590  -14.6160 C.ar   25  HIS25       0.0820
     48  ND1       -3.9520  -25.6860  -13.8810 N.ar   25  HIS25      -0.2267
     49  CD2       -4.5470  -23.5940  -13.7190 C.ar   25  HIS25       0.1154
     50  CE1       -4.0830  -25.4170  -12.5950 C.ar   25  HIS25       0.1986
     51  NE2       -4.4400  -24.1520  -12.4690 N.ar   25  HIS25      -0.2212
     52  N         -9.7350  -26.6860  -17.7930 N.3    28  PHE28      -0.1227
     53  CA       -10.1580  -27.6670  -16.8040 C.3    28  PHE28       0.1736
     54  C        -10.7780  -27.0190  -15.5740 C.2    28  PHE28       0.2595
     55  O        -11.7690  -27.5200  -15.0420 O.2    28  PHE28      -0.2718
     56  CB        -9.0050  -28.5850  -16.4230 C.3    28  PHE28       0.0547
     57  CG        -8.6260  -29.5490  -17.5050 C.ar   28  PHE28      -0.0202
     58  CD1       -9.4790  -30.5950  -17.8520 C.ar   28  PHE28      -0.0042
     59  CD2       -7.4190  -29.4150  -18.1830 C.ar   28  PHE28      -0.0042
     60  CE1       -9.1390  -31.4890  -18.8560 C.ar   28  PHE28      -0.0003
     61  CE2       -7.0670  -30.3050  -19.1930 C.ar   28  PHE28      -0.0003
     62  CZ        -7.9300  -31.3460  -19.5300 C.ar   28  PHE28      -0.0000
     63  N        -10.2060  -25.8960  -15.1410 N.am   29  LEU29      -0.1980
     64  CA       -10.7930  -25.0870  -14.0750 C.3    29  LEU29       0.1596
     65  C        -12.1820  -24.6070  -14.4770 C.2    29  LEU29       0.2287
     66  O        -13.0890  -24.5460  -13.6470 O.2    29  LEU29      -0.2864
     67  CB        -9.9050  -23.8830  -13.7410 C.3    29  LEU29       0.0297
     68  CG        -8.5330  -24.0820  -13.0870 C.3    29  LEU29       0.0022
     69  CD1       -7.8600  -22.7360  -12.9270 C.3    29  LEU29       0.0001
     70  CD2       -8.6240  -24.7930  -11.7440 C.3    29  LEU29       0.0001
     71  N        -16.9810  -32.2900  -13.7490 N.3    37  LEU37      -0.1245
     72  CA       -15.8810  -33.1920  -13.4170 C.3    37  LEU37       0.1561
     73  C        -16.3610  -34.4260  -12.6220 C.2    37  LEU37       0.2260
     74  O        -17.4740  -34.4290  -12.0890 O.2    37  LEU37      -0.2867
     75  CB       -14.7620  -32.4460  -12.6780 C.3    37  LEU37       0.0270
     76  CG       -13.9030  -31.4030  -13.4180 C.3    37  LEU37       0.0019
     77  CD1      -12.6200  -31.1390  -12.6440 C.3    37  LEU37       0.0001
     78  CD2      -13.5720  -31.7900  -14.8650 C.3    37  LEU37       0.0001
     79  N         -2.9750  -23.0830   -7.9690 N.3    67  PHE67      -0.1241
     80  CA        -3.7760  -23.9510   -8.8060 C.3    67  PHE67       0.1605
     81  C         -5.0960  -23.2570   -9.0950 C.2    67  PHE67       0.2264
     82  O         -5.3840  -22.9230  -10.2440 O.2    67  PHE67      -0.2867
     83  CB        -3.9960  -25.2960   -8.1170 C.3    67  PHE67       0.0534
     84  CG        -4.3500  -26.4080   -9.0600 C.ar   67  PHE67      -0.0203
     85  CD1       -3.3520  -27.1820   -9.6490 C.ar   67  PHE67      -0.0042
     86  CD2       -5.6830  -26.6890   -9.3600 C.ar   67  PHE67      -0.0042
     87  CE1       -3.6730  -28.2160  -10.5240 C.ar   67  PHE67      -0.0003
     88  CE2       -6.0140  -27.7290  -10.2370 C.ar   67  PHE67      -0.0003
     89  CZ        -5.0060  -28.4930  -10.8170 C.ar   67  PHE67      -0.0000
     90  N        -13.0890  -22.6810   -8.6850 N.3    73  CYS73      -0.1235
     91  CA       -13.2880  -24.0980   -8.9620 C.3    73  CYS73       0.1677
     92  C        -13.0420  -24.9520   -7.7170 C.2    73  CYS73       0.2270
     93  O        -12.4910  -26.0450   -7.8100 O.2    73  CYS73      -0.2867
     94  CB       -12.3250  -24.5080  -10.0760 C.3    73  CYS73       0.0956
     95  SG       -12.4500  -26.2020  -10.6480 S.3    73  CYS73      -0.0801
     96  N        -12.5800  -29.3500   -7.4580 N.3    77  ILE77      -0.1245
     97  CA       -11.2500  -29.8070   -7.1030 C.3    77  ILE77       0.1561
     98  C        -11.3440  -30.6260   -5.8180 C.2    77  ILE77       0.2260
     99  O        -10.8460  -31.7530   -5.7620 O.2    77  ILE77      -0.2867
    100  CB       -10.2480  -28.6480   -6.9680 C.3    77  ILE77       0.0252
    101  CG1       -9.9960  -28.0160   -8.3380 C.3    77  ILE77       0.0019
    102  CG2       -8.9450  -29.1480   -6.3990 C.3    77  ILE77       0.0019
    103  CD1       -9.4140  -26.6190   -8.2740 C.3    77  ILE77       0.0001
    104  N        -12.7160  -34.1400   -6.1760 N.3    80  LEU80      -0.1245
    105  CA       -11.8800  -35.1460   -6.8230 C.3    80  LEU80       0.1561
    106  C        -11.2990  -36.0900   -5.7880 C.2    80  LEU80       0.2260
    107  O        -10.6580  -37.0840   -6.1310 O.2    80  LEU80      -0.2867
    108  CB       -10.7600  -34.5150   -7.6500 C.3    80  LEU80       0.0270
    109  CG       -11.1190  -33.9420   -9.0210 C.3    80  LEU80       0.0019
    110  CD1       -9.8860  -33.3460   -9.6740 C.3    80  LEU80       0.0001
    111  CD2      -11.7380  -34.9880   -9.9230 C.3    80  LEU80       0.0001
    112  N          4.0690  -20.3660  -18.2430 N.3   103  ILE103     -0.1245
    113  CA         4.1660  -21.7090  -17.6720 C.3   103  ILE103      0.1561
    114  C          4.4870  -22.7320  -18.7560 C.2   103  ILE103      0.2260
    115  O          3.8510  -22.7530  -19.8160 O.2   103  ILE103     -0.2867
    116  CB         2.8850  -22.1420  -16.9100 C.3   103  ILE103      0.0252
    117  CG1        2.2450  -20.9630  -16.1710 C.3   103  ILE103      0.0019
    118  CG2        3.2180  -23.2510  -15.9270 C.3   103  ILE103      0.0019
    119  CD1        0.8640  -21.2580  -15.6020 C.3   103  ILE103      0.0001
    120  N          5.9420  -27.0380  -19.3250 N.3   105  ARG105     -0.1245
    121  CA         6.0160  -28.3550  -18.6910 C.3   105  ARG105      0.1563
    122  C          6.9480  -29.2990  -19.4350 C.2   105  ARG105      0.2260
    123  O          7.2600  -29.0820  -20.6070 O.2   105  ARG105     -0.2867
    124  CB         4.6240  -28.9780  -18.6190 C.3   105  ARG105      0.0307
    125  CG         3.5530  -28.0470  -18.0810 C.3   105  ARG105      0.0489
    126  CD         2.2170  -28.3320  -18.7340 C.3   105  ARG105      0.2205
    127  NE         2.2450  -28.0710  -20.1690 N.pl3 105  ARG105     -0.0865
    128  CZ         1.2450  -28.3310  -21.0050 C.cat 105  ARG105      0.5346
    129  NH1        0.1100  -28.8540  -20.5610 N.pl3 105  ARG105      0.1354
    130  NH2        1.3780  -28.0560  -22.2940 N.pl3 105  ARG105      0.1354
    131  N          7.6870  -28.7800  -13.9590 N.3   112  ILE112     -0.1245
    132  CA         7.1000  -27.5480  -14.4720 C.3   112  ILE112      0.1561
    133  C          7.9750  -26.3630  -14.0740 C.2   112  ILE112      0.2260
    134  O          8.4150  -26.2740  -12.9280 O.2   112  ILE112     -0.2867
    135  CB         5.6720  -27.3060  -13.8980 C.3   112  ILE112      0.0252
    136  CG1        4.7210  -28.4540  -14.2510 C.3   112  ILE112      0.0019
    137  CG2        5.1050  -25.9750  -14.3960 C.3   112  ILE112      0.0019
    138  CD1        3.6840  -28.7290  -13.1960 C.3   112  ILE112      0.0001
    139  N          0.4540  -30.4750   -6.6960 N.3   331  TYR331     -0.1241
    140  CA         0.1950  -29.5820   -7.8090 C.3   331  TYR331      0.1605
    141  C          0.6070  -30.2750   -9.1040 C.2   331  TYR331      0.2264
    142  O         -0.2160  -30.4600  -10.0060 O.2   331  TYR331     -0.2867
    143  CB         0.9290  -28.2440   -7.6380 C.3   331  TYR331      0.0534
    144  CG         0.4840  -27.1580   -8.6020 C.ar  331  TYR331     -0.0201
    145  CD1        0.0260  -25.9350   -8.1340 C.ar  331  TYR331     -0.0009
    146  CD2        0.5200  -27.3590   -9.9830 C.ar  331  TYR331     -0.0009
    147  CE1       -0.3840  -24.9440   -9.0120 C.ar  331  TYR331      0.0417
    148  CE2        0.1100  -26.3730  -10.8680 C.ar  331  TYR331      0.0417
    149  CZ        -0.3400  -25.1680  -10.3770 C.ar  331  TYR331      0.1957
    150  OH        -0.7440  -24.1910  -11.2570 O.3   331  TYR331     -0.2866
    151  N         -1.3580  -33.4460  -10.5290 N.3   334  LEU334     -0.1231
    152  CA        -2.6320  -33.2410  -11.2130 C.3   334  LEU334      0.1693
    153  C         -2.4180  -32.9100  -12.6840 C.2   334  LEU334      0.2591
    154  O         -3.3020  -33.1160  -13.5140 O.2   334  LEU334     -0.2718
    155  CB        -3.4370  -32.1400  -10.5230 C.3   334  LEU334      0.0284
    156  CG        -4.0510  -32.5020   -9.1680 C.3   334  LEU334      0.0019
    157  CD1       -4.2710  -31.2650   -8.3210 C.3   334  LEU334      0.0001
    158  CD2       -5.3620  -33.2550   -9.3420 C.3   334  LEU334      0.0001
    159  N         -1.2310  -32.4030  -12.9960 N.am  335  VAL335     -0.1980
    160  CA        -0.8770  -32.0310  -14.3600 C.3   335  VAL335      0.1595
    161  C         -0.4260  -33.2590  -15.1490 C.2   335  VAL335      0.2287
    162  O         -0.8020  -33.4240  -16.3100 O.2   335  VAL335     -0.2864
    163  CB         0.2220  -30.9350  -14.3880 C.3   335  VAL335      0.0276
    164  CG1        0.5130  -30.4870  -15.8160 C.3   335  VAL335      0.0022
    165  CG2       -0.1880  -29.7370  -13.5340 C.3   335  VAL335      0.0022
    166  N         -6.6960  -36.5150  -13.1550 N.3   339  MET339     -0.1245
    167  CA        -7.8330  -36.4000  -12.2390 C.3   339  MET339      0.1570
    168  C         -7.9620  -37.5210  -11.2120 C.2   339  MET339      0.2261
    169  O         -8.6450  -37.3640  -10.1960 O.2   339  MET339     -0.2867
    170  CB        -9.1310  -36.2590  -13.0280 C.3   339  MET339      0.0387
    171  CG        -9.2160  -34.9600  -13.7940 C.3   339  MET339      0.0595
    172  SD       -10.7870  -34.7670  -14.6180 S.3   339  MET339     -0.1393
    173  CE       -10.3440  -33.5520  -15.8500 C.3   339  MET339      0.0692
@<TRIPOS>BOND
     1     9    10    1
     2    10    11    1
     3    10    13    1
     4    12    11    2
     5    11    15   am
     6    17    18    2
     7    17    16    1
     8    14    13    1
     9    15    16    1
    10   130   128    1
    11    16    19    1
    12    41    40    1
    13    23    24    1
    14    19    20    1
    15     1     2    1
    16     4     3    2
    17   128   129    1
    18   128   127    2
    19     3     2    1
    20    36    37    1
    21   123   122    2
    22     2     5    1
    23    37    40    1
    24    37    38    1
    25    20    22    1
    26    20    21    1
    27   127   126    1
    28    24    25    1
    29   115   114    2
    30    62    61   ar
    31    62    60   ar
    32    27    25   am
    33    27    28    1
    34   122   121    1
    35    25    26    2
    36    29    28    1
    37    29    30    2
    38   120   121    1
    39    61    59   ar
    40    38    39    2
    41    38    42   am
    42     5     6    1
    43    60    58   ar
    44   114   113    1
    45   126   125    1
    46    28    31    1
    47   121   124    1
    48   124   125    1
    49    31    32    1
    50   112   113    1
    51    59    57   ar
    52    42    43    1
    53     6     8    1
    54     6     7    1
    55    32    33    1
    56    58    57   ar
    57    52    53    1
    58   113   116    1
    59    57    56    1
    60    33    34   ar
    61    33    35   ar
    62   116   117    1
    63   116   118    1
    64    53    56    1
    65    53    54    1
    66    43    44    1
    67    43    46    1
    68    44    45    2
    69   162   161    2
    70   117   119    1
    71    46    47    1
    72   173   172    1
    73   164   163    1
    74    54    63   am
    75    54    55    2
    76   161   160    1
    77    63    64    1
    78    78    76    1
    79   172   171    1
    80    47    48   ar
    81    47    49   ar
    82    65    64    1
    83    65    66    2
    84   132   133    1
    85   132   131    1
    86   132   135    1
    87   137   135    1
    88   163   160    1
    89   163   165    1
    90   160   159    1
    91   136   135    1
    92   136   138    1
    93    64    67    1
    94   133   134    2
    95    48    50   ar
    96   171   170    1
    97    71    72    1
    98    67    68    1
    99    49    51   ar
   100   154   153    2
   101    76    75    1
   102    76    77    1
   103    72    75    1
   104    72    73    1
   105   166   167    1
   106    68    69    1
   107    68    70    1
   108   170   167    1
   109   159   153   am
   110   153   152    1
   111    73    74    2
   112    50    51   ar
   113   167   168    1
   114   150   149    1
   115   152   151    1
   116   152   155    1
   117   168   169    2
   118   148   149   ar
   119   148   146   ar
   120    89    87   ar
   121    89    88   ar
   122    95    94    1
   123    87    85   ar
   124   155   156    1
   125   149   147   ar
   126    82    81    2
   127    88    86   ar
   128    94    91    1
   129   142   141    2
   130   146   144   ar
   131   111   109    1
   132   110   109    1
   133    85    84   ar
   134    86    84   ar
   135   158   156    1
   136   156   157    1
   137   141   140    1
   138    81    80    1
   139    84    83    1
   140   109   108    1
   141   147   145   ar
   142    91    90    1
   143    91    92    1
   144    80    83    1
   145    80    79    1
   146   144   145   ar
   147   144   143    1
   148   101   103    1
   149   101   100    1
   150    93    92    2
   151   140   143    1
   152   140   139    1
   153   108   105    1
   154    96    97    1
   155    97   100    1
   156    97    98    1
   157   100   102    1
   158   105   104    1
   159   105   106    1
   160   107   106    2
   161    98    99    2
