@<TRIPOS>MOLECULE
tmp/3sfpC00.pdb
 99 91 0 0 0
SMALL
GASTEIGER

@<TRIPOS>ATOM
      1  N         22.5710   25.9600  100.4120 N.3     4  ASP4       -0.1239
      2  CA        21.3090   26.4680   99.8920 C.3     4  ASP4        0.1674
      3  C         20.2470   26.6200  100.9800 C.2     4  ASP4        0.2266
      4  O         19.8700   25.6510  101.6450 O.2     4  ASP4       -0.2867
      5  CB        20.8140   25.5810   98.7520 C.3     4  ASP4        0.1410
      6  CG        21.8370   25.4610   97.6150 C.2     4  ASP4        0.3668
      7  OD1       22.7400   26.3260   97.5130 O.co2   4  ASP4       -0.2456
      8  OD2       21.7350   24.4990   96.8240 O.co2   4  ASP4       -0.2456
      9  N         17.1740   26.8040  103.2130 N.3     6  ARG6       -0.1245
     10  CA        15.8280   26.2780  103.3240 C.3     6  ARG6        0.1563
     11  C         14.9810   27.3450  103.9990 C.2     6  ARG6        0.2260
     12  O         15.3520   27.8550  105.0490 O.2     6  ARG6       -0.2867
     13  CB        15.8190   24.9560  104.1040 C.3     6  ARG6        0.0307
     14  CG        15.3680   23.7880  103.2400 C.3     6  ARG6        0.0489
     15  CD        16.4420   22.7130  102.9430 C.3     6  ARG6        0.2205
     16  NE        17.7330   23.2060  102.4730 N.pl3   6  ARG6       -0.0865
     17  CZ        18.6610   22.4420  101.8800 C.cat   6  ARG6        0.5346
     18  NH1       18.4460   21.1500  101.6600 N.pl3   6  ARG6        0.1354
     19  NH2       19.8170   22.9690  101.4940 N.pl3   6  ARG6        0.1354
     20  N         13.3450   26.0450   98.7540 N.3    11  VAL11      -0.1245
     21  CA        14.8020   26.1300   98.7470 C.3    11  VAL11       0.1561
     22  C         15.2760   27.2440   97.8180 C.2    11  VAL11       0.2260
     23  O         14.7650   27.4050   96.7240 O.2    11  VAL11      -0.2867
     24  CB        15.4500   24.7840   98.3660 C.3    11  VAL11       0.0252
     25  CG1       16.9540   24.8900   98.4150 C.3    11  VAL11       0.0019
     26  CG2       14.9750   23.6910   99.3110 C.3    11  VAL11       0.0019
     27  N         18.7080   29.0140   95.9990 N.3    13  ARG13      -0.1245
     28  CA        20.0860   28.7680   95.6040 C.3    13  ARG13       0.1563
     29  C         20.5620   29.9770   94.8070 C.2    13  ARG13       0.2260
     30  O         19.9670   30.3150   93.7840 O.2    13  ARG13      -0.2867
     31  CB        20.1580   27.4880   94.7560 C.3    13  ARG13       0.0307
     32  CG        21.5310   27.1810   94.1840 C.3    13  ARG13       0.0489
     33  CD        21.5070   25.9110   93.3170 C.3    13  ARG13       0.2205
     34  NE        22.8380   25.6010   92.7850 N.pl3  13  ARG13      -0.0865
     35  CZ        23.1800   24.4490   92.2100 C.cat  13  ARG13       0.5346
     36  NH1       22.2950   23.4770   92.0810 N.pl3  13  ARG13       0.1354
     37  NH2       24.4110   24.2680   91.7670 N.pl3  13  ARG13       0.1354
     38  N         17.7960   31.0700   92.4460 N.3    21  GLN21      -0.1245
     39  CA        16.8180   30.1140   91.9900 C.3    21  GLN21       0.1566
     40  C         15.8810   29.8120   93.1570 C.2    21  GLN21       0.2260
     41  O         16.3370   29.5280   94.2680 O.2    21  GLN21      -0.2867
     42  CB        17.5290   28.8500   91.5420 C.3    21  GLN21       0.0367
     43  CG        16.6190   27.7070   91.1900 C.3    21  GLN21       0.0905
     44  CD        17.3970   26.5060   90.6860 C.2    21  GLN21       0.2608
     45  OE1       17.6500   26.3740   89.4850 O.2    21  GLN21      -0.2717
     46  NE2       17.7900   25.6290   91.6010 N.am   21  GLN21      -0.0878
     47  N         12.9540   27.2140   94.6530 N.3    23  THR23      -0.1218
     48  CA        12.5720   25.8140   94.5020 C.3    23  THR23       0.1862
     49  C         11.4460   25.4140   95.4420 C.2    23  THR23       0.2287
     50  O         11.5410   25.5820   96.6580 O.2    23  THR23      -0.2866
     51  CB        13.7630   24.8930   94.7170 C.3    23  THR23       0.1770
     52  OG1       14.7740   25.2160   93.7600 O.3    23  THR23      -0.2211
     53  CG2       13.3570   23.4350   94.5400 C.3    23  THR23       0.0375
     54  N          8.2430   22.2410   95.9910 N.3    25  TYR25      -0.1241
     55  CA         8.0490   20.8190   95.7750 C.3    25  TYR25       0.1605
     56  C          6.5780   20.3910   95.8070 C.2    25  TYR25       0.2264
     57  O          5.7470   20.9750   96.5100 O.2    25  TYR25      -0.2867
     58  CB         8.8300   20.0240   96.8140 C.3    25  TYR25       0.0534
     59  CG        10.3250   20.0980   96.6480 C.ar   25  TYR25      -0.0201
     60  CD1       11.0740   21.0920   97.2820 C.ar   25  TYR25      -0.0009
     61  CD2       11.0000   19.1680   95.8720 C.ar   25  TYR25      -0.0009
     62  CE1       12.4620   21.1580   97.1370 C.ar   25  TYR25       0.0417
     63  CE2       12.3830   19.2240   95.7230 C.ar   25  TYR25       0.0417
     64  CZ        13.1100   20.2180   96.3570 C.ar   25  TYR25       0.1957
     65  OH        14.4880   20.2610   96.1970 O.3    25  TYR25      -0.2866
     66  N         10.5580   18.7020   92.0350 N.3    35  ALA35      -0.1245
     67  CA        11.0090   20.0620   92.2140 C.3    35  ALA35       0.1562
     68  C         10.5090   20.9050   91.0590 C.2    35  ALA35       0.2260
     69  O         10.4160   20.4280   89.9190 O.2    35  ALA35      -0.2867
     70  CB        12.5250   20.1010   92.2790 C.3    35  ALA35       0.0290
     71  N         11.5640   24.8220   89.6480 N.3    37  ASN37      -0.1240
     72  CA        12.4590   25.9640   89.8180 C.3    37  ASN37       0.1653
     73  C         11.9800   27.1890   89.0700 C.2    37  ASN37       0.2266
     74  O         11.4360   27.0760   87.9680 O.2    37  ASN37      -0.2867
     75  CB        13.8700   25.6250   89.3220 C.3    37  ASN37       0.1155
     76  CG        14.4340   24.3850   89.9740 C.2    37  ASN37       0.2627
     77  OD1       14.1580   24.1120   91.1360 O.2    37  ASN37      -0.2716
     78  ND2       15.2150   23.6170   89.2240 N.am   37  ASN37      -0.0877
     79  N         12.9980   21.4090   86.2460 N.3   211  HIS211     -0.1226
     80  CA        12.9430   20.3030   87.1890 C.3   211  HIS211      0.1752
     81  C         14.2450   19.8150   87.8290 C.2   211  HIS211      0.2597
     82  O         14.2290   18.9090   88.6470 O.2   211  HIS211     -0.2718
     83  CB        12.0950   19.1760   86.6070 C.3   211  HIS211      0.0759
     84  CG        10.7140   19.6230   86.2320 C.ar  211  HIS211      0.0818
     85  ND1        9.8640   20.2350   87.1290 N.ar  211  HIS211     -0.2268
     86  CD2       10.0450   19.5760   85.0530 C.ar  211  HIS211      0.1154
     87  CE1        8.7250   20.5280   86.5270 C.ar  211  HIS211      0.1986
     88  NE2        8.8080   20.1380   85.2660 N.ar  211  HIS211     -0.2212
     89  N         15.3760   20.3920   87.4610 N.am  212  SER212     -0.1938
     90  CA        16.6230   19.8970   88.0270 C.3   212  SER212      0.2055
     91  C         17.6700   20.9830   88.1510 C.2   212  SER212      0.2642
     92  O         17.4590   22.1110   87.7240 O.2   212  SER212     -0.2714
     93  CB        17.1670   18.7290   87.1910 C.3   212  SER212      0.2130
     94  OG        17.0660   19.0090   85.8100 O.3   212  SER212     -0.2179
     95  N         18.8130   20.6220   88.7210 N.am  213  ALA213     -0.1977
     96  CA        19.9260   21.5520   88.8690 C.3   213  ALA213      0.1597
     97  C         20.3240   22.2190   87.5410 C.2   213  ALA213      0.2287
     98  O         20.1730   21.6370   86.4520 O.2   213  ALA213     -0.2864
     99  CB        21.1200   20.8390   89.4810 C.3   213  ALA213      0.0319
@<TRIPOS>BOND
     1    86    88   ar
     2    86    84   ar
     3    88    87   ar
     4    94    93    1
     5    84    83    1
     6    84    85   ar
     7    79    80    1
     8    98    97    2
     9    87    85   ar
    10    83    80    1
    11    80    81    1
    12    93    90    1
    13    89    81   am
    14    89    90    1
    15    97    96    1
    16    92    91    2
    17    81    82    2
    18    74    73    2
    19    90    91    1
    20    91    95   am
    21    95    96    1
    22    96    99    1
    23    73    72    1
    24    78    76   am
    25    75    72    1
    26    75    76    1
    27    45    44    2
    28    71    72    1
    29    69    68    2
    30    76    77    2
    31    44    43    1
    32    44    46   am
    33    68    67    1
    34    43    42    1
    35    42    39    1
    36    37    35    1
    37    39    38    1
    38    39    40    1
    39    66    67    1
    40    36    35    1
    41    35    34    2
    42    67    70    1
    43    34    33    1
    44    40    41    2
    45    33    32    1
    46    52    51    1
    47    30    29    2
    48    32    31    1
    49    48    47    1
    50    48    51    1
    51    48    49    1
    52    53    51    1
    53    31    28    1
    54    29    28    1
    55    49    50    2
    56    28    27    1
    57    63    61   ar
    58    63    64   ar
    59    55    56    1
    60    55    54    1
    61    55    58    1
    62    56    57    2
    63    61    59   ar
    64    65    64    1
    65    64    62   ar
    66    59    58    1
    67    59    60   ar
    68    23    22    2
    69     8     6   ar
    70    62    60   ar
    71     7     6   ar
    72     6     5    1
    73    22    21    1
    74    24    25    1
    75    24    21    1
    76    24    26    1
    77    21    20    1
    78     5     2    1
    79     2     1    1
    80     2     3    1
    81     3     4    2
    82    19    17    1
    83    18    17    1
    84    17    16    2
    85    16    15    1
    86    15    14    1
    87     9    10    1
    88    14    13    1
    89    10    11    1
    90    10    13    1
    91    11    12    2
