@<TRIPOS>MOLECULE
tmp/3sfuC00.pdb
 123 115 0 0 0
SMALL
GASTEIGER

@<TRIPOS>ATOM
      1  N        -91.9460   42.6790  -10.0080 N.3   165  LYS165     -0.1245
      2  CA       -91.8960   42.4060  -11.4380 C.3   165  LYS165      0.1561
      3  C        -92.6010   41.1280  -11.8870 C.2   165  LYS165      0.2260
      4  O        -92.2060   40.0220  -11.5410 O.2   165  LYS165     -0.2867
      5  CB       -90.4520   42.4120  -11.9550 C.3   165  LYS165      0.0271
      6  CG       -90.3650   42.4690  -13.4930 C.3   165  LYS165      0.0035
      7  CD       -88.9340   42.5390  -13.9740 C.3   165  LYS165      0.0206
      8  CE       -88.8280   42.4120  -15.5040 C.3   165  LYS165      0.1093
      9  NZ       -89.6730   43.3870  -16.2640 N.3   165  LYS165     -0.1314
     10  N        -88.7340   40.2300   -8.1410 N.3   181  ARG181     -0.1231
     11  CA       -87.8930   41.4220   -8.2870 C.3   181  ARG181      0.1694
     12  C        -88.5810   42.7450   -8.0270 C.2   181  ARG181      0.2592
     13  O        -89.7230   42.9680   -8.4200 O.2   181  ARG181     -0.2718
     14  CB       -87.1700   41.4420   -9.6350 C.3   181  ARG181      0.0321
     15  CG       -86.0800   40.3720   -9.7290 C.3   181  ARG181      0.0489
     16  CD       -85.1010   40.6310  -10.8630 C.3   181  ARG181      0.2205
     17  NE       -85.7420   40.6890  -12.1750 N.pl3 181  ARG181     -0.0865
     18  CZ       -85.0730   40.7030  -13.3230 C.cat 181  ARG181      0.5346
     19  NH1      -83.7440   40.6580  -13.3110 N.pl3 181  ARG181      0.1354
     20  NH2      -85.7260   40.7600  -14.4790 N.pl3 181  ARG181      0.1354
     21  N        -87.8540   43.6090   -7.3320 N.am  182  LEU182     -0.1966
     22  CA       -88.3130   44.9300   -6.9460 C.3   182  LEU182      0.1728
     23  C        -88.1910   45.8950   -8.1050 C.2   182  LEU182      0.2616
     24  O        -87.1470   45.9590   -8.7620 O.2   182  LEU182     -0.2715
     25  CB       -87.4540   45.4500   -5.7970 C.3   182  LEU182      0.0311
     26  CG       -87.6770   46.9080   -5.4070 C.3   182  LEU182      0.0022
     27  CD1      -89.0950   47.0630   -4.8710 C.3   182  LEU182      0.0001
     28  CD2      -86.6510   47.3680   -4.3700 C.3   182  LEU182      0.0001
     29  N        -89.2500   46.6590   -8.3390 N.am  183  LEU183     -0.1977
     30  CA       -89.2250   47.7250   -9.3360 C.3   183  LEU183      0.1596
     31  C        -89.4270   49.0650   -8.6500 C.2   183  LEU183      0.2287
     32  O        -90.2810   49.1990   -7.7710 O.2   183  LEU183     -0.2864
     33  CB       -90.3300   47.5280  -10.3690 C.3   183  LEU183      0.0297
     34  CG       -90.2680   46.2690  -11.2290 C.3   183  LEU183      0.0022
     35  CD1      -91.5880   46.0280  -11.9840 C.3   183  LEU183      0.0001
     36  CD2      -89.0980   46.3660  -12.1940 C.3   183  LEU183      0.0001
     37  N        -77.9320   46.4830   -8.5900 N.3   246  ASP246     -0.1239
     38  CA       -78.5700   47.7540   -8.2460 C.3   246  ASP246      0.1674
     39  C        -78.4840   48.0660   -6.7570 C.2   246  ASP246      0.2266
     40  O        -78.1180   49.1720   -6.3580 O.2   246  ASP246     -0.2867
     41  CB       -80.0460   47.7470   -8.6520 C.3   246  ASP246      0.1410
     42  CG       -80.2500   47.7880  -10.1450 C.2   246  ASP246      0.3668
     43  OD1      -81.4140   47.8820  -10.5480 O.co2 246  ASP246     -0.2456
     44  OD2      -79.2680   47.7380  -10.9110 O.co2 246  ASP246     -0.2456
     45  N        -79.0950   51.9490   -6.2260 N.3   297  LEU297     -0.1245
     46  CA       -79.5620   52.7250   -7.3610 C.3   297  LEU297      0.1561
     47  C        -81.0580   53.0300   -7.2340 C.2   297  LEU297      0.2260
     48  O        -81.8650   52.1140   -7.0780 O.2   297  LEU297     -0.2867
     49  CB       -79.3070   51.9180   -8.6320 C.3   297  LEU297      0.0270
     50  CG       -79.7960   52.4360   -9.9750 C.3   297  LEU297      0.0019
     51  CD1      -78.9220   53.5900  -10.3970 C.3   297  LEU297      0.0001
     52  CD2      -79.7180   51.3040  -10.9970 C.3   297  LEU297      0.0001
     53  N        -83.8840   53.4790   -9.3660 N.3   299  SER299     -0.1217
     54  CA       -83.9860   53.1490  -10.7880 C.3   299  SER299      0.1889
     55  C        -85.2970   53.5430  -11.4750 C.2   299  SER299      0.2288
     56  O        -85.7530   52.8590  -12.3880 O.2   299  SER299     -0.2866
     57  CB       -83.7580   51.6500  -10.9770 C.3   299  SER299      0.2089
     58  OG       -84.7570   50.9130  -10.3110 O.3   299  SER299     -0.2183
     59  N        -81.9330   56.5210  -15.9710 N.3   304  THR304     -0.1203
     60  CA       -81.4260   55.5900  -14.9830 C.3   304  THR304      0.1994
     61  C        -80.3890   54.6370  -15.5650 C.2   304  THR304      0.2618
     62  O        -79.2610   54.5480  -15.0670 O.2   304  THR304     -0.2717
     63  CB       -82.5830   54.7320  -14.4080 C.3   304  THR304      0.1784
     64  OG1      -83.3980   55.5310  -13.5490 O.3   304  THR304     -0.2211
     65  CG2      -82.0480   53.5520  -13.6240 C.3   304  THR304      0.0376
     66  N        -80.7630   53.9070  -16.6100 N.am  305  THR305     -0.1952
     67  CA       -79.8610   52.8690  -17.0660 C.3   305  THR305      0.1897
     68  C        -78.5540   53.3890  -17.6690 C.2   305  THR305      0.2313
     69  O        -77.5060   52.7640  -17.5040 O.2   305  THR305     -0.2863
     70  CB       -80.5450   51.7610  -17.9210 C.3   305  THR305      0.1794
     71  OG1      -79.8510   51.6020  -19.1530 O.3   305  THR305     -0.2208
     72  CG2      -82.0110   52.0360  -18.1390 C.3   305  THR305      0.0378
     73  N        -76.5980   54.1290  -14.6230 N.3   308  ASN308     -0.1240
     74  CA       -76.1590   52.8380  -14.1110 C.3   308  ASN308      0.1653
     75  C        -74.9860   52.2820  -14.9310 C.2   308  ASN308      0.2266
     76  O        -73.9770   51.8150  -14.3720 O.2   308  ASN308     -0.2867
     77  CB       -77.3230   51.8390  -14.1060 C.3   308  ASN308      0.1155
     78  CG       -77.0880   50.6790  -13.1590 C.2   308  ASN308      0.2627
     79  OD1      -76.3040   50.7850  -12.2230 O.2   308  ASN308     -0.2716
     80  ND2      -77.7650   49.5690  -13.3960 N.am  308  ASN308     -0.0877
     81  N        -74.7320   47.4420  -20.0880 N.3   340  TYR340     -0.1227
     82  CA       -76.1370   47.7870  -20.1840 C.3   340  TYR340      0.1736
     83  C        -76.7070   47.5780  -18.8050 C.2   340  TYR340      0.2596
     84  O        -77.1670   46.4850  -18.4760 O.2   340  TYR340     -0.2718
     85  CB       -76.8390   46.9030  -21.2130 C.3   340  TYR340      0.0548
     86  CG       -78.1720   47.4230  -21.6860 C.ar  340  TYR340     -0.0200
     87  CD1      -79.2070   47.6680  -20.7910 C.ar  340  TYR340     -0.0009
     88  CD2      -78.4090   47.6480  -23.0380 C.ar  340  TYR340     -0.0009
     89  CE1      -80.4360   48.1350  -21.2280 C.ar  340  TYR340      0.0417
     90  CE2      -79.6320   48.1160  -23.4860 C.ar  340  TYR340      0.0417
     91  CZ       -80.6410   48.3550  -22.5790 C.ar  340  TYR340      0.1957
     92  OH       -81.8590   48.8130  -23.0270 O.3   340  TYR340     -0.2866
     93  N        -76.6500   48.6340  -17.9940 N.am  341  GLY341     -0.1942
     94  CA       -76.9380   48.5300  -16.5760 C.3   341  GLY341      0.2014
     95  C        -75.9490   47.5700  -15.9420 C.2   341  GLY341      0.2639
     96  O        -74.7240   47.7920  -15.9770 O.2   341  GLY341     -0.2714
     97  N        -76.4650   46.4870  -15.3750 N.am  342  ASP342     -0.1957
     98  CA       -75.6090   45.5270  -14.7070 C.3   342  ASP342      0.1840
     99  C        -74.9470   44.5610  -15.7000 C.2   342  ASP342      0.2622
    100  O        -74.0010   43.8590  -15.3540 O.2   342  ASP342     -0.2715
    101  CB       -76.4070   44.7450  -13.6750 C.3   342  ASP342      0.1450
    102  CG       -77.4190   43.8280  -14.3070 C.2   342  ASP342      0.3671
    103  OD1      -77.9460   44.1790  -15.3790 O.co2 342  ASP342     -0.2456
    104  OD2      -77.6860   42.7550  -13.7310 O.co2 342  ASP342     -0.2456
    105  N        -75.4410   44.5490  -16.9340 N.am  343  ASP343     -0.1971
    106  CA       -74.9680   43.6200  -17.9600 C.3   343  ASP343      0.1709
    107  C        -73.6330   44.0720  -18.5810 C.2   343  ASP343      0.2293
    108  O        -73.4770   45.2380  -18.9760 O.2   343  ASP343     -0.2864
    109  CB       -76.0280   43.4600  -19.0640 C.3   343  ASP343      0.1436
    110  CG       -75.9260   42.1250  -19.7670 C.2   343  ASP343      0.3671
    111  OD1      -76.8690   41.7230  -20.4800 O.co2 343  ASP343     -0.2456
    112  OD2      -74.9050   41.4500  -19.5800 O.co2 343  ASP343     -0.2456
    113  N        -79.1800   38.9000  -22.8180 N.3   391  ARG391     -0.1245
    114  CA       -79.9330   37.6470  -22.8630 C.3   391  ARG391      0.1563
    115  C        -79.7390   36.8590  -24.1620 C.2   391  ARG391      0.2260
    116  O        -80.4860   35.9250  -24.4300 O.2   391  ARG391     -0.2867
    117  CB       -81.4300   37.8960  -22.5880 C.3   391  ARG391      0.0307
    118  CG       -81.7920   38.0530  -21.0980 C.3   391  ARG391      0.0489
    119  CD       -82.2620   39.4720  -20.7320 C.3   391  ARG391      0.2205
    120  NE       -81.7150   39.9540  -19.4500 N.pl3 391  ARG391     -0.0865
    121  CZ       -82.4300   40.1880  -18.3470 C.cat 391  ARG391      0.5346
    122  NH1      -83.7430   39.9850  -18.3430 N.pl3 391  ARG391      0.1354
    123  NH2      -81.8350   40.6320  -17.2410 N.pl3 391  ARG391      0.1354
@<TRIPOS>BOND
     1   116   115    2
     2   115   114    1
     3    90    88   ar
     4    90    91   ar
     5    88    86   ar
     6    92    91    1
     7   114   113    1
     8   114   117    1
     9   117   118    1
    10    91    89   ar
    11    86    85    1
    12    86    87   ar
    13    89    87   ar
    14    85    82    1
    15   118   119    1
    16   119   120    1
    17   111   110   ar
    18    82    81    1
    19    82    83    1
    20   110   112   ar
    21   110   109    1
    22   120   121    2
    23    71    70    1
    24   109   106    1
    25   108   107    2
    26    83    84    2
    27    83    93   am
    28   107   106    1
    29   121   122    1
    30   121   123    1
    31    72    70    1
    32    93    94    1
    33   106   105    1
    34    70    67    1
    35    68    69    2
    36    68    67    1
    37    67    66    1
    38   105    99   am
    39    66    61   am
    40    94    95    1
    41     9     8    1
    42    96    95    2
    43    59    60    1
    44    95    97   am
    45    99   100    2
    46    99    98    1
    47    61    62    2
    48    61    60    1
    49     8     7    1
    50   103   102   ar
    51    97    98    1
    52    60    63    1
    53    75    76    2
    54    75    74    1
    55    98   101    1
    56    73    74    1
    57    20    18    1
    58    63    65    1
    59    63    64    1
    60   102   104   ar
    61   102   101    1
    62    74    77    1
    63    77    78    1
    64     7     6    1
    65     6     5    1
    66    80    78   am
    67    18    19    1
    68    18    17    2
    69    78    79    2
    70    56    55    2
    71    36    34    1
    72    17    16    1
    73    35    34    1
    74     5     2    1
    75     3     4    2
    76     3     2    1
    77    55    54    1
    78     2     1    1
    79    34    33    1
    80    52    50    1
    81    57    54    1
    82    57    58    1
    83    44    42   ar
    84    16    15    1
    85    54    53    1
    86    43    42   ar
    87    51    50    1
    88    33    30    1
    89    42    41    1
    90    50    49    1
    91    15    14    1
    92    14    11    1
    93    30    31    1
    94    30    29    1
    95    24    23    2
    96    41    38    1
    97    31    32    2
    98    49    46    1
    99    37    38    1
   100    13    12    2
   101    29    23   am
   102    11    10    1
   103    11    12    1
   104    38    39    1
   105    23    22    1
   106    12    21   am
   107    46    47    1
   108    46    45    1
   109    21    22    1
   110    47    48    2
   111    22    25    1
   112    39    40    2
   113    25    26    1
   114    26    27    1
   115    26    28    1
