@<TRIPOS>MOLECULE
tmp/3sfvA00.pdb
 166 161 0 0 0
SMALL
GASTEIGER

@<TRIPOS>ATOM
      1  N        124.3380   39.0410   12.2260 N.3    23  SER23      -0.1202
      2  CA       124.0930   40.1940   11.3710 C.3    23  SER23       0.2020
      3  C        122.7220   40.7780   11.6300 C.2    23  SER23       0.2619
      4  O        121.7200   40.0540   11.7170 O.2    23  SER23      -0.2717
      5  CB       124.2140   39.8420    9.8820 C.3    23  SER23       0.2103
      6  OG       125.5610   39.5910    9.5680 O.3    23  SER23      -0.2182
      7  N        122.6800   42.0990   11.7280 N.am   24  GLY24      -0.1942
      8  CA       121.4340   42.8210   11.9000 C.3    24  GLY24       0.2014
      9  C        121.0620   43.2080   13.3280 C.2    24  GLY24       0.2639
     10  O        120.0580   43.8900   13.5340 O.2    24  GLY24      -0.2714
     11  N        121.8480   42.7830   14.3160 N.am   25  VAL25      -0.1963
     12  CA       121.4860   43.0380   15.7150 C.3    25  VAL25       0.1727
     13  C        121.7630   44.4720   16.1510 C.2    25  VAL25       0.2617
     14  O        121.1830   44.9550   17.1250 O.2    25  VAL25      -0.2715
     15  CB       122.1520   42.0480   16.6950 C.3    25  VAL25       0.0290
     16  CG1      121.7360   40.6160   16.3550 C.3    25  VAL25       0.0023
     17  CG2      123.6950   42.1740   16.6640 C.3    25  VAL25       0.0023
     18  N        122.6660   45.1340   15.4370 N.am   26  GLY26      -0.1940
     19  CA       122.9650   46.5290   15.6900 C.3    26  GLY26       0.2014
     20  C        124.3910   46.8030   16.1280 C.2    26  GLY26       0.2639
     21  O        124.6530   47.8340   16.7400 O.2    26  GLY26      -0.2714
     22  N        125.3220   45.8990   15.8260 N.am   27  LYS27      -0.1963
     23  CA       126.7080   46.1160   16.2470 C.3    27  LYS27       0.1728
     24  C        127.2590   47.4110   15.6430 C.2    27  LYS27       0.2616
     25  O        127.8560   48.2390   16.3320 O.2    27  LYS27      -0.2715
     26  CB       127.5910   44.9520   15.7940 C.3    27  LYS27       0.0311
     27  CG       127.2130   43.6150   16.3870 C.3    27  LYS27       0.0038
     28  CD       128.1380   42.5100   15.8650 C.3    27  LYS27       0.0206
     29  CE       128.0320   42.3000   14.3430 C.3    27  LYS27       0.1093
     30  NZ       126.6610   41.8990   13.8950 N.3    27  LYS27      -0.1314
     31  N        127.0550   47.5900   14.3460 N.am   28  ASN28      -0.1958
     32  CA       127.5750   48.7900   13.6980 C.3    28  ASN28       0.1819
     33  C        126.9000   50.0520   14.2460 C.2    28  ASN28       0.2621
     34  O        127.5370   51.0930   14.3970 O.2    28  ASN28      -0.2715
     35  CB       127.4110   48.7210   12.1810 C.3    28  ASN28       0.1195
     36  CG       128.2810   49.7380   11.4630 C.2    28  ASN28       0.2630
     37  OD1      127.7840   50.6370   10.7840 O.2    28  ASN28      -0.2716
     38  ND2      129.5870   49.6080   11.6270 N.am   28  ASN28      -0.0877
     39  N        125.6090   49.9620   14.5430 N.am   29  CYS29      -0.1968
     40  CA       124.9140   51.1310   15.0840 C.3    29  CYS29       0.1712
     41  C        125.3940   51.4800   16.4790 C.2    29  CYS29       0.2296
     42  O        125.5250   52.6510   16.8130 O.2    29  CYS29      -0.2864
     43  CB       123.3850   50.9600   15.0320 C.3    29  CYS29       0.0983
     44  SG       122.7230   51.0850   13.3570 S.3    29  CYS29      -0.0798
     45  N        123.2760   58.1060   14.0190 N.3    39  TYR39      -0.1227
     46  CA       122.4450   56.9270   13.8040 C.3    39  TYR39       0.1736
     47  C        121.6990   57.0740   12.4900 C.2    39  TYR39       0.2596
     48  O        121.2240   58.1610   12.1530 O.2    39  TYR39      -0.2718
     49  CB       121.4600   56.7130   14.9640 C.3    39  TYR39       0.0548
     50  CG       120.4510   55.5930   14.7360 C.ar   39  TYR39      -0.0200
     51  CD1      119.1730   55.8610   14.2450 C.ar   39  TYR39      -0.0009
     52  CD2      120.7770   54.2690   15.0160 C.ar   39  TYR39      -0.0009
     53  CE1      118.2460   54.8360   14.0330 C.ar   39  TYR39       0.0417
     54  CE2      119.8570   53.2420   14.8040 C.ar   39  TYR39       0.0417
     55  CZ       118.5960   53.5330   14.3140 C.ar   39  TYR39       0.1957
     56  OH       117.6910   52.5190   14.1140 O.3    39  TYR39      -0.2866
     57  N        121.6160   55.9840   11.7360 N.am   40  THR40      -0.1939
     58  CA       120.7150   55.9340   10.5920 C.3    40  THR40       0.2028
     59  C        119.9230   54.6380   10.6410 C.2    40  THR40       0.2642
     60  O        120.4350   53.5980   11.0590 O.2    40  THR40      -0.2714
     61  CB       121.4530   56.0370    9.2470 C.3    40  THR40       0.1808
     62  OG1      120.5010   55.9870    8.1750 O.3    40  THR40      -0.2208
     63  CG2      122.4200   54.8790    9.0770 C.3    40  THR40       0.0379
     64  N        118.6630   54.7150   10.2330 N.am   41  GLU41      -0.1963
     65  CA       117.8180   53.5420   10.1200 C.3    41  GLU41       0.1733
     66  C        118.2050   52.7070    8.8860 C.2    41  GLU41       0.2617
     67  O        117.8510   51.5280    8.7760 O.2    41  GLU41      -0.2715
     68  CB       116.3610   53.9970   10.0120 C.3    41  GLU41       0.0429
     69  CG       115.3590   52.8720   10.0010 C.3    41  GLU41       0.1163
     70  CD       115.2490   52.2020   11.3500 C.2    41  GLU41       0.3649
     71  OE1      115.4410   52.8990   12.3780 O.co2  41  GLU41      -0.2457
     72  OE2      114.9780   50.9820   11.3740 O.co2  41  GLU41      -0.2457
     73  N        118.9210   53.3230    7.9520 N.am   42  SER42      -0.1936
     74  CA       119.2390   52.6570    6.6920 C.3    42  SER42       0.2055
     75  C        120.3270   51.6020    6.8440 C.2    42  SER42       0.2643
     76  O        121.4490   51.9160    7.2350 O.2    42  SER42      -0.2714
     77  CB       119.6290   53.6780    5.6250 C.3    42  SER42       0.2130
     78  OG       118.5220   54.5090    5.3090 O.3    42  SER42      -0.2179
     79  N        119.9930   50.3570    6.5220 N.am   43  TYR43      -0.1959
     80  CA       120.9550   49.2630    6.6310 C.3    43  TYR43       0.1771
     81  C        121.9820   49.2500    5.5130 C.2    43  TYR43       0.2619
     82  O        121.6420   49.3770    4.3340 O.2    43  TYR43      -0.2715
     83  CB       120.2520   47.9090    6.6600 C.3    43  TYR43       0.0574
     84  CG       121.2230   46.7560    6.7140 C.ar   43  TYR43      -0.0198
     85  CD1      121.9530   46.4980    7.8670 C.ar   43  TYR43      -0.0009
     86  CD2      121.4130   45.9240    5.6180 C.ar   43  TYR43      -0.0009
     87  CE1      122.8440   45.4520    7.9280 C.ar   43  TYR43       0.0417
     88  CE2      122.3060   44.8670    5.6710 C.ar   43  TYR43       0.0417
     89  CZ       123.0170   44.6360    6.8280 C.ar   43  TYR43       0.1957
     90  OH       123.9110   43.5940    6.9090 O.3    43  TYR43      -0.2866
     91  N        123.2390   49.0720    5.9010 N.am   44  ILE44      -0.1977
     92  CA       124.3360   48.9140    4.9650 C.3    44  ILE44       0.1596
     93  C        125.1710   47.7000    5.3770 C.2    44  ILE44       0.2287
     94  O        125.6860   47.6420    6.5030 O.2    44  ILE44      -0.2864
     95  CB       125.2170   50.1780    4.9130 C.3    44  ILE44       0.0276
     96  CG1      124.3330   51.4150    4.7000 C.3    44  ILE44       0.0022
     97  CG2      126.2650   50.0440    3.8100 C.3    44  ILE44       0.0022
     98  CD1      124.9620   52.5080    3.8630 C.3    44  ILE44       0.0001
     99  N        128.1580   44.9880    5.6950 N.3    46  THR46      -0.1218
    100  CA       129.5900   45.1650    5.8560 C.3    46  THR46       0.1862
    101  C        130.3160   44.2530    4.8810 C.2    46  THR46       0.2287
    102  O        129.8430   43.1530    4.5810 O.2    46  THR46      -0.2866
    103  CB       130.0240   44.8510    7.3000 C.3    46  THR46       0.1770
    104  OG1      129.5730   43.5370    7.6500 O.3    46  THR46      -0.2211
    105  CG2      129.3890   45.8510    8.2570 C.3    46  THR46       0.0375
    106  N        134.2790   46.2310   14.8330 N.3    69  ASP69      -0.1239
    107  CA       133.0400   45.5570   14.4310 C.3    69  ASP69       0.1674
    108  C        133.4290   44.4350   13.4620 C.2    69  ASP69       0.2266
    109  O        134.1730   44.6550   12.5080 O.2    69  ASP69      -0.2867
    110  CB       132.1170   46.5770   13.7540 C.3    69  ASP69       0.1410
    111  CG       130.8070   45.9680   13.2640 C.2    69  ASP69       0.3668
    112  OD1      130.3560   44.9610   13.8400 O.co2  69  ASP69      -0.2456
    113  OD2      130.2350   46.4980   12.2820 O.co2  69  ASP69      -0.2456
    114  N        120.1930   44.6070   22.3240 N.3   127  ASN127     -0.1225
    115  CA       119.9850   45.8940   21.6640 C.3   127  ASN127      0.1785
    116  C        118.5810   46.0260   21.0740 C.2   127  ASN127      0.2597
    117  O        117.8410   45.0380   20.9780 O.2   127  ASN127     -0.2718
    118  CB       121.0510   46.0750   20.5730 C.3   127  ASN127      0.1169
    119  CG       121.0290   47.4560   19.9430 C.2   127  ASN127      0.2627
    120  OD1      121.0420   48.4710   20.6420 O.2   127  ASN127     -0.2716
    121  ND2      121.0340   47.4990   18.6130 N.am  127  ASN127     -0.0877
    122  N        118.2390   47.2490   20.6630 N.am  128  LYS128     -0.1980
    123  CA       116.9180   47.6040   20.1130 C.3   128  LYS128      0.1596
    124  C        115.8160   47.6200   21.1810 C.2   128  LYS128      0.2287
    125  O        114.6660   47.2780   20.9010 O.2   128  LYS128     -0.2864
    126  CB       116.5030   46.7240   18.9140 C.3   128  LYS128      0.0298
    127  CG       117.5470   46.6080   17.8110 C.3   128  LYS128      0.0038
    128  CD       116.9580   46.0500   16.5130 C.3   128  LYS128      0.0206
    129  CE       118.0600   45.6290   15.5490 C.3   128  LYS128      0.1093
    130  NZ       117.5130   44.9750   14.3070 N.3   128  LYS128     -0.1314
    131  N        114.2850   50.0290   22.4190 N.3   130  ASP130     -0.1225
    132  CA       113.2580   51.0320   22.1260 C.3   130  ASP130      0.1805
    133  C        112.0430   50.4480   21.3980 C.2   130  ASP130      0.2597
    134  O        110.9740   51.0550   21.3870 O.2   130  ASP130     -0.2718
    135  CB       113.8440   52.1420   21.2590 C.3   130  ASP130      0.1424
    136  CG       114.4280   51.6130   19.9810 C.2   130  ASP130      0.3668
    137  OD1      115.5420   51.0460   20.0550 O.co2 130  ASP130     -0.2456
    138  OD2      113.7850   51.7460   18.9100 O.co2 130  ASP130     -0.2456
    139  N        112.2140   49.2880   20.7680 N.am  131  LEU131     -0.1979
    140  CA       111.1230   48.6550   20.0280 C.3   131  LEU131      0.1596
    141  C        110.2200   47.8600   20.9840 C.2   131  LEU131      0.2287
    142  O        110.1230   46.6310   20.9040 O.2   131  LEU131     -0.2864
    143  CB       111.6720   47.7610   18.9120 C.3   131  LEU131      0.0297
    144  CG       112.4850   48.4520   17.8090 C.3   131  LEU131      0.0022
    145  CD1      112.8820   47.4580   16.7240 C.3   131  LEU131      0.0001
    146  CD2      111.6810   49.5910   17.1960 C.3   131  LEU131      0.0001
    147  N        119.7880   50.7440   23.4000 N.3   157  SER157     -0.1202
    148  CA       119.2370   51.1970   22.1310 C.3   157  SER157      0.2020
    149  C        120.2360   52.1080   21.4450 C.2   157  SER157      0.2619
    150  O        120.5450   53.1880   21.9440 O.2   157  SER157     -0.2717
    151  CB       117.9250   51.9480   22.3430 C.3   157  SER157      0.2103
    152  OG       117.5590   52.6170   21.1540 O.3   157  SER157     -0.2182
    153  N        120.7580   51.6830   20.2980 N.am  158  ALA158     -0.1965
    154  CA       121.6800   52.5420   19.5680 C.3   158  ALA158      0.1728
    155  C        120.8930   53.7260   19.0370 C.2   158  ALA158      0.2616
    156  O        121.4190   54.8290   18.8860 O.2   158  ALA158     -0.2715
    157  CB       122.3310   51.7810   18.4290 C.3   158  ALA158      0.0334
    158  N        119.6110   53.4960   18.7780 N.am  159  LYS159     -0.1977
    159  CA       118.7560   54.5400   18.2020 C.3   159  LYS159      0.1596
    160  C        118.5190   55.7070   19.1710 C.2   159  LYS159      0.2287
    161  O        118.6810   56.8680   18.7820 O.2   159  LYS159     -0.2864
    162  CB       117.4240   53.9520   17.7190 C.3   159  LYS159      0.0298
    163  CG       116.4820   54.9920   17.0820 C.3   159  LYS159      0.0038
    164  CD       115.1070   54.3980   16.7550 C.3   159  LYS159      0.0206
    165  CE       114.2270   55.4190   16.0270 C.3   159  LYS159      0.1093
    166  NZ       113.0470   54.7790   15.3880 N.3   159  LYS159     -0.1314
@<TRIPOS>BOND
     1    97    95    1
     2    98    96    1
     3    82    81    2
     4   102   101    2
     5    96    95    1
     6   101   100    1
     7    95    92    1
     8    92    93    1
     9    92    91    1
    10    78    77    1
    11    93    94    2
    12    81    91   am
    13    81    80    1
    14    86    88   ar
    15    86    84   ar
    16    77    74    1
    17    88    89   ar
    18    99   100    1
    19   100   103    1
    20    79    80    1
    21    79    75   am
    22    80    83    1
    23    83    84    1
    24    74    75    1
    25    74    73    1
    26    84    85   ar
    27    89    90    1
    28    89    87   ar
    29    75    76    2
    30   103   104    1
    31   103   105    1
    32    85    87   ar
    33    73    66   am
    34    62    61    1
    35    67    66    2
    36    66    65    1
    37    63    61    1
    38    61    58    1
    39     6     5    1
    40     5     2    1
    41    69    68    1
    42    69    70    1
    43    68    65    1
    44    65    64    1
    45    64    59   am
    46    58    59    1
    47    58    57    1
    48    59    60    2
    49    37    36    2
    50    70    72   ar
    51    70    71   ar
    52     2     3    1
    53     2     1    1
    54    36    38   am
    55    36    35    1
    56     3     4    2
    57     3     7   am
    58     7     8    1
    59    57    47   am
    60     8     9    1
    61    48    47    2
    62    35    32    1
    63   113   111   ar
    64    47    46    1
    65   109   108    2
    66   111   110    1
    67   111   112   ar
    68     9    10    2
    69     9    11   am
    70    44    43    1
    71   108   107    1
    72    32    33    1
    73    32    31    1
    74   110   107    1
    75    46    45    1
    76    46    49    1
    77    30    29    1
    78    53    51   ar
    79    53    55   ar
    80    56    55    1
    81    51    50   ar
    82    33    34    2
    83    33    39   am
    84   130   129    1
    85    55    54   ar
    86    11    12    1
    87    29    28    1
    88    31    24   am
    89   107   106    1
    90    39    40    1
    91    50    49    1
    92    50    52   ar
    93    54    52   ar
    94    43    40    1
    95    40    41    1
    96   166   165    1
    97    18    19    1
    98    18    13   am
    99   129   128    1
   100    24    23    1
   101    24    25    2
   102    19    20    1
   103    12    13    1
   104    12    15    1
   105    26    23    1
   106    26    27    1
   107    22    20   am
   108    22    23    1
   109    28    27    1
   110   165   164    1
   111    20    21    2
   112    13    14    2
   113    16    15    1
   114    41    42    2
   115   128   127    1
   116    17    15    1
   117   145   144    1
   118   164   163    1
   119   163   162    1
   120   146   144    1
   121   162   159    1
   122   144   143    1
   123   127   126    1
   124   159   158    1
   125   159   160    1
   126   157   154    1
   127   121   119   am
   128   158   155   am
   129   161   160    2
   130   156   155    2
   131   138   136   ar
   132   143   140    1
   133   126   123    1
   134   155   154    1
   135   154   153    1
   136   119   118    1
   137   119   120    2
   138   136   137   ar
   139   136   135    1
   140   140   139    1
   141   140   141    1
   142   123   122    1
   143   123   124    1
   144   153   149   am
   145   118   115    1
   146   122   116   am
   147   139   133   am
   148   125   124    2
   149   142   141    2
   150   117   116    2
   151   116   115    1
   152   152   151    1
   153   135   132    1
   154   134   133    2
   155   133   132    1
   156   149   150    2
   157   149   148    1
   158   115   114    1
   159   132   131    1
   160   148   151    1
   161   148   147    1
