@<TRIPOS>MOLECULE
tmp/3sfxB04.pdb
 181 179 0 0 0
SMALL
GASTEIGER

@<TRIPOS>ATOM
      1  N         43.2000  -47.5850  -10.3690 N.3    80  PHE80      -0.1241
      2  CA        41.7600  -47.3350  -10.2200 C.3    80  PHE80       0.1605
      3  C         41.0690  -48.1830   -9.1350 C.2    80  PHE80       0.2264
      4  O         39.8780  -48.0100   -8.8860 O.2    80  PHE80      -0.2867
      5  CB        41.0330  -47.5120  -11.5530 C.3    80  PHE80       0.0534
      6  CG        41.0880  -46.2980  -12.4350 C.ar   80  PHE80      -0.0203
      7  CD1       40.0000  -45.4230  -12.5050 C.ar   80  PHE80      -0.0042
      8  CD2       42.2310  -46.0190  -13.1940 C.ar   80  PHE80      -0.0042
      9  CE1       40.0420  -44.2910  -13.3270 C.ar   80  PHE80      -0.0003
     10  CE2       42.2900  -44.8790  -14.0150 C.ar   80  PHE80      -0.0003
     11  CZ        41.1960  -44.0200  -14.0910 C.ar   80  PHE80      -0.0000
     12  N         38.8240  -46.7020   -6.6910 N.3    83  LEU83      -0.1245
     13  CA        37.4220  -46.4210   -7.0930 C.3    83  LEU83       0.1561
     14  C         36.5790  -47.6820   -7.3570 C.2    83  LEU83       0.2260
     15  O         35.5250  -47.6140   -7.9990 O.2    83  LEU83      -0.2867
     16  CB        37.4030  -45.5400   -8.3420 C.3    83  LEU83       0.0270
     17  CG        38.0670  -44.1630   -8.1870 C.3    83  LEU83       0.0019
     18  CD1       38.3630  -43.5580   -9.5570 C.3    83  LEU83       0.0001
     19  CD2       37.2020  -43.2510   -7.3450 C.3    83  LEU83       0.0001
     20  N         33.1280  -47.3780   -6.5110 N.3    86  SER86      -0.1217
     21  CA        32.4970  -46.2680   -7.2230 C.3    86  SER86       0.1889
     22  C         32.3520  -46.5450   -8.7250 C.2    86  SER86       0.2288
     23  O         32.3220  -45.6130   -9.5300 O.2    86  SER86      -0.2866
     24  CB        33.3350  -44.9990   -7.0360 C.3    86  SER86       0.2089
     25  OG        33.3550  -44.6360   -5.6750 O.3    86  SER86      -0.2183
     26  N         29.7200  -44.6260  -10.6620 N.3    89  TRP89      -0.1241
     27  CA        30.1100  -43.2240  -10.9040 C.3    89  TRP89       0.1605
     28  C         30.9900  -43.1560  -12.1350 C.2    89  TRP89       0.2264
     29  O         30.8210  -42.2630  -12.9680 O.2    89  TRP89      -0.2867
     30  CB        30.8490  -42.6240   -9.7160 C.3    89  TRP89       0.0550
     31  CG        29.9350  -42.2010   -8.6410 C.ar   89  TRP89       0.0003
     32  CD1       29.8280  -42.7530   -7.3930 C.ar   89  TRP89       0.0946
     33  CD2       28.9680  -41.1510   -8.7080 C.ar   89  TRP89       0.0152
     34  NE1       28.8350  -42.1060   -6.6730 N.ar   89  TRP89      -0.2442
     35  CE2       28.3000  -41.1140   -7.4560 C.ar   89  TRP89       0.0810
     36  CE3       28.5960  -40.2380   -9.7030 C.ar   89  TRP89       0.0012
     37  CZ2       27.2840  -40.1880   -7.1740 C.ar   89  TRP89       0.0191
     38  CZ3       27.5930  -39.3100   -9.4200 C.ar   89  TRP89       0.0001
     39  CH2       26.9470  -39.2930   -8.1670 C.ar   89  TRP89       0.0015
     40  N         29.9200  -40.7230  -15.0700 N.3    93  TRP93      -0.1241
     41  CA        30.8210  -39.6630  -15.5300 C.3    93  TRP93       0.1605
     42  C         31.1260  -39.8210  -17.0120 C.2    93  TRP93       0.2264
     43  O         31.1940  -38.8350  -17.7460 O.2    93  TRP93      -0.2867
     44  CB        32.1240  -39.6330  -14.7110 C.3    93  TRP93       0.0550
     45  CG        31.9060  -39.2750  -13.2510 C.ar   93  TRP93       0.0003
     46  CD1       31.0060  -38.3790  -12.7410 C.ar   93  TRP93       0.0946
     47  CD2       32.6400  -39.7840  -12.1320 C.ar   93  TRP93       0.0152
     48  NE1       31.1200  -38.3170  -11.3730 N.ar   93  TRP93      -0.2442
     49  CE2       32.1220  -39.1620  -10.9730 C.ar   93  TRP93       0.0810
     50  CE3       33.6880  -40.7060  -11.9990 C.ar   93  TRP93       0.0012
     51  CZ2       32.5990  -39.4580   -9.6760 C.ar   93  TRP93       0.0191
     52  CZ3       34.1710  -40.9960  -10.7100 C.ar   93  TRP93       0.0001
     53  CH2       33.6160  -40.3760   -9.5700 C.ar   93  TRP93       0.0015
     54  N         24.3200  -43.4580   -3.2220 N.3   140  LEU140     -0.1245
     55  CA        25.0720  -42.7310   -4.2520 C.3   140  LEU140      0.1561
     56  C         25.1890  -43.5140   -5.5790 C.2   140  LEU140      0.2260
     57  O         24.7630  -43.0080   -6.6270 O.2   140  LEU140     -0.2867
     58  CB        26.4170  -42.1900   -3.7150 C.3   140  LEU140      0.0270
     59  CG        26.3560  -40.8240   -2.9830 C.3   140  LEU140      0.0019
     60  CD1       25.2670  -40.7770   -1.8630 C.3   140  LEU140      0.0001
     61  CD2       27.7170  -40.4290   -2.3850 C.3   140  LEU140      0.0001
     62  N         24.1010  -35.5390    0.6270 N.3   196  ARG196     -0.1245
     63  CA        24.3410  -36.1810   -0.6710 C.3   196  ARG196      0.1563
     64  C         23.4120  -37.3810   -0.8030 C.2   196  ARG196      0.2260
     65  O         22.8910  -37.6230   -1.8700 O.2   196  ARG196     -0.2867
     66  CB        25.7620  -36.7250   -0.8210 C.3   196  ARG196      0.0307
     67  CG        26.9100  -35.7690   -0.7690 C.3   196  ARG196      0.0489
     68  CD        28.2190  -36.6040   -0.5570 C.3   196  ARG196      0.2205
     69  NE        28.0300  -37.6970    0.4190 N.pl3 196  ARG196     -0.0865
     70  CZ        28.8540  -38.7430    0.5770 C.cat 196  ARG196      0.5346
     71  NH1       29.9560  -38.8440   -0.1670 N.pl3 196  ARG196      0.1354
     72  NH2       28.5840  -39.6940    1.4760 N.pl3 196  ARG196      0.1354
     73  N         29.5010  -25.5990    1.7130 N.3   253  HIS253     -0.1241
     74  CA        30.3680  -26.1890    0.6770 C.3   253  HIS253      0.1621
     75  C         29.5730  -26.3540   -0.6250 C.2   253  HIS253      0.2264
     76  O         28.3790  -26.6910   -0.5900 O.2   253  HIS253     -0.2867
     77  CB        30.8970  -27.5500    1.1420 C.3   253  HIS253      0.0745
     78  CG        31.8630  -28.1680    0.1820 C.ar  253  HIS253      0.0817
     79  ND1       33.2340  -28.0530    0.3210 N.ar  253  HIS253     -0.2268
     80  CD2       31.6590  -28.8650   -0.9530 C.ar  253  HIS253      0.1154
     81  CE1       33.8280  -28.6600   -0.6910 C.ar  253  HIS253      0.1986
     82  NE2       32.8940  -29.1580   -1.4800 N.ar  253  HIS253     -0.2212
     83  N         27.7140  -29.8380   -1.0770 N.3   256  TYR256     -0.1241
     84  CA        26.5530  -29.9880   -0.1890 C.3   256  TYR256      0.1605
     85  C         25.4710  -28.9380   -0.4140 C.2   256  TYR256      0.2264
     86  O         24.2900  -29.1910   -0.1500 O.2   256  TYR256     -0.2867
     87  CB        27.0190  -30.0240    1.2720 C.3   256  TYR256      0.0534
     88  CG        27.9930  -31.1620    1.4960 C.ar  256  TYR256     -0.0201
     89  CD1       27.6050  -32.4890    1.2920 C.ar  256  TYR256     -0.0009
     90  CD2       29.2970  -30.9080    1.8930 C.ar  256  TYR256     -0.0009
     91  CE1       28.5040  -33.5390    1.4760 C.ar  256  TYR256      0.0417
     92  CE2       30.2030  -31.9400    2.0900 C.ar  256  TYR256      0.0417
     93  CZ        29.7990  -33.2500    1.8790 C.ar  256  TYR256      0.1957
     94  OH        30.7130  -34.2530    2.0650 O.3   256  TYR256     -0.2866
     95  N         38.2210  -24.3800   -8.5830 N.3   310  ASP310     -0.1239
     96  CA        38.3440  -25.7720   -9.0100 C.3   310  ASP310      0.1674
     97  C         37.2330  -26.0330  -10.0130 C.2   310  ASP310      0.2266
     98  O         36.0570  -25.7720   -9.7290 O.2   310  ASP310     -0.2867
     99  CB        38.2220  -26.6740   -7.7720 C.3   310  ASP310      0.1410
    100  CG        38.1010  -28.1570   -8.1090 C.2   310  ASP310      0.3668
    101  OD1       37.8610  -28.5200   -9.2770 O.co2 310  ASP310     -0.2456
    102  OD2       38.2110  -28.9770   -7.1660 O.co2 310  ASP310     -0.2456
    103  N         35.4600  -28.5890  -10.9290 N.3   312  CYS312     -0.1221
    104  CA        34.2280  -29.3530  -10.6050 C.3   312  CYS312      0.1808
    105  C         33.1430  -28.4610  -10.0220 C.2   312  CYS312      0.2601
    106  O         31.9490  -28.7270  -10.2170 O.2   312  CYS312     -0.2717
    107  CB        34.4780  -30.5620   -9.6780 C.3   312  CYS312      0.0970
    108  SG        35.0550  -30.1280   -8.0310 S.3   312  CYS312     -0.0800
    109  N         33.5380  -27.3890   -9.3280 N.am  313  TYR313     -0.1976
    110  CA        32.5370  -26.4510   -8.7840 C.3   313  TYR313      0.1639
    111  C         31.7310  -25.6840   -9.8360 C.2   313  TYR313      0.2290
    112  O         30.7090  -25.0400   -9.5190 O.2   313  TYR313     -0.2864
    113  CB        33.1500  -25.5370   -7.6930 C.3   313  TYR313      0.0560
    114  CG        33.6980  -26.3790   -6.5640 C.ar  313  TYR313     -0.0198
    115  CD1       32.8820  -27.3420   -5.9430 C.ar  313  TYR313     -0.0009
    116  CD2       35.0330  -26.2760   -6.1570 C.ar  313  TYR313     -0.0009
    117  CE1       33.3690  -28.1710   -4.9330 C.ar  313  TYR313      0.0417
    118  CE2       35.5360  -27.1010   -5.1320 C.ar  313  TYR313      0.0417
    119  CZ        34.7000  -28.0460   -4.5350 C.ar  313  TYR313      0.1957
    120  OH        35.1730  -28.8570   -3.5250 O.3   313  TYR313     -0.2866
    121  N         28.8080  -27.9370   -9.3220 N.3   316  TRP316     -0.1241
    122  CA        28.2090  -27.9690   -7.9620 C.3   316  TRP316      0.1605
    123  C         27.6820  -26.5940   -7.5810 C.2   316  TRP316      0.2264
    124  O         26.5600  -26.4660   -7.0930 O.2   316  TRP316     -0.2867
    125  CB        29.1930  -28.4810   -6.8950 C.3   316  TRP316      0.0550
    126  CG        29.6610  -29.8910   -7.1700 C.ar  316  TRP316      0.0003
    127  CD1       30.9470  -30.2980   -7.4010 C.ar  316  TRP316      0.0946
    128  CD2       28.8430  -31.0550   -7.2820 C.ar  316  TRP316      0.0152
    129  NE1       30.9800  -31.6380   -7.6500 N.ar  316  TRP316     -0.2442
    130  CE2       29.6990  -32.1330   -7.5870 C.ar  316  TRP316      0.0810
    131  CE3       27.4610  -31.2920   -7.1710 C.ar  316  TRP316      0.0012
    132  CZ2       29.2300  -33.4410   -7.7640 C.ar  316  TRP316      0.0191
    133  CZ3       26.9820  -32.6140   -7.3470 C.ar  316  TRP316      0.0001
    134  CH2       27.8700  -33.6660   -7.6430 C.ar  316  TRP316      0.0015
    135  N         40.6790  -30.2880  -12.2470 N.3   366  ASP366     -0.1239
    136  CA        40.4640  -29.3300  -11.1690 C.3   366  ASP366      0.1674
    137  C         41.0670  -27.9620  -11.5190 C.2   366  ASP366      0.2266
    138  O         40.3520  -26.9650  -11.6130 O.2   366  ASP366     -0.2867
    139  CB        41.0590  -29.9720   -9.8930 C.3   366  ASP366      0.1410
    140  CG        41.3620  -28.9860   -8.7780 C.2   366  ASP366      0.3668
    141  OD1       41.0990  -27.7660   -8.8890 O.co2 366  ASP366     -0.2456
    142  OD2       41.8780  -29.4780   -7.7520 O.co2 366  ASP366     -0.2456
    143  N         40.6520  -36.2330  -14.6660 N.3   373  ASP373     -0.1225
    144  CA        40.0390  -37.5040  -14.2680 C.3   373  ASP373      0.1805
    145  C         38.5670  -37.4920  -14.7140 C.2   373  ASP373      0.2598
    146  O         38.0720  -36.4570  -15.1790 O.2   373  ASP373     -0.2718
    147  CB        40.1760  -37.7280  -12.7490 C.3   373  ASP373      0.1424
    148  CG        39.5090  -36.6220  -11.9360 C.2   373  ASP373      0.3668
    149  OD1       38.3230  -36.3530  -12.1670 O.co2 373  ASP373     -0.2456
    150  OD2       40.1610  -36.0160  -11.0570 O.co2 373  ASP373     -0.2456
    151  N         37.8800  -38.6300  -14.5910 N.am  374  GLN374     -0.1965
    152  CA        36.5090  -38.7380  -15.0970 C.3   374  GLN374      0.1733
    153  C         35.5500  -37.8000  -14.3440 C.2   374  GLN374      0.2616
    154  O         34.7040  -37.1460  -14.9570 O.2   374  GLN374     -0.2715
    155  CB        35.9890  -40.1890  -15.0540 C.3   374  GLN374      0.0408
    156  CG        36.7700  -41.1970  -15.9420 C.3   374  GLN374      0.0908
    157  CD        38.0740  -41.6980  -15.3070 C.2   374  GLN374      0.2608
    158  OE1       38.4300  -41.3420  -14.1670 O.2   374  GLN374     -0.2717
    159  NE2       38.8030  -42.5290  -16.0520 N.am  374  GLN374     -0.0878
    160  N         35.7140  -37.7320  -13.0260 N.am  375  TYR375     -0.1960
    161  CA        34.8760  -36.9000  -12.1720 C.3   375  TYR375      0.1771
    162  C         34.9710  -35.4040  -12.5630 C.2   375  TYR375      0.2619
    163  O         33.9530  -34.7270  -12.7380 O.2   375  TYR375     -0.2715
    164  CB        35.2470  -37.1350  -10.6990 C.3   375  TYR375      0.0574
    165  CG        34.7390  -36.0510   -9.7650 C.ar  375  TYR375     -0.0198
    166  CD1       33.4440  -36.1140   -9.2280 C.ar  375  TYR375     -0.0009
    167  CD2       35.5550  -34.9770   -9.4040 C.ar  375  TYR375     -0.0009
    168  CE1       32.9640  -35.1300   -8.3730 C.ar  375  TYR375      0.0417
    169  CE2       35.0800  -33.9680   -8.5350 C.ar  375  TYR375      0.0417
    170  CZ        33.7900  -34.0450   -8.0470 C.ar  375  TYR375      0.1957
    171  OH        33.3200  -33.0760   -7.2030 O.3   375  TYR375     -0.2866
    172  N         36.1930  -34.8960  -12.7100 N.am  376  HIS376     -0.1973
    173  CA        36.3680  -33.4990  -13.1450 C.3   376  HIS376      0.1656
    174  C         35.9670  -33.2800  -14.6120 C.2   376  HIS376      0.2291
    175  O         35.5360  -32.2100  -14.9740 O.2   376  HIS376     -0.2864
    176  CB        37.8030  -33.0180  -12.8700 C.3   376  HIS376      0.0771
    177  CG        38.0420  -32.7190  -11.4260 C.ar  376  HIS376      0.0820
    178  ND1       38.6610  -33.6050  -10.5720 N.ar  376  HIS376     -0.2267
    179  CD2       37.6720  -31.6580  -10.6700 C.ar  376  HIS376      0.1154
    180  CE1       38.6980  -33.0810   -9.3560 C.ar  376  HIS376      0.1986
    181  NE2       38.0790  -31.9120   -9.3840 N.ar  376  HIS376     -0.2212
@<TRIPOS>BOND
     1    43    42    2
     2    42    41    1
     3   159   157   am
     4   156   157    1
     5   156   155    1
     6    41    40    1
     7    41    44    1
     8   157   158    2
     9   146   145    2
    10   152   155    1
    11   152   151    1
    12   152   153    1
    13   175   174    2
    14   154   153    2
    15   145   151   am
    16   145   144    1
    17    44    45    1
    18   143   144    1
    19   174   173    1
    20   153   160   am
    21   144   147    1
    22    11    10   ar
    23    11     9   ar
    24    10     8   ar
    25     9     7   ar
    26    45    46   ar
    27    45    47   ar
    28     8     6   ar
    29   173   176    1
    30   173   172    1
    31   160   161    1
    32    29    28    2
    33   176   177    1
    34   147   148    1
    35    46    48   ar
    36   163   162    2
    37   172   162   am
    38   162   161    1
    39     7     6   ar
    40     6     5    1
    41   135   136    1
    42   161   164    1
    43   149   148   ar
    44    28    27    1
    45    47    50   ar
    46    47    49   ar
    47    50    52   ar
    48   148   150   ar
    49   138   137    2
    50     5     2    1
    51   137   136    1
    52   177   179   ar
    53   177   178   ar
    54    48    49   ar
    55   136   139    1
    56    49    51   ar
    57   103   104    1
    58    27    26    1
    59    27    30    1
    60    52    53   ar
    61   164   165    1
    62   179   181   ar
    63   104   105    1
    64   104   107    1
    65   178   180   ar
    66     1     2    1
    67     2     3    1
    68   106   105    2
    69   105   109   am
    70    97    98    2
    71    97    96    1
    72   139   140    1
    73   111   112    2
    74   111   110    1
    75   165   167   ar
    76   165   166   ar
    77    30    31    1
    78    36    38   ar
    79    36    33   ar
    80   107   108    1
    81    51    53   ar
    82    18    17    1
    83    23    22    2
    84    38    39   ar
    85   167   169   ar
    86   181   180   ar
    87   109   110    1
    88   121   122    1
    89   101   100   ar
    90   166   168   ar
    91     3     4    2
    92    96    95    1
    93    96    99    1
    94   141   140   ar
    95   110   113    1
    96   140   142   ar
    97    22    21    1
    98    33    31   ar
    99    33    35   ar
   100    31    32   ar
   101   169   170   ar
   102   168   170   ar
   103    16    17    1
   104    16    13    1
   105    17    19    1
   106    39    37   ar
   107   100    99    1
   108   100   102   ar
   109   170   171    1
   110    15    14    2
   111   122   123    1
   112   122   125    1
   113   132   134   ar
   114   132   130   ar
   115   113   114    1
   116   129   130   ar
   117   129   127   ar
   118   134   133   ar
   119   130   128   ar
   120   123   124    2
   121    35    37   ar
   122    35    34   ar
   123   127   126   ar
   124    32    34   ar
   125    14    13    1
   126   133   131   ar
   127   128   131   ar
   128   128   126   ar
   129    21    24    1
   130    21    20    1
   131   126   125    1
   132    13    12    1
   133    24    25    1
   134    57    56    2
   135   114   116   ar
   136   114   115   ar
   137   116   118   ar
   138   115   117   ar
   139    56    55    1
   140   118   119   ar
   141   117   119   ar
   142   119   120    1
   143    55    58    1
   144    55    54    1
   145    58    59    1
   146    59    61    1
   147    59    60    1
   148    65    64    2
   149    82    80   ar
   150    82    81   ar
   151    83    84    1
   152    80    78   ar
   153    66    67    1
   154    66    63    1
   155    64    63    1
   156    67    68    1
   157    81    79   ar
   158    63    62    1
   159    75    76    2
   160    75    74    1
   161    68    69    1
   162    85    84    1
   163    85    86    2
   164    84    87    1
   165    71    70    1
   166    78    79   ar
   167    78    77    1
   168    69    70    2
   169    70    72    1
   170    74    77    1
   171    74    73    1
   172    87    88    1
   173    89    91   ar
   174    89    88   ar
   175    91    93   ar
   176    88    90   ar
   177    93    94    1
   178    93    92   ar
   179    90    92   ar
