@<TRIPOS>MOLECULE
tmp/3sfyB03.pdb
 160 158 0 0 0
SMALL
GASTEIGER

@<TRIPOS>ATOM
      1  N         38.3790  -46.0050   -6.5550 N.3    80  LEU80      -0.1245
      2  CA        36.9930  -45.7950   -7.0020 C.3    80  LEU80       0.1561
      3  C         36.2010  -47.0890   -7.2790 C.2    80  LEU80       0.2260
      4  O         35.1740  -47.0670   -7.9730 O.2    80  LEU80      -0.2867
      5  CB        36.9650  -44.8960   -8.2440 C.3    80  LEU80       0.0270
      6  CG        37.5010  -43.4740   -8.0320 C.3    80  LEU80       0.0019
      7  CD1       37.7570  -42.7860   -9.3750 C.3    80  LEU80       0.0001
      8  CD2       36.5380  -42.6580   -7.1650 C.3    80  LEU80       0.0001
      9  N         32.6980  -46.8930   -6.4040 N.3    83  SER83      -0.1217
     10  CA        32.0600  -45.7900   -7.1020 C.3    83  SER83       0.1889
     11  C         31.9270  -46.0790   -8.6040 C.2    83  SER83       0.2288
     12  O         31.9000  -45.1510   -9.4260 O.2    83  SER83      -0.2866
     13  CB        32.9140  -44.5290   -6.9330 C.3    83  SER83       0.2089
     14  OG        32.8980  -44.0880   -5.5880 O.3    83  SER83      -0.2183
     15  N         29.3720  -44.1450  -10.6030 N.3    86  TRP86      -0.1241
     16  CA        29.7990  -42.7570  -10.8470 C.3    86  TRP86       0.1605
     17  C         30.6740  -42.6870  -12.0890 C.2    86  TRP86       0.2264
     18  O         30.5080  -41.7930  -12.9270 O.2    86  TRP86      -0.2867
     19  CB        30.5320  -42.1510   -9.6400 C.3    86  TRP86       0.0550
     20  CG        29.6040  -41.8080   -8.5540 C.ar   86  TRP86       0.0003
     21  CD1       29.4590  -42.4680   -7.3590 C.ar   86  TRP86       0.0946
     22  CD2       28.6260  -40.7580   -8.5580 C.ar   86  TRP86       0.0152
     23  NE1       28.4520  -41.8740   -6.6090 N.ar   86  TRP86      -0.2442
     24  CE2       27.9220  -40.8320   -7.3270 C.ar   86  TRP86       0.0810
     25  CE3       28.2680  -39.7650   -9.4840 C.ar   86  TRP86       0.0012
     26  CZ2       26.8960  -39.9370   -6.9940 C.ar   86  TRP86       0.0191
     27  CZ3       27.2500  -38.8770   -9.1490 C.ar   86  TRP86       0.0001
     28  CH2       26.5740  -38.9730   -7.9150 C.ar   86  TRP86       0.0015
     29  N         29.6980  -40.3120  -15.0130 N.3    90  TRP90      -0.1241
     30  CA        30.5600  -39.2210  -15.4690 C.3    90  TRP90       0.1605
     31  C         30.8510  -39.3890  -16.9540 C.2    90  TRP90       0.2264
     32  O         30.9520  -38.4110  -17.6720 O.2    90  TRP90      -0.2867
     33  CB        31.8530  -39.1640  -14.6540 C.3    90  TRP90       0.0550
     34  CG        31.6290  -38.8530  -13.1840 C.ar   90  TRP90       0.0003
     35  CD1       30.7280  -37.9790  -12.6570 C.ar   90  TRP90       0.0946
     36  CD2       32.3790  -39.3640  -12.0800 C.ar   90  TRP90       0.0152
     37  NE1       30.8480  -37.9340  -11.2920 N.ar   90  TRP90      -0.2442
     38  CE2       31.8580  -38.7730  -10.9110 C.ar   90  TRP90       0.0810
     39  CE3       33.4380  -40.2810  -11.9670 C.ar   90  TRP90       0.0012
     40  CZ2       32.3420  -39.0770   -9.6290 C.ar   90  TRP90       0.0191
     41  CZ3       33.9280  -40.5720  -10.6940 C.ar   90  TRP90       0.0001
     42  CH2       33.3660  -39.9790   -9.5420 C.ar   90  TRP90       0.0015
     43  N         24.0810  -43.0440   -3.1320 N.3   137  LEU137     -0.1245
     44  CA        24.8020  -42.2740   -4.1440 C.3   137  LEU137      0.1561
     45  C         24.9440  -43.0360   -5.4620 C.2   137  LEU137      0.2260
     46  O         24.5470  -42.5210   -6.5030 O.2   137  LEU137     -0.2867
     47  CB        26.1370  -41.7280   -3.6120 C.3   137  LEU137      0.0270
     48  CG        26.0400  -40.3720   -2.8830 C.3   137  LEU137      0.0019
     49  CD1       25.0020  -40.3850   -1.7180 C.3   137  LEU137      0.0001
     50  CD2       27.4400  -39.9410   -2.3690 C.3   137  LEU137      0.0001
     51  N         23.8200  -35.1220    0.6440 N.3   193  ARG193     -0.1245
     52  CA        24.0950  -35.8300   -0.6180 C.3   193  ARG193      0.1563
     53  C         23.1290  -37.0230   -0.7340 C.2   193  ARG193      0.2260
     54  O         22.5960  -37.2780   -1.7950 O.2   193  ARG193     -0.2867
     55  CB        25.5480  -36.3780   -0.6860 C.3   193  ARG193      0.0307
     56  CG        26.7210  -35.3830   -0.7370 C.3   193  ARG193      0.0489
     57  CD        28.0660  -36.1410   -0.4040 C.3   193  ARG193      0.2205
     58  NE        27.8300  -37.0730    0.7180 N.pl3 193  ARG193     -0.0865
     59  CZ        28.4460  -38.2500    0.9050 C.cat 193  ARG193      0.5346
     60  NH1       29.4010  -38.6690    0.0780 N.pl3 193  ARG193      0.1354
     61  NH2       28.1140  -39.0160    1.9380 N.pl3 193  ARG193      0.1354
     62  N         27.4190  -29.4570   -0.9630 N.3   253  TYR253     -0.1241
     63  CA        26.2600  -29.6170   -0.0980 C.3   253  TYR253      0.1605
     64  C         25.1800  -28.5750   -0.3620 C.2   253  TYR253      0.2264
     65  O         23.9930  -28.8510   -0.1400 O.2   253  TYR253     -0.2867
     66  CB        26.7050  -29.6090    1.3720 C.3   253  TYR253      0.0534
     67  CG        27.6610  -30.7480    1.6710 C.ar  253  TYR253     -0.0201
     68  CD1       27.3020  -32.0720    1.4080 C.ar  253  TYR253     -0.0009
     69  CD2       28.9120  -30.5050    2.2230 C.ar  253  TYR253     -0.0009
     70  CE1       28.1810  -33.1180    1.6780 C.ar  253  TYR253      0.0417
     71  CE2       29.7970  -31.5490    2.4930 C.ar  253  TYR253      0.0417
     72  CZ        29.4160  -32.8380    2.2290 C.ar  253  TYR253      0.1957
     73  OH        30.2960  -33.8460    2.5070 O.3   253  TYR253     -0.2866
     74  N         37.8520  -24.1080   -8.5370 N.3   307  ASP307     -0.1239
     75  CA        37.9670  -25.4820   -9.0020 C.3   307  ASP307      0.1674
     76  C         36.8610  -25.7260  -10.0300 C.2   307  ASP307      0.2266
     77  O         35.6800  -25.4560   -9.7730 O.2   307  ASP307     -0.2867
     78  CB        37.8880  -26.4300   -7.7890 C.3   307  ASP307      0.1410
     79  CG        37.7790  -27.9130   -8.1700 C.2   307  ASP307      0.3668
     80  OD1       37.4820  -28.2480   -9.3460 O.co2 307  ASP307     -0.2456
     81  OD2       37.9550  -28.7500   -7.2500 O.co2 307  ASP307     -0.2456
     82  N         35.1310  -28.2440  -10.9770 N.3   309  CYS309     -0.1221
     83  CA        33.9380  -29.0370  -10.6620 C.3   309  CYS309      0.1808
     84  C         32.8170  -28.1750  -10.0840 C.2   309  CYS309      0.2601
     85  O         31.6310  -28.5000  -10.2540 O.2   309  CYS309     -0.2717
     86  CB        34.2390  -30.2550   -9.7630 C.3   309  CYS309      0.0970
     87  SG        34.7900  -29.8910   -8.0640 S.3   309  CYS309     -0.0800
     88  N         33.1860  -27.0770   -9.4180 N.am  310  TYR310     -0.1976
     89  CA        32.1850  -26.1800   -8.8240 C.3   310  TYR310      0.1639
     90  C         31.3910  -25.4000   -9.8510 C.2   310  TYR310      0.2290
     91  O         30.3780  -24.7950   -9.5280 O.2   310  TYR310     -0.2864
     92  CB        32.8310  -25.2470   -7.7710 C.3   310  TYR310      0.0560
     93  CG        33.4100  -26.0480   -6.6220 C.ar  310  TYR310     -0.0198
     94  CD1       32.6230  -26.9820   -5.9430 C.ar  310  TYR310     -0.0009
     95  CD2       34.7410  -25.8950   -6.2350 C.ar  310  TYR310     -0.0009
     96  CE1       33.1500  -27.7670   -4.8980 C.ar  310  TYR310      0.0417
     97  CE2       35.2760  -26.6540   -5.1810 C.ar  310  TYR310      0.0417
     98  CZ        34.4900  -27.5950   -4.5360 C.ar  310  TYR310      0.1957
     99  OH        35.0020  -28.3360   -3.4880 O.3   310  TYR310     -0.2866
    100  N         28.5800  -27.6700   -9.2690 N.3   313  TRP313     -0.1241
    101  CA        27.9760  -27.6670   -7.9180 C.3   313  TRP313      0.1605
    102  C         27.4580  -26.2900   -7.5350 C.2   313  TRP313      0.2264
    103  O         26.3650  -26.1620   -6.9910 O.2   313  TRP313     -0.2867
    104  CB        28.9260  -28.1990   -6.8520 C.3   313  TRP313      0.0550
    105  CG        29.3960  -29.5750   -7.1620 C.ar  313  TRP313      0.0003
    106  CD1       30.6820  -29.9680   -7.4200 C.ar  313  TRP313      0.0946
    107  CD2       28.5820  -30.7380   -7.3100 C.ar  313  TRP313      0.0152
    108  NE1       30.7180  -31.3130   -7.6960 N.ar  313  TRP313     -0.2442
    109  CE2       29.4420  -31.8090   -7.6420 C.ar  313  TRP313      0.0810
    110  CE3       27.2080  -30.9880   -7.1750 C.ar  313  TRP313      0.0012
    111  CZ2       28.9720  -33.1200   -7.8330 C.ar  313  TRP313      0.0191
    112  CZ3       26.7340  -32.3010   -7.3870 C.ar  313  TRP313      0.0001
    113  CH2       27.6160  -33.3410   -7.7150 C.ar  313  TRP313      0.0015
    114  N         40.3800  -29.9770  -12.3340 N.3   363  ASP363     -0.1239
    115  CA        40.1270  -29.0420  -11.2460 C.3   363  ASP363      0.1674
    116  C         40.7160  -27.6530  -11.5790 C.2   363  ASP363      0.2266
    117  O         40.0040  -26.6430  -11.6460 O.2   363  ASP363     -0.2867
    118  CB        40.7400  -29.6800   -9.9740 C.3   363  ASP363      0.1410
    119  CG        41.0500  -28.6850   -8.8670 C.2   363  ASP363      0.3668
    120  OD1       40.7370  -27.4800   -8.9560 O.co2 363  ASP363     -0.2456
    121  OD2       41.6380  -29.1370   -7.8780 O.co2 363  ASP363     -0.2456
    122  N         40.3110  -35.8760  -14.9010 N.3   370  ASP370     -0.1225
    123  CA        39.7080  -37.1310  -14.4850 C.3   370  ASP370      0.1805
    124  C         38.2370  -37.1140  -14.9320 C.2   370  ASP370      0.2598
    125  O         37.7550  -36.0800  -15.4280 O.2   370  ASP370     -0.2718
    126  CB        39.8870  -37.3490  -12.9670 C.3   370  ASP370      0.1424
    127  CG        39.2090  -36.2690  -12.1300 C.2   370  ASP370      0.3668
    128  OD1       38.0130  -36.0060  -12.3400 O.co2 370  ASP370     -0.2456
    129  OD2       39.8780  -35.6700  -11.2580 O.co2 370  ASP370     -0.2456
    130  N         37.5470  -38.2480  -14.7950 N.am  371  GLN371     -0.1965
    131  CA        36.1690  -38.3860  -15.2900 C.3   371  GLN371      0.1733
    132  C         35.1990  -37.4720  -14.5380 C.2   371  GLN371      0.2616
    133  O         34.3130  -36.8840  -15.1370 O.2   371  GLN371     -0.2715
    134  CB        35.6780  -39.8500  -15.2330 C.3   371  GLN371      0.0408
    135  CG        36.4660  -40.8290  -16.1220 C.3   371  GLN371      0.0908
    136  CD        37.7440  -41.3160  -15.4590 C.2   371  GLN371      0.2608
    137  OE1       38.1640  -40.7990  -14.4000 O.2   371  GLN371     -0.2717
    138  NE2       38.3740  -42.3220  -16.0640 N.am  371  GLN371     -0.0878
    139  N         35.3870  -37.3660  -13.2260 N.am  372  TYR372     -0.1960
    140  CA        34.5770  -36.5170  -12.3760 C.3   372  TYR372      0.1771
    141  C         34.6690  -35.0220  -12.7700 C.2   372  TYR372      0.2619
    142  O         33.6470  -34.3270  -12.8850 O.2   372  TYR372     -0.2715
    143  CB        35.0010  -36.7350  -10.9190 C.3   372  TYR372      0.0574
    144  CG        34.5150  -35.6620   -9.9680 C.ar  372  TYR372     -0.0198
    145  CD1       33.2730  -35.7790   -9.3230 C.ar  372  TYR372     -0.0009
    146  CD2       35.3030  -34.5410   -9.6960 C.ar  372  TYR372     -0.0009
    147  CE1       32.8220  -34.7960   -8.4390 C.ar  372  TYR372      0.0417
    148  CE2       34.8540  -33.5390   -8.8170 C.ar  372  TYR372      0.0417
    149  CZ        33.6250  -33.6770   -8.1940 C.ar  372  TYR372      0.1957
    150  OH        33.1880  -32.6990   -7.3410 O.3   372  TYR372     -0.2866
    151  N         35.8900  -34.5260  -12.9590 N.am  373  HIS373     -0.1973
    152  CA        36.0530  -33.1200  -13.3570 C.3   373  HIS373      0.1656
    153  C         35.6370  -32.8690  -14.7940 C.2   373  HIS373      0.2291
    154  O         35.2110  -31.7650  -15.1370 O.2   373  HIS373     -0.2864
    155  CB        37.4780  -32.6180  -13.0820 C.3   373  HIS373      0.0771
    156  CG        37.7300  -32.3880  -11.6260 C.ar  373  HIS373      0.0820
    157  ND1       38.3410  -33.3250  -10.8170 N.ar  373  HIS373     -0.2267
    158  CD2       37.3790  -31.3590  -10.8170 C.ar  373  HIS373      0.1154
    159  CE1       38.3850  -32.8660   -9.5760 C.ar  373  HIS373      0.1986
    160  NE2       37.8030  -31.6750   -9.5480 N.ar  373  HIS373     -0.2212
@<TRIPOS>BOND
     1    32    31    2
     2    31    30    1
     3   135   136    1
     4   135   134    1
     5   138   136   am
     6    30    29    1
     7    30    33    1
     8   136   137    2
     9   125   124    2
    10   131   134    1
    11   131   130    1
    12   131   132    1
    13   133   132    2
    14   154   153    2
    15   124   130   am
    16   124   123    1
    17   122   123    1
    18   153   152    1
    19    33    34    1
    20   132   139   am
    21   123   126    1
    22   152   155    1
    23   152   151    1
    24   139   140    1
    25    34    35   ar
    26    34    36   ar
    27   155   156    1
    28   126   127    1
    29   151   141   am
    30    18    17    2
    31   142   141    2
    32   141   140    1
    33    35    37   ar
    34   140   143    1
    35   128   127   ar
    36   114   115    1
    37   127   129   ar
    38    17    16    1
    39    36    39   ar
    40    36    38   ar
    41    39    41   ar
    42   117   116    2
    43   156   158   ar
    44   156   157   ar
    45   116   115    1
    46    37    38   ar
    47   115   118    1
    48    82    83    1
    49   143   144    1
    50    38    40   ar
    51    16    15    1
    52    16    19    1
    53   158   160   ar
    54   157   159   ar
    55    41    42   ar
    56    83    84    1
    57    83    86    1
    58    85    84    2
    59    84    88   am
    60    76    77    2
    61    76    75    1
    62   118   119    1
    63   144   146   ar
    64   144   145   ar
    65    90    91    2
    66    90    89    1
    67    86    87    1
    68   146   148   ar
    69    19    20    1
    70    40    42   ar
    71   159   160   ar
    72    25    27   ar
    73    25    22   ar
    74    12    11    2
    75    88    89    1
    76     7     6    1
    77    80    79   ar
    78   145   147   ar
    79   100   101    1
    80    27    28   ar
    81    75    74    1
    82    75    78    1
    83   120   119   ar
    84   119   121   ar
    85    89    92    1
    86   148   149   ar
    87    11    10    1
    88    22    20   ar
    89    22    24   ar
    90    20    21   ar
    91   147   149   ar
    92     5     6    1
    93     5     2    1
    94   149   150    1
    95    79    78    1
    96    79    81   ar
    97     6     8    1
    98     4     3    2
    99   101   102    1
   100   101   104    1
   101    28    26   ar
   102   111   113   ar
   103   111   109   ar
   104    92    93    1
   105   113   112   ar
   106   108   109   ar
   107   108   106   ar
   108   109   107   ar
   109   102   103    2
   110   106   105   ar
   111   112   110   ar
   112    21    23   ar
   113    24    26   ar
   114    24    23   ar
   115   107   110   ar
   116   107   105   ar
   117     3     2    1
   118   105   104    1
   119    10    13    1
   120    10     9    1
   121     2     1    1
   122    13    14    1
   123    93    95   ar
   124    93    94   ar
   125    46    45    2
   126    95    97   ar
   127    94    96   ar
   128    45    44    1
   129    97    98   ar
   130    96    98   ar
   131    98    99    1
   132    44    47    1
   133    44    43    1
   134    47    48    1
   135    48    50    1
   136    48    49    1
   137    54    53    2
   138    62    63    1
   139    56    55    1
   140    56    57    1
   141    53    52    1
   142    55    52    1
   143    52    51    1
   144    57    58    1
   145    64    65    2
   146    64    63    1
   147    63    66    1
   148    60    59    1
   149    58    59    2
   150    59    61    1
   151    66    67    1
   152    68    67   ar
   153    68    70   ar
   154    67    69   ar
   155    70    72   ar
   156    69    71   ar
   157    72    71   ar
   158    72    73    1
