@<TRIPOS>MOLECULE
tmp/3sfyB04.pdb
 167 163 0 0 0
SMALL
GASTEIGER

@<TRIPOS>ATOM
      1  N         29.3720  -44.1450  -10.6030 N.3    86  TRP86      -0.1241
      2  CA        29.7990  -42.7570  -10.8470 C.3    86  TRP86       0.1605
      3  C         30.6740  -42.6870  -12.0890 C.2    86  TRP86       0.2264
      4  O         30.5080  -41.7930  -12.9270 O.2    86  TRP86      -0.2867
      5  CB        30.5320  -42.1510   -9.6400 C.3    86  TRP86       0.0550
      6  CG        29.6040  -41.8080   -8.5540 C.ar   86  TRP86       0.0003
      7  CD1       29.4590  -42.4680   -7.3590 C.ar   86  TRP86       0.0946
      8  CD2       28.6260  -40.7580   -8.5580 C.ar   86  TRP86       0.0152
      9  NE1       28.4520  -41.8740   -6.6090 N.ar   86  TRP86      -0.2442
     10  CE2       27.9220  -40.8320   -7.3270 C.ar   86  TRP86       0.0810
     11  CE3       28.2680  -39.7650   -9.4840 C.ar   86  TRP86       0.0012
     12  CZ2       26.8960  -39.9370   -6.9940 C.ar   86  TRP86       0.0191
     13  CZ3       27.2500  -38.8770   -9.1490 C.ar   86  TRP86       0.0001
     14  CH2       26.5740  -38.9730   -7.9150 C.ar   86  TRP86       0.0015
     15  N         24.0810  -43.0440   -3.1320 N.3   137  LEU137     -0.1245
     16  CA        24.8020  -42.2740   -4.1440 C.3   137  LEU137      0.1561
     17  C         24.9440  -43.0360   -5.4620 C.2   137  LEU137      0.2260
     18  O         24.5470  -42.5210   -6.5030 O.2   137  LEU137     -0.2867
     19  CB        26.1370  -41.7280   -3.6120 C.3   137  LEU137      0.0270
     20  CG        26.0400  -40.3720   -2.8830 C.3   137  LEU137      0.0019
     21  CD1       25.0020  -40.3850   -1.7180 C.3   137  LEU137      0.0001
     22  CD2       27.4400  -39.9410   -2.3690 C.3   137  LEU137      0.0001
     23  N         23.8200  -35.1220    0.6440 N.3   193  ARG193     -0.1245
     24  CA        24.0950  -35.8300   -0.6180 C.3   193  ARG193      0.1563
     25  C         23.1290  -37.0230   -0.7340 C.2   193  ARG193      0.2260
     26  O         22.5960  -37.2780   -1.7950 O.2   193  ARG193     -0.2867
     27  CB        25.5480  -36.3780   -0.6860 C.3   193  ARG193      0.0307
     28  CG        26.7210  -35.3830   -0.7370 C.3   193  ARG193      0.0489
     29  CD        28.0660  -36.1410   -0.4040 C.3   193  ARG193      0.2205
     30  NE        27.8300  -37.0730    0.7180 N.pl3 193  ARG193     -0.0865
     31  CZ        28.4460  -38.2500    0.9050 C.cat 193  ARG193      0.5346
     32  NH1       29.4010  -38.6690    0.0780 N.pl3 193  ARG193      0.1354
     33  NH2       28.1140  -39.0160    1.9380 N.pl3 193  ARG193      0.1354
     34  N         19.6820  -35.7660   -1.4430 N.3   196  TYR196     -0.1227
     35  CA        19.5690  -35.3300   -2.8210 C.3   196  TYR196      0.1736
     36  C         19.3980  -36.5320   -3.7400 C.2   196  TYR196      0.2595
     37  O         18.5000  -36.5510   -4.5960 O.2   196  TYR196     -0.2718
     38  CB        20.7910  -34.4930   -3.2530 C.3   196  TYR196      0.0548
     39  CG        20.8980  -34.3760   -4.7580 C.ar  196  TYR196     -0.0200
     40  CD1       20.0340  -33.5400   -5.4840 C.ar  196  TYR196     -0.0009
     41  CD2       21.8360  -35.1360   -5.4620 C.ar  196  TYR196     -0.0009
     42  CE1       20.1360  -33.4470   -6.8920 C.ar  196  TYR196      0.0417
     43  CE2       21.9440  -35.0560   -6.8470 C.ar  196  TYR196      0.0417
     44  CZ        21.0950  -34.2170   -7.5580 C.ar  196  TYR196      0.1957
     45  OH        21.2180  -34.1830   -8.9300 O.3   196  TYR196     -0.2866
     46  N         20.2670  -37.5250   -3.5710 N.am  197  CYS197     -0.1970
     47  CA        20.2890  -38.6790   -4.4710 C.3   197  CYS197      0.1712
     48  C         18.9960  -39.4870   -4.3470 C.2   197  CYS197      0.2296
     49  O         18.4560  -39.9680   -5.3450 O.2   197  CYS197     -0.2864
     50  CB        21.4950  -39.5670   -4.1630 C.3   197  CYS197      0.0983
     51  SG        23.0530  -38.8550   -4.7160 S.3   197  CYS197     -0.0798
     52  N         29.2270  -25.2490    1.7810 N.3   250  HIS250     -0.1241
     53  CA        30.0750  -25.8280    0.7360 C.3   250  HIS250      0.1621
     54  C         29.2720  -25.9900   -0.5500 C.2   250  HIS250      0.2264
     55  O         28.0860  -26.3690   -0.5150 O.2   250  HIS250     -0.2867
     56  CB        30.6500  -27.1900    1.1720 C.3   250  HIS250      0.0745
     57  CG        31.7280  -27.6850    0.2560 C.ar  250  HIS250      0.0817
     58  ND1       33.0700  -27.5010    0.5180 N.ar  250  HIS250     -0.2268
     59  CD2       31.6600  -28.2710   -0.9610 C.ar  250  HIS250      0.1154
     60  CE1       33.7830  -27.9840   -0.4840 C.ar  250  HIS250      0.1986
     61  NE2       32.9480  -28.4530   -1.3950 N.ar  250  HIS250     -0.2212
     62  N         29.2590  -28.3010   -2.8280 N.3   252  GLY252     -0.1210
     63  CA        28.6960  -29.6470   -3.0100 C.3   252  GLY252      0.1956
     64  C         27.4060  -29.8450   -2.2380 C.2   252  GLY252      0.2611
     65  O         26.4060  -30.3380   -2.7790 O.2   252  GLY252     -0.2717
     66  N         27.4190  -29.4570   -0.9630 N.am  253  TYR253     -0.1976
     67  CA        26.2600  -29.6170   -0.0980 C.3   253  TYR253      0.1639
     68  C         25.1800  -28.5750   -0.3620 C.2   253  TYR253      0.2290
     69  O         23.9930  -28.8510   -0.1400 O.2   253  TYR253     -0.2864
     70  CB        26.7050  -29.6090    1.3720 C.3   253  TYR253      0.0560
     71  CG        27.6610  -30.7480    1.6710 C.ar  253  TYR253     -0.0198
     72  CD1       27.3020  -32.0720    1.4080 C.ar  253  TYR253     -0.0009
     73  CD2       28.9120  -30.5050    2.2230 C.ar  253  TYR253     -0.0009
     74  CE1       28.1810  -33.1180    1.6780 C.ar  253  TYR253      0.0417
     75  CE2       29.7970  -31.5490    2.4930 C.ar  253  TYR253      0.0417
     76  CZ        29.4160  -32.8380    2.2290 C.ar  253  TYR253      0.1957
     77  OH        30.2960  -33.8460    2.5070 O.3   253  TYR253     -0.2866
     78  N         23.3250  -29.9070   -3.3730 N.3   256  CYS256     -0.1235
     79  CA        22.4340  -30.9750   -2.9310 C.3   256  CYS256      0.1677
     80  C         21.2480  -30.4800   -2.1120 C.2   256  CYS256      0.2270
     81  O         20.1330  -31.0150   -2.2430 O.2   256  CYS256     -0.2867
     82  CB        23.2080  -32.0310   -2.1430 C.3   256  CYS256      0.0956
     83  SG        24.3410  -32.9850   -3.1980 S.3   256  CYS256     -0.0801
     84  N         34.5380  -23.6250   -3.8520 N.3   300  GLY300     -0.1210
     85  CA        33.4950  -24.3980   -3.1570 C.3   300  GLY300      0.1956
     86  C         33.1260  -23.8800   -1.7710 C.2   300  GLY300      0.2611
     87  O         32.0930  -24.2600   -1.2110 O.2   300  GLY300     -0.2717
     88  N         33.9740  -23.0250   -1.2030 N.am  301  ARG301     -0.1979
     89  CA        33.7070  -22.4100    0.1000 C.3   301  ARG301      0.1597
     90  C         34.6360  -21.2070    0.2730 C.2   301  ARG301      0.2287
     91  O         35.6720  -21.0970   -0.3890 O.2   301  ARG301     -0.2864
     92  CB        33.8610  -23.4000    1.2920 C.3   301  ARG301      0.0334
     93  CG        35.0350  -24.3730    1.1880 C.3   301  ARG301      0.0492
     94  CD        35.1660  -25.2890    2.4240 C.3   301  ARG301      0.2205
     95  NE        36.0530  -26.4090    2.1040 N.pl3 301  ARG301     -0.0865
     96  CZ        36.7300  -27.1060    3.0040 C.cat 301  ARG301      0.5346
     97  NH1       36.6390  -26.8060    4.2990 N.pl3 301  ARG301      0.1354
     98  NH2       37.5200  -28.0870    2.6050 N.pl3 301  ARG301      0.1354
     99  N         38.7890  -20.6430    0.1970 N.3   304  LYS304     -0.1231
    100  CA        39.5170  -21.7490   -0.4480 C.3   304  LYS304      0.1693
    101  C         39.6530  -21.4360   -1.9290 C.2   304  LYS304      0.2591
    102  O         39.4150  -20.3120   -2.3230 O.2   304  LYS304     -0.2718
    103  CB        38.8190  -23.0920   -0.2370 C.3   304  LYS304      0.0285
    104  CG        38.6500  -23.4480    1.2410 C.3   304  LYS304      0.0035
    105  CD        39.7510  -24.3620    1.6820 C.3   304  LYS304      0.0206
    106  CE        39.4360  -25.7640    1.4050 C.3   304  LYS304      0.1093
    107  NZ        40.6830  -26.5300    1.1480 N.3   304  LYS304     -0.1314
    108  N         40.0080  -22.4300   -2.7420 N.am  305  LEU305     -0.1980
    109  CA        40.4400  -22.1990   -4.1280 C.3   305  LEU305      0.1596
    110  C         39.3940  -22.5530   -5.1720 C.2   305  LEU305      0.2287
    111  O         38.5770  -23.4760   -4.9800 O.2   305  LEU305     -0.2864
    112  CB        41.7200  -22.9950   -4.4200 C.3   305  LEU305      0.0297
    113  CG        42.9050  -22.8610   -3.4490 C.3   305  LEU305      0.0022
    114  CD1       43.9660  -23.9370   -3.7410 C.3   305  LEU305      0.0001
    115  CD2       43.5090  -21.4480   -3.5130 C.3   305  LEU305      0.0001
    116  N         37.8520  -24.1080   -8.5370 N.3   307  ASP307     -0.1239
    117  CA        37.9670  -25.4820   -9.0020 C.3   307  ASP307      0.1674
    118  C         36.8610  -25.7260  -10.0300 C.2   307  ASP307      0.2266
    119  O         35.6800  -25.4560   -9.7730 O.2   307  ASP307     -0.2867
    120  CB        37.8880  -26.4300   -7.7890 C.3   307  ASP307      0.1410
    121  CG        37.7790  -27.9130   -8.1700 C.2   307  ASP307      0.3668
    122  OD1       37.4820  -28.2480   -9.3460 O.co2 307  ASP307     -0.2456
    123  OD2       37.9550  -28.7500   -7.2500 O.co2 307  ASP307     -0.2456
    124  N         35.1310  -28.2440  -10.9770 N.3   309  CYS309     -0.1221
    125  CA        33.9380  -29.0370  -10.6620 C.3   309  CYS309      0.1808
    126  C         32.8170  -28.1750  -10.0840 C.2   309  CYS309      0.2601
    127  O         31.6310  -28.5000  -10.2540 O.2   309  CYS309     -0.2717
    128  CB        34.2390  -30.2550   -9.7630 C.3   309  CYS309      0.0970
    129  SG        34.7900  -29.8910   -8.0640 S.3   309  CYS309     -0.0800
    130  N         33.1860  -27.0770   -9.4180 N.am  310  TYR310     -0.1976
    131  CA        32.1850  -26.1800   -8.8240 C.3   310  TYR310      0.1639
    132  C         31.3910  -25.4000   -9.8510 C.2   310  TYR310      0.2290
    133  O         30.3780  -24.7950   -9.5280 O.2   310  TYR310     -0.2864
    134  CB        32.8310  -25.2470   -7.7710 C.3   310  TYR310      0.0560
    135  CG        33.4100  -26.0480   -6.6220 C.ar  310  TYR310     -0.0198
    136  CD1       32.6230  -26.9820   -5.9430 C.ar  310  TYR310     -0.0009
    137  CD2       34.7410  -25.8950   -6.2350 C.ar  310  TYR310     -0.0009
    138  CE1       33.1500  -27.7670   -4.8980 C.ar  310  TYR310      0.0417
    139  CE2       35.2760  -26.6540   -5.1810 C.ar  310  TYR310      0.0417
    140  CZ        34.4900  -27.5950   -4.5360 C.ar  310  TYR310      0.1957
    141  OH        35.0020  -28.3360   -3.4880 O.3   310  TYR310     -0.2866
    142  N         28.5800  -27.6700   -9.2690 N.3   313  TRP313     -0.1241
    143  CA        27.9760  -27.6670   -7.9180 C.3   313  TRP313      0.1605
    144  C         27.4580  -26.2900   -7.5350 C.2   313  TRP313      0.2264
    145  O         26.3650  -26.1620   -6.9910 O.2   313  TRP313     -0.2867
    146  CB        28.9260  -28.1990   -6.8520 C.3   313  TRP313      0.0550
    147  CG        29.3960  -29.5750   -7.1620 C.ar  313  TRP313      0.0003
    148  CD1       30.6820  -29.9680   -7.4200 C.ar  313  TRP313      0.0946
    149  CD2       28.5820  -30.7380   -7.3100 C.ar  313  TRP313      0.0152
    150  NE1       30.7180  -31.3130   -7.6960 N.ar  313  TRP313     -0.2442
    151  CE2       29.4420  -31.8090   -7.6420 C.ar  313  TRP313      0.0810
    152  CE3       27.2080  -30.9880   -7.1750 C.ar  313  TRP313      0.0012
    153  CZ2       28.9720  -33.1200   -7.8330 C.ar  313  TRP313      0.0191
    154  CZ3       26.7340  -32.3010   -7.3870 C.ar  313  TRP313      0.0001
    155  CH2       27.6160  -33.3410   -7.7150 C.ar  313  TRP313      0.0015
    156  N         35.3870  -37.3660  -13.2260 N.3   372  TYR372     -0.1241
    157  CA        34.5770  -36.5170  -12.3760 C.3   372  TYR372      0.1605
    158  C         34.6690  -35.0220  -12.7700 C.2   372  TYR372      0.2264
    159  O         33.6470  -34.3270  -12.8850 O.2   372  TYR372     -0.2867
    160  CB        35.0010  -36.7350  -10.9190 C.3   372  TYR372      0.0534
    161  CG        34.5150  -35.6620   -9.9680 C.ar  372  TYR372     -0.0201
    162  CD1       33.2730  -35.7790   -9.3230 C.ar  372  TYR372     -0.0009
    163  CD2       35.3030  -34.5410   -9.6960 C.ar  372  TYR372     -0.0009
    164  CE1       32.8220  -34.7960   -8.4390 C.ar  372  TYR372      0.0417
    165  CE2       34.8540  -33.5390   -8.8170 C.ar  372  TYR372      0.0417
    166  CZ        33.6250  -33.6770   -8.1940 C.ar  372  TYR372      0.1957
    167  OH        33.1880  -32.6990   -7.3410 O.3   372  TYR372     -0.2866
@<TRIPOS>BOND
     1   156   157    1
     2     4     3    2
     3   159   158    2
     4   158   157    1
     5   157   160    1
     6     3     2    1
     7   124   125    1
     8   160   161    1
     9     2     1    1
    10     2     5    1
    11   125   126    1
    12   125   128    1
    13   127   126    2
    14   126   130   am
    15   118   119    2
    16   118   117    1
    17   161   163   ar
    18   161   162   ar
    19   132   133    2
    20   132   131    1
    21   128   129    1
    22   163   165   ar
    23     5     6    1
    24    11    13   ar
    25    11     8   ar
    26   130   131    1
    27   122   121   ar
    28   162   164   ar
    29   142   143    1
    30    13    14   ar
    31   117   116    1
    32   117   120    1
    33    45    44    1
    34   131   134    1
    35   165   166   ar
    36     8     6   ar
    37     8    10   ar
    38     6     7   ar
    39   164   166   ar
    40   166   167    1
    41   121   120    1
    42   121   123   ar
    43   143   144    1
    44   143   146    1
    45    14    12   ar
    46   153   155   ar
    47   153   151   ar
    48   134   135    1
    49   155   154   ar
    50   150   151   ar
    51   150   148   ar
    52   151   149   ar
    53    44    42   ar
    54    44    43   ar
    55   144   145    2
    56   148   147   ar
    57   154   152   ar
    58     7     9   ar
    59    10    12   ar
    60    10     9   ar
    61   149   152   ar
    62   149   147   ar
    63   147   146    1
    64    42    40   ar
    65    43    41   ar
    66   135   137   ar
    67   135   136   ar
    68    18    17    2
    69   137   139   ar
    70   136   138   ar
    71    40    39   ar
    72    17    16    1
    73    41    39   ar
    74    49    48    2
    75   139   140   ar
    76   110   111    2
    77   110   109    1
    78   138   140   ar
    79    39    38    1
    80    51    50    1
    81    37    36    2
    82   140   141    1
    83    47    48    1
    84    47    50    1
    85    47    46    1
    86   112   109    1
    87   112   113    1
    88    16    19    1
    89    16    15    1
    90   109   108    1
    91    84    85    1
    92   114   113    1
    93    36    46   am
    94    36    35    1
    95    19    20    1
    96   115   113    1
    97    78    79    1
    98    38    35    1
    99    83    82    1
   100    85    86    1
   101    63    62    1
   102    63    64    1
   103    79    82    1
   104    79    80    1
   105    20    22    1
   106    20    21    1
   107    35    34    1
   108    65    64    2
   109   108   101   am
   110   102   101    2
   111    81    80    2
   112    64    66   am
   113   101   100    1
   114    26    25    2
   115    86    87    2
   116    86    88   am
   117    61    59   ar
   118    61    60   ar
   119    88    89    1
   120    66    67    1
   121    59    57   ar
   122    28    27    1
   123    28    29    1
   124    25    24    1
   125    27    24    1
   126    24    23    1
   127    54    55    2
   128    54    53    1
   129    60    58   ar
   130   100   103    1
   131   100    99    1
   132    29    30    1
   133    91    90    2
   134    68    69    2
   135    68    67    1
   136   103   104    1
   137    67    70    1
   138    32    31    1
   139    89    90    1
   140    89    92    1
   141    57    58   ar
   142    57    56    1
   143    30    31    2
   144    53    56    1
   145    53    52    1
   146    31    33    1
   147   107   106    1
   148    93    92    1
   149    93    94    1
   150   104   105    1
   151    70    71    1
   152   106   105    1
   153    72    71   ar
   154    72    74   ar
   155    71    73   ar
   156    74    76   ar
   157    95    94    1
   158    95    96    2
   159    73    75   ar
   160    76    75   ar
   161    76    77    1
   162    98    96    1
   163    96    97    1
