@<TRIPOS>MOLECULE
tmp/3sg0A00.pdb
 118 111 0 0 0
SMALL
GASTEIGER

@<TRIPOS>ATOM
      1  N         12.7930  -13.7710   -7.1630 N.3    18  LEU18      -0.1245
      2  CA        13.8990  -14.4130   -7.8650 C.3    18  LEU18       0.1561
      3  C         13.5900  -15.8880   -8.1210 C.2    18  LEU18       0.2260
      4  O         13.7510  -16.3870   -9.2370 O.2    18  LEU18      -0.2867
      5  CB        15.2260  -14.2540   -7.1060 C.3    18  LEU18       0.0270
      6  CG        15.7390  -12.8210   -6.9060 C.3    18  LEU18       0.0019
      7  CD1       15.0640  -12.1070   -5.7260 C.3    18  LEU18       0.0001
      8  CD2       17.2500  -12.8020   -6.7260 C.3    18  LEU18       0.0001
      9  N         18.8430  -19.2460   -5.1690 N.3    72  SER72      -0.1202
     10  CA        18.5540  -17.9560   -5.7820 C.3    72  SER72       0.2020
     11  C         19.2810  -16.7990   -5.1210 C.2    72  SER72       0.2619
     12  O         19.4600  -15.7480   -5.7410 O.2    72  SER72      -0.2717
     13  CB        17.0620  -17.6620   -5.6630 C.3    72  SER72       0.2103
     14  OG        16.2560  -18.7320   -6.1250 O.3    72  SER72      -0.2182
     15  N         19.6290  -16.9770   -3.8490 N.am   73  LEU73      -0.1965
     16  CA        20.1670  -15.9030   -3.0160 C.3    73  LEU73       0.1728
     17  C         21.5270  -16.2950   -2.4810 C.2    73  LEU73       0.2616
     18  O         21.8150  -17.4820   -2.3100 O.2    73  LEU73      -0.2715
     19  CB        19.2580  -15.6140   -1.8190 C.3    73  LEU73       0.0311
     20  CG        17.7540  -15.5590   -2.0550 C.3    73  LEU73       0.0022
     21  CD1       17.0210  -15.2160   -0.7540 C.3    73  LEU73       0.0001
     22  CD2       17.4070  -14.5740   -3.1510 C.3    73  LEU73       0.0001
     23  N         22.3430  -15.2970   -2.1800 N.am   74  THR74      -0.1951
     24  CA        23.6880  -15.5320   -1.6940 C.3    74  THR74       0.1897
     25  C         23.7440  -16.2570   -0.3400 C.2    74  THR74       0.2313
     26  O         24.4360  -17.2660   -0.2220 O.2    74  THR74      -0.2863
     27  CB        24.5020  -14.2240   -1.6830 C.3    74  THR74       0.1794
     28  OG1       24.7200  -13.7950   -3.0310 O.3    74  THR74      -0.2208
     29  CG2       25.8390  -14.4290   -1.0120 C.3    74  THR74       0.0378
     30  N         22.8950  -17.2100   -7.6580 N.3    93  ALA93      -0.1231
     31  CA        23.0230  -15.9970   -6.8660 C.3    93  ALA93       0.1694
     32  C         24.2020  -15.1450   -7.3430 C.2    93  ALA93       0.2591
     33  O         24.9140  -15.5270   -8.2780 O.2    93  ALA93      -0.2718
     34  CB        23.1400  -16.3620   -5.3980 C.3    93  ALA93       0.0304
     35  N         24.4040  -13.9950   -6.7030 N.am   94  ALA94      -0.1980
     36  CA        25.2180  -12.9300   -7.3000 C.3    94  ALA94       0.1597
     37  C         26.5650  -12.6240   -6.6520 C.2    94  ALA94       0.2287
     38  O         27.4590  -12.1130   -7.3300 O.2    94  ALA94      -0.2864
     39  CB        24.4030  -11.6350   -7.3690 C.3    94  ALA94       0.0319
     40  N         25.4830  -15.4370  -13.0280 N.3   112  VAL112     -0.1245
     41  CA        25.2180  -14.0210  -12.7570 C.3   112  VAL112      0.1561
     42  C         26.5650  -13.3360  -12.5800 C.2   112  VAL112      0.2260
     43  O         27.4080  -13.8450  -11.8560 O.2   112  VAL112     -0.2867
     44  CB        24.3710  -13.8430  -11.4850 C.3   112  VAL112      0.0252
     45  CG1       24.2260  -12.3650  -11.1480 C.3   112  VAL112      0.0019
     46  CG2       23.0050  -14.4840  -11.6640 C.3   112  VAL112      0.0019
     47  N         25.3670  -10.5530    0.3220 N.3   142  TYR142     -0.1241
     48  CA        25.0150   -9.8400   -0.9060 C.3   142  TYR142      0.1605
     49  C         25.1480   -8.3320   -0.7110 C.2   142  TYR142      0.2264
     50  O         25.8590   -7.6500   -1.4560 O.2   142  TYR142     -0.2867
     51  CB        23.5980  -10.1830   -1.3610 C.3   142  TYR142      0.0534
     52  CG        23.1640   -9.3890   -2.5760 C.ar  142  TYR142     -0.0201
     53  CD1       23.6390   -9.7110   -3.8440 C.ar  142  TYR142     -0.0009
     54  CD2       22.2950   -8.3120   -2.4550 C.ar  142  TYR142     -0.0009
     55  CE1       23.2570   -8.9870   -4.9480 C.ar  142  TYR142      0.0417
     56  CE2       21.9100   -7.5760   -3.5580 C.ar  142  TYR142      0.0417
     57  CZ        22.3940   -7.9250   -4.8060 C.ar  142  TYR142      0.1957
     58  OH        22.0280   -7.2290   -5.9390 O.3   142  TYR142     -0.2866
     59  N         16.0650   -8.8660    5.0390 N.3   169  ARG169     -0.1245
     60  CA        15.2160   -8.9250    3.8470 C.3   169  ARG169      0.1563
     61  C         13.7190   -8.8350    4.1330 C.2   169  ARG169      0.2260
     62  O         12.9770   -8.2350    3.3490 O.2   169  ARG169     -0.2867
     63  CB        15.5280  -10.1640    2.9940 C.3   169  ARG169      0.0307
     64  CG        16.9790  -10.2690    2.5600 C.3   169  ARG169      0.0489
     65  CD        17.1540  -11.1370    1.3000 C.3   169  ARG169      0.2205
     66  NE        18.5720  -11.2740    0.9820 N.pl3 169  ARG169     -0.0865
     67  CZ        19.0880  -11.4510   -0.2300 C.cat 169  ARG169      0.5346
     68  NH1       18.3150  -11.5370   -1.3090 N.pl3 169  ARG169      0.1354
     69  NH2       20.4040  -11.5340   -0.3530 N.pl3 169  ARG169      0.1354
     70  N         17.4760   -6.7310   -3.1920 N.3   194  ALA194     -0.1245
     71  CA        17.0510   -7.6030   -4.2800 C.3   194  ALA194      0.1562
     72  C         15.6070   -8.0170   -4.0840 C.2   194  ALA194      0.2260
     73  O         15.1350   -8.1520   -2.9420 O.2   194  ALA194     -0.2867
     74  CB        17.9280   -8.8290   -4.3680 C.3   194  ALA194      0.0290
     75  N         21.3580   -4.9630   -9.6460 N.3   218  HIS218     -0.1226
     76  CA        20.6610   -5.8930  -10.5240 C.3   218  HIS218      0.1752
     77  C         19.7050   -6.8400   -9.7960 C.2   218  HIS218      0.2596
     78  O         18.9780   -7.5930  -10.4410 O.2   218  HIS218     -0.2718
     79  CB        21.6340   -6.6600  -11.4270 C.3   218  HIS218      0.0759
     80  CG        22.6600   -7.4750  -10.6970 C.ar  218  HIS218      0.0818
     81  ND1       23.5730   -8.2570  -11.3730 N.ar  218  HIS218     -0.2268
     82  CD2       22.9330   -7.6330   -9.3770 C.ar  218  HIS218      0.1154
     83  CE1       24.3630   -8.8600  -10.5040 C.ar  218  HIS218      0.1986
     84  NE2       23.9990   -8.4990   -9.2850 N.ar  218  HIS218     -0.2212
     85  N         19.6930   -6.8030   -8.4630 N.am  219  GLY219     -0.1957
     86  CA        18.6640   -7.4950   -7.7020 C.3   219  GLY219      0.1869
     87  C         17.2670   -6.9460   -7.9590 C.2   219  GLY219      0.2309
     88  O         16.2840   -7.6120   -7.6160 O.2   219  GLY219     -0.2863
     89  N         22.7010   -6.6100  -16.3300 N.3   241  GLU241     -0.1245
     90  CA        23.0030   -7.5640  -17.3870 C.3   241  GLU241      0.1567
     91  C         22.4660   -7.1580  -18.7490 C.2   241  GLU241      0.2260
     92  O         21.4880   -6.4180  -18.8540 O.2   241  GLU241     -0.2867
     93  CB        22.4220   -8.9390  -17.0340 C.3   241  GLU241      0.0388
     94  CG        23.1310   -9.6650  -15.9060 C.3   241  GLU241      0.1160
     95  CD        22.8460   -9.0830  -14.5330 C.2   241  GLU241      0.3649
     96  OE1       21.6640   -8.9740  -14.1360 O.co2 241  GLU241     -0.2457
     97  OE2       23.8370   -8.7630  -13.8460 O.co2 241  GLU241     -0.2457
     98  N         15.1150  -13.2310  -13.6070 N.3   277  PHE277     -0.1241
     99  CA        15.6180  -14.2420  -12.6880 C.3   277  PHE277      0.1605
    100  C         15.4900  -15.6570  -13.2260 C.2   277  PHE277      0.2264
    101  O         16.3120  -16.5090  -12.9090 O.2   277  PHE277     -0.2867
    102  CB        15.0630  -14.0280  -11.2810 C.3   277  PHE277      0.0534
    103  CG        15.5140  -12.7290  -10.7160 C.ar  277  PHE277     -0.0203
    104  CD1       14.6840  -11.6160  -10.7050 C.ar  277  PHE277     -0.0042
    105  CD2       16.8300  -12.5800  -10.3140 C.ar  277  PHE277     -0.0042
    106  CE1       15.1580  -10.3900  -10.2510 C.ar  277  PHE277     -0.0003
    107  CE2       17.3030  -11.3560   -9.8660 C.ar  277  PHE277     -0.0003
    108  CZ        16.4710  -10.2630   -9.8390 C.ar  277  PHE277     -0.0000
    109  N         18.5890  -16.9200  -15.0990 N.3   280  HIS280     -0.1241
    110  CA        19.7420  -17.4340  -14.3600 C.3   280  HIS280      0.1621
    111  C         19.7110  -18.9530  -14.3380 C.2   280  HIS280      0.2264
    112  O         20.7640  -19.6000  -14.3530 O.2   280  HIS280     -0.2867
    113  CB        19.8040  -16.7860  -12.9760 C.3   280  HIS280      0.0745
    114  CG        19.9320  -15.3090  -13.0890 C.ar  280  HIS280      0.0817
    115  ND1       19.4950  -14.3830  -12.1610 N.ar  280  HIS280     -0.2268
    116  CD2       20.4360  -14.6040  -14.1240 C.ar  280  HIS280      0.1154
    117  CE1       19.7440  -13.1660  -12.6260 C.ar  280  HIS280      0.1986
    118  NE2       20.3200  -13.2780  -13.8090 N.ar  280  HIS280     -0.2212
@<TRIPOS>BOND
     1    92    91    2
     2    91    90    1
     3    90    93    1
     4    90    89    1
     5    93    94    1
     6    94    95    1
     7   109   110    1
     8    95    96   ar
     9    95    97   ar
    10   110   111    1
    11   110   113    1
    12   112   111    2
    13   116   118   ar
    14   116   114   ar
    15   118   117   ar
    16    98    99    1
    17   100   101    2
    18   100    99    1
    19   114   113    1
    20   114   115   ar
    21    40    41    1
    22    41    42    1
    23    41    44    1
    24    99   102    1
    25   117   115   ar
    26    42    43    2
    27    46    44    1
    28    44    45    1
    29    79    80    1
    30    79    76    1
    31    81    80   ar
    32    81    83   ar
    33   102   103    1
    34   103   104   ar
    35   103   105   ar
    36   104   106   ar
    37    80    82   ar
    38    76    77    1
    39    76    75    1
    40    83    84   ar
    41    78    77    2
    42   105   107   ar
    43   106   108   ar
    44   107   108   ar
    45    77    85   am
    46    82    84   ar
    47     4     3    2
    48    85    86    1
    49    33    32    2
    50     3     2    1
    51    87    86    1
    52    87    88    2
    53     2     1    1
    54     2     5    1
    55    30    31    1
    56    39    36    1
    57    32    31    1
    58    32    35   am
    59    38    37    2
    60    36    35    1
    61    36    37    1
    62     5     6    1
    63     6     8    1
    64     6     7    1
    65    31    34    1
    66    14    13    1
    67    58    57    1
    68    10    13    1
    69    10     9    1
    70    10    11    1
    71    12    11    2
    72    11    15   am
    73    55    57   ar
    74    55    53   ar
    75    57    56   ar
    76    74    71    1
    77    71    72    1
    78    71    70    1
    79    72    73    2
    80    15    16    1
    81    53    52   ar
    82    56    54   ar
    83    22    20    1
    84    28    27    1
    85    16    17    1
    86    16    19    1
    87    52    54   ar
    88    52    51    1
    89    17    18    2
    90    17    23   am
    91    23    24    1
    92    20    19    1
    93    20    21    1
    94    24    27    1
    95    24    25    1
    96    27    29    1
    97    50    49    2
    98    51    48    1
    99    68    67    1
   100    48    49    1
   101    48    47    1
   102    69    67    1
   103    25    26    2
   104    67    66    2
   105    66    65    1
   106    65    64    1
   107    64    63    1
   108    63    60    1
   109    62    61    2
   110    60    61    1
   111    60    59    1
