@<TRIPOS>MOLECULE
tmp/3sg1B00.pdb
 84 81 0 0 0
SMALL
GASTEIGER

@<TRIPOS>ATOM
      1  N         24.7490   13.3380   45.6930 N.3     7  ARG7       -0.1231
      2  CA        24.1990   12.0080   45.9590 C.3     7  ARG7        0.1694
      3  C         22.9050   12.2290   46.7420 C.2     7  ARG7        0.2593
      4  O         22.8670   13.0550   47.6610 O.2     7  ARG7       -0.2718
      5  CB        25.1700   11.1080   46.7290 C.3     7  ARG7        0.0321
      6  CG        24.6570    9.6780   46.8280 C.3     7  ARG7        0.0489
      7  CD        25.6270    8.6970   47.4680 C.3     7  ARG7        0.2205
      8  NE        25.9270    9.0050   48.8650 N.pl3   7  ARG7       -0.0865
      9  CZ        26.6560    8.2270   49.6670 C.cat   7  ARG7        0.5346
     10  NH1       27.1560    7.0770   49.2230 N.pl3   7  ARG7        0.1354
     11  NH2       26.8780    8.5910   50.9230 N.pl3   7  ARG7        0.1354
     12  N         21.8440   11.5150   46.3730 N.am    8  GLY8       -0.1942
     13  CA        20.5510   11.6740   47.0440 C.3     8  GLY8        0.2014
     14  C         20.4090   10.8500   48.3080 C.2     8  GLY8        0.2639
     15  O         21.3320   10.1490   48.7040 O.2     8  GLY8       -0.2714
     16  N         19.2540   10.9590   48.9580 N.am    9  GLY9       -0.1939
     17  CA        18.9710   10.1770   50.1580 C.3     9  GLY9        0.2014
     18  C         18.9710   10.9070   51.4780 C.2     9  GLY9        0.2639
     19  O         18.6350   10.3180   52.5060 O.2     9  GLY9       -0.2714
     20  N         19.3370   12.1820   51.4640 N.am   10  LYS10      -0.1963
     21  CA        19.3870   12.9740   52.6850 C.3    10  LYS10       0.1728
     22  C         18.2450   13.9840   52.8110 C.2    10  LYS10       0.2616
     23  O         17.8760   14.6410   51.8330 O.2    10  LYS10      -0.2715
     24  CB        20.7210   13.7300   52.7460 C.3    10  LYS10       0.0311
     25  CG        21.9510   12.8590   52.9880 C.3    10  LYS10       0.0038
     26  CD        21.9730   12.3150   54.4140 C.3    10  LYS10       0.0206
     27  CE        23.2300   11.5070   54.6950 C.3    10  LYS10       0.1093
     28  NZ        23.3020   11.0590   56.1240 N.3    10  LYS10      -0.1314
     29  N         17.6810   14.0840   54.0160 N.am   11  ARG11      -0.1977
     30  CA        16.6450   15.0650   54.3080 C.3    11  ARG11       0.1597
     31  C         17.3840   16.3220   54.7170 C.2    11  ARG11       0.2287
     32  O         18.0470   16.3380   55.7550 O.2    11  ARG11      -0.2864
     33  CB        15.7510   14.6490   55.4790 C.3    11  ARG11       0.0334
     34  CG        14.7580   13.5680   55.2090 C.3    11  ARG11       0.0492
     35  CD        13.9690   13.2620   56.4800 C.3    11  ARG11       0.2205
     36  NE        12.8900   12.3040   56.2400 N.pl3  11  ARG11      -0.0865
     37  CZ        11.6410   12.6340   55.9130 C.cat  11  ARG11       0.5346
     38  NH1       10.7390   11.6810   55.7160 N.pl3  11  ARG11       0.1354
     39  NH2       11.2820   13.9060   55.7810 N.pl3  11  ARG11       0.1354
     40  N         11.5110   19.1520   48.2040 N.3   246  ILE246     -0.1231
     41  CA        11.8780   17.9730   47.4270 C.3   246  ILE246      0.1692
     42  C         12.4790   16.8530   48.2940 C.2   246  ILE246      0.2592
     43  O         12.2710   15.6740   48.0040 O.2   246  ILE246     -0.2718
     44  CB        12.8430   18.3640   46.2820 C.3   246  ILE246      0.0266
     45  CG1       12.7790   17.3570   45.1380 C.3   246  ILE246      0.0019
     46  CG2       14.2450   18.5520   46.8150 C.3   246  ILE246      0.0020
     47  CD1       13.5160   17.8250   43.8860 C.3   246  ILE246      0.0001
     48  N         13.2030   17.2220   49.3560 N.am  247  THR247     -0.1953
     49  CA        13.8210   16.2380   50.2550 C.3   247  THR247      0.1897
     50  C         13.0280   16.0070   51.5470 C.2   247  THR247      0.2313
     51  O         13.5000   15.3100   52.4470 O.2   247  THR247     -0.2863
     52  CB        15.2500   16.6630   50.6700 C.3   247  THR247      0.1794
     53  OG1       15.1910   17.8740   51.4330 O.3   247  THR247     -0.2208
     54  CG2       16.1230   16.8630   49.4610 C.3   247  THR247      0.0378
     55  N         19.4880   15.8090   44.5080 N.3   382  LEU382     -0.1231
     56  CA        19.2260   15.5870   45.9360 C.3   382  LEU382      0.1693
     57  C         18.2900   14.4190   46.1700 C.2   382  LEU382      0.2592
     58  O         18.3050   13.8260   47.2500 O.2   382  LEU382     -0.2718
     59  CB        18.5930   16.8220   46.5860 C.3   382  LEU382      0.0284
     60  CG        19.4020   18.1110   46.6640 C.3   382  LEU382      0.0019
     61  CD1       18.5290   19.2220   47.2150 C.3   382  LEU382      0.0001
     62  CD2       20.6480   17.9130   47.5180 C.3   382  LEU382      0.0001
     63  N         17.4690   14.0980   45.1720 N.am  383  VAL383     -0.1966
     64  CA        16.5070   13.0030   45.3040 C.3   383  VAL383      0.1727
     65  C         16.6670   11.9240   44.2460 C.2   383  VAL383      0.2617
     66  O         15.7620   11.1230   44.0390 O.2   383  VAL383     -0.2715
     67  CB        15.0500   13.5290   45.2850 C.3   383  VAL383      0.0290
     68  CG1       14.8040   14.4380   46.4850 C.3   383  VAL383      0.0023
     69  CG2       14.7530   14.2490   43.9860 C.3   383  VAL383      0.0023
     70  N         17.8190   11.8960   43.5870 N.am  384  SER384     -0.1936
     71  CA        18.0860   10.8890   42.5610 C.3   384  SER384      0.2055
     72  C         18.9490    9.7720   43.1220 C.2   384  SER384      0.2642
     73  O         19.7040    9.9740   44.0720 O.2   384  SER384     -0.2714
     74  CB        18.7790   11.5140   41.3560 C.3   384  SER384      0.2130
     75  OG        17.9510   12.4920   40.7580 O.3   384  SER384     -0.2179
     76  N         18.8300    8.5940   42.5250 N.am  385  GLU385     -0.1976
     77  CA        19.5950    7.4350   42.9530 C.3   385  GLU385      0.1602
     78  C         20.9620    7.4720   42.2700 C.2   385  GLU385      0.2287
     79  O         21.0600    7.7910   41.0900 O.2   385  GLU385     -0.2864
     80  CB        18.8330    6.1530   42.6080 C.3   385  GLU385      0.0415
     81  CG        19.4800    4.8810   43.1190 C.3   385  GLU385      0.1163
     82  CD        18.6340    3.6500   42.8590 C.2   385  GLU385      0.3649
     83  OE1       19.0910    2.5370   43.1960 O.co2 385  GLU385     -0.2457
     84  OE2       17.5120    3.7970   42.3210 O.co2 385  GLU385     -0.2457
@<TRIPOS>BOND
     1    75    74    1
     2    79    78    2
     3    74    71    1
     4    78    77    1
     5    84    82   ar
     6    76    77    1
     7    76    72   am
     8    71    72    1
     9    71    70    1
    10    80    77    1
    11    80    81    1
    12    82    81    1
    13    82    83   ar
    14    72    73    2
    15    70    65   am
    16    47    45    1
    17    69    67    1
    18    66    65    2
    19    65    64    1
    20    55    56    1
    21    45    44    1
    22    63    64    1
    23    63    57   am
    24    67    64    1
    25    67    68    1
    26     1     2    1
    27    56    57    1
    28    56    59    1
    29     2     5    1
    30     2     3    1
    31    57    58    2
    32    44    46    1
    33    44    41    1
    34    12     3   am
    35    12    13    1
    36    59    60    1
    37    60    61    1
    38    60    62    1
    39     5     6    1
    40     3     4    2
    41     6     7    1
    42    13    14    1
    43    41    40    1
    44    41    42    1
    45     7     8    1
    46    43    42    2
    47    42    48   am
    48    14    15    2
    49    14    16   am
    50     8     9    2
    51    16    17    1
    52    10     9    1
    53    48    49    1
    54    54    52    1
    55     9    11    1
    56    17    18    1
    57    49    52    1
    58    49    50    1
    59    52    53    1
    60    20    18   am
    61    20    21    1
    62    18    19    2
    63    50    51    2
    64    23    22    2
    65    21    24    1
    66    21    22    1
    67    24    25    1
    68    22    29   am
    69    25    26    1
    70    29    30    1
    71    30    31    1
    72    30    33    1
    73    26    27    1
    74    27    28    1
    75    31    32    2
    76    34    33    1
    77    34    35    1
    78    38    37    1
    79    39    37    1
    80    37    36    2
    81    36    35    1
