@<TRIPOS>MOLECULE
tmp/3sgaA00.pdb
 173 170 0 0 0
SMALL
GASTEIGER

@<TRIPOS>ATOM
      1  N        -10.3600   18.2600   33.5520 N.3    13  ARG13      -0.1231
      2  CA       -10.3250   16.9870   32.8010 C.3    13  ARG13       0.1694
      3  C        -10.5090   17.2050   31.3050 C.2    13  ARG13       0.2592
      4  O        -11.3070   18.0420   30.8750 O.2    13  ARG13      -0.2718
      5  CB       -11.4060   16.0450   33.3560 C.3    13  ARG13       0.0321
      6  CG       -11.4290   14.6760   32.6620 C.3    13  ARG13       0.0489
      7  CD       -12.3630   13.7340   33.3660 C.3    13  ARG13       0.2205
      8  NE       -13.7120   14.2570   33.4210 N.pl3  13  ARG13      -0.0865
      9  CZ       -14.6670   14.2210   32.4900 C.cat  13  ARG13       0.5346
     10  NH1      -14.5810   13.7190   31.2620 N.pl3  13  ARG13       0.1354
     11  NH2      -15.8480   14.7600   32.8370 N.pl3  13  ARG13       0.1354
     12  N         -9.7620   16.5000   30.5030 N.am   14  CYS14      -0.1970
     13  CA        -9.8000   16.4860   29.0280 C.3    14  CYS14       0.1712
     14  C         -9.7000   15.0000   28.6370 C.2    14  CYS14       0.2296
     15  O         -9.7020   14.1950   29.5920 O.2    14  CYS14      -0.2864
     16  CB        -8.6770   17.3410   28.4510 C.3    14  CYS14       0.0983
     17  SG        -9.1630   19.1200   28.5900 S.3    14  CYS14      -0.0798
     18  N         -6.6570   23.8870   23.9020 N.3    33  HIS33      -0.1226
     19  CA        -7.4520   24.5890   24.9460 C.3    33  HIS33       0.1752
     20  C         -7.2310   23.8910   26.2740 C.2    33  HIS33       0.2596
     21  O         -7.3510   24.5130   27.3770 O.2    33  HIS33      -0.2718
     22  CB        -8.9340   24.7150   24.5560 C.3    33  HIS33       0.0759
     23  CG        -9.7720   25.3560   25.6400 C.ar   33  HIS33       0.0818
     24  ND1      -10.5970   24.6340   26.4890 N.ar   33  HIS33      -0.2268
     25  CD2       -9.8880   26.6780   25.9760 C.ar   33  HIS33       0.1154
     26  CE1      -11.1700   25.5200   27.3040 C.ar   33  HIS33       0.1986
     27  NE2      -10.7640   26.7600   27.0250 N.ar   33  HIS33      -0.2212
     28  N         -6.8670   22.5960   26.2080 N.am   34  CYS34      -0.1970
     29  CA        -6.5570   21.8350   27.4050 C.3    34  CYS34       0.1712
     30  C         -5.0900   22.1240   27.8350 C.2    34  CYS34       0.2296
     31  O         -4.9130   22.4920   28.9850 O.2    34  CYS34      -0.2864
     32  CB        -6.6860   20.3020   27.2260 C.3    34  CYS34       0.0983
     33  SG        -8.4370   19.8420   26.8410 S.3    34  CYS34      -0.0798
     34  N         -3.4010   27.3580   20.9930 N.3    51  PHE51      -0.1241
     35  CA        -4.8780   27.6680   21.0510 C.3    51  PHE51       0.1605
     36  C         -5.0000   29.1580   21.4080 C.2    51  PHE51       0.2264
     37  O         -4.2640   29.6010   22.3200 O.2    51  PHE51      -0.2867
     38  CB        -5.6160   26.7710   22.0520 C.3    51  PHE51       0.0534
     39  CG        -7.0940   27.1570   22.2070 C.ar   51  PHE51      -0.0203
     40  CD1       -8.0270   26.6120   21.3420 C.ar   51  PHE51      -0.0042
     41  CD2       -7.4610   28.0960   23.1630 C.ar   51  PHE51      -0.0042
     42  CE1       -9.3650   27.0180   21.4360 C.ar   51  PHE51      -0.0003
     43  CE2       -8.8010   28.4830   23.3170 C.ar   51  PHE51      -0.0003
     44  CZ        -9.7280   27.9240   22.4210 C.ar   51  PHE51      -0.0000
     45  N         -6.1140   24.2540   17.6320 N.3    55  ASP55      -0.1295
     46  CA        -6.5920   23.6510   18.8790 C.3    55  ASP55       0.1359
     47  C         -5.8220   22.3090   19.0640 C.3    55  ASP55       0.2015
     48  O         -6.5310   21.2990   18.9580 O.3    55  ASP55      -0.2188
     49  CB        -8.1150   23.5540   18.9850 C.3    55  ASP55       0.1357
     50  CG        -8.5700   23.2950   20.3950 C.2    55  ASP55       0.3664
     51  OD1       -9.7770   23.1850   20.7010 O.co2  55  ASP55      -0.2456
     52  OD2       -7.6960   23.1840   21.3040 O.co2  55  ASP55      -0.2456
     53  N        -14.6820   28.6020   13.7650 N.3   114  VAL114     -0.1231
     54  CA       -15.4720   28.5020   14.9940 C.3   114  VAL114      0.1692
     55  C        -15.1020   29.5780   15.9950 C.2   114  VAL114      0.2592
     56  O        -13.9670   29.6910   16.4630 O.2   114  VAL114     -0.2718
     57  CB       -15.3590   27.1100   15.6440 C.3   114  VAL114      0.0266
     58  CG1      -16.3170   26.9310   16.8240 C.3   114  VAL114      0.0020
     59  CG2      -15.5300   25.9910   14.6040 C.3   114  VAL114      0.0020
     60  N        -16.1350   30.3460   16.2920 N.am  115  ASN115     -0.1960
     61  CA       -16.0570   31.4520   17.2550 C.3   115  ASN115      0.1819
     62  C        -16.5420   30.9700   18.6120 C.2   115  ASN115      0.2621
     63  O        -17.7330   30.6670   18.8110 O.2   115  ASN115     -0.2715
     64  CB       -16.8220   32.6770   16.7440 C.3   115  ASN115      0.1195
     65  CG       -16.5280   33.8760   17.6220 C.2   115  ASN115      0.2630
     66  OD1      -16.2300   33.8180   18.8230 O.2   115  ASN115     -0.2716
     67  ND2      -16.5900   35.0360   16.9770 N.am  115  ASN115     -0.0877
     68  N        -15.5990   30.8970   19.5380 N.am  116  TYR116     -0.1974
     69  CA       -15.8170   30.4740   20.9140 C.3   116  TYR116      0.1639
     70  C        -15.9600   31.7020   21.8490 C.2   116  TYR116      0.2290
     71  O        -15.7820   31.5530   23.0720 O.2   116  TYR116     -0.2864
     72  CB       -14.7070   29.5570   21.4190 C.3   116  TYR116      0.0560
     73  CG       -14.6250   28.1810   20.8130 C.ar  116  TYR116     -0.0198
     74  CD1      -13.3760   27.6610   20.4350 C.ar  116  TYR116     -0.0009
     75  CD2      -15.7500   27.3710   20.6260 C.ar  116  TYR116     -0.0009
     76  CE1      -13.2270   26.3690   19.9030 C.ar  116  TYR116      0.0417
     77  CE2      -15.6330   26.0780   20.0700 C.ar  116  TYR116      0.0417
     78  CZ       -14.3700   25.5970   19.7280 C.ar  116  TYR116      0.1957
     79  OH       -14.2760   24.3380   19.1980 O.3   116  TYR116     -0.2866
     80  N        -13.1810   32.8180   24.4130 N.3   119  SER119     -0.1217
     81  CA       -12.0540   31.8990   24.1770 C.3   119  SER119      0.1889
     82  C        -11.3520   32.0940   22.8480 C.2   119  SER119      0.2288
     83  O        -10.2570   31.5040   22.6530 O.2   119  SER119     -0.2866
     84  CB       -12.5000   30.4380   24.3380 C.3   119  SER119      0.2089
     85  OG       -12.7580   30.2490   25.7200 O.3   119  SER119     -0.2183
     86  N        -21.0400   15.6620   21.6810 N.3   132  ALA132     -0.1231
     87  CA       -19.9350   15.6710   22.6310 C.3   132  ALA132      0.1694
     88  C        -20.3590   16.5690   23.7980 C.2   132  ALA132      0.2592
     89  O        -21.2870   17.3780   23.6180 O.2   132  ALA132     -0.2718
     90  CB       -18.5610   16.1260   22.0890 C.3   132  ALA132      0.0304
     91  N        -19.6750   16.4250   24.8970 N.am  133  GLN133     -0.1966
     92  CA       -19.9400   17.2580   26.1120 C.3   133  GLN133      0.1718
     93  C        -18.6300   17.6730   26.7320 C.2   133  GLN133      0.2458
     94  O        -17.5580   17.1600   26.3530 O.2   133  GLN133     -0.2730
     95  CB       -20.8500   16.4460   27.0510 C.3   133  GLN133      0.0407
     96  CG       -22.1050   15.9810   26.3240 C.3   133  GLN133      0.0908
     97  CD       -23.1810   15.2470   27.0930 C.2   133  GLN133      0.2608
     98  OE1      -24.2760   14.9400   26.5720 O.2   133  GLN133     -0.2717
     99  NE2      -22.9290   14.9360   28.3510 N.am  133  GLN133     -0.0878
    100  N        -18.6740   18.6450   27.6410 N.am  134  PRO134     -0.2716
    101  CA       -17.4920   19.1440   28.3550 C.3   134  PRO134      0.1536
    102  C        -16.8040   17.9220   28.9590 C.2   134  PRO134      0.2599
    103  O        -17.4540   17.0500   29.5770 O.2   134  PRO134     -0.2715
    104  CB       -18.0420   20.1020   29.4260 C.3   134  PRO134      0.0310
    105  CG       -19.2940   20.6240   28.7170 C.3   134  PRO134      0.0237
    106  CD       -19.9090   19.3520   28.0990 C.3   134  PRO134      0.0939
    107  N        -15.4730   17.9030   28.7570 N.am  135  GLY135     -0.1941
    108  CA       -14.6510   16.7820   29.2120 C.3   135  GLY135      0.2014
    109  C        -14.2130   15.9320   28.0100 C.2   135  GLY135      0.2639
    110  O        -13.1870   15.2380   28.1240 O.2   135  GLY135     -0.2714
    111  N        -14.9580   15.9610   26.9330 N.am  136  ASP136     -0.1957
    112  CA       -14.6560   15.1960   25.7380 C.3   136  ASP136      0.1840
    113  C        -13.5250   15.8140   24.8950 C.2   136  ASP136      0.2622
    114  O        -13.0050   15.1140   24.0120 O.2   136  ASP136     -0.2715
    115  CB       -15.9200   15.0230   24.8700 C.3   136  ASP136      0.1450
    116  CG       -16.8970   13.9810   25.4410 C.2   136  ASP136      0.3671
    117  OD1      -18.0810   14.0190   25.0760 O.co2 136  ASP136     -0.2456
    118  OD2      -16.4710   13.1450   26.2300 O.co2 136  ASP136     -0.2456
    119  N        -13.2010   17.0660   25.1550 N.am  137  SER137     -0.1950
    120  CA       -12.1650   17.7700   24.3600 C.3   137  SER137      0.1924
    121  C        -10.7990   17.0180   24.3890 C.2   137  SER137      0.2314
    122  O        -10.4800   16.5130   25.4680 O.2   137  SER137     -0.2863
    123  CB       -11.9790   19.1930   24.8610 C.3   137  SER137      0.2116
    124  OG       -13.1780   19.9330   24.6160 O.3   137  SER137     -0.2180
    125  N        -11.0360   16.3090   19.3200 N.3   151  THR151     -0.1203
    126  CA       -12.2540   17.0640   19.6830 C.3   151  THR151      0.1994
    127  C        -11.8980   18.4640   20.2160 C.2   151  THR151      0.2619
    128  O        -11.1450   18.5760   21.1870 O.2   151  THR151     -0.2717
    129  CB       -13.1350   16.3210   20.7470 C.3   151  THR151      0.1784
    130  OG1      -13.1640   14.9200   20.2900 O.3   151  THR151     -0.2211
    131  CG2      -14.5220   16.9600   20.8790 C.3   151  THR151      0.0376
    132  N        -12.5270   19.4560   19.5990 N.am  152  SER152     -0.1937
    133  CA       -12.3190   20.8570   20.0280 C.3   152  SER152      0.2055
    134  C        -13.4920   21.4150   20.8150 C.2   152  SER152      0.2644
    135  O        -13.3310   21.9410   21.9570 O.2   152  SER152     -0.2714
    136  CB       -12.0410   21.7190   18.8000 C.3   152  SER152      0.2130
    137  OG       -11.8320   23.0880   19.1810 O.3   152  SER152     -0.2179
    138  N        -14.6680   21.3330   20.2060 N.am  153  GLY153     -0.1939
    139  CA       -15.8810   21.9160   20.8730 C.3   153  GLY153      0.2014
    140  C        -17.1140   21.6510   20.0020 C.2   153  GLY153      0.2639
    141  O        -17.1320   20.8070   19.1070 O.2   153  GLY153     -0.2714
    142  N        -18.1500   22.4120   20.3380 N.am  154  GLY154     -0.1939
    143  CA       -19.4240   22.3240   19.5860 C.3   154  GLY154      0.2014
    144  C        -20.5550   22.9250   20.4180 C.2   154  GLY154      0.2640
    145  O        -20.3490   23.6860   21.3820 O.2   154  GLY154     -0.2714
    146  N        -21.7240   22.5410   19.9630 N.am  155  SER155     -0.1935
    147  CA       -23.0080   22.9850   20.5840 C.3   155  SER155      0.2055
    148  C        -23.8050   21.7080   20.8220 C.2   155  SER155      0.2643
    149  O        -23.5670   20.6170   20.2080 O.2   155  SER155     -0.2714
    150  CB       -23.6350   24.0190   19.6870 C.3   155  SER155      0.2130
    151  OG       -23.9440   23.3590   18.4650 O.3   155  SER155     -0.2179
    152  N        -24.7340   21.8270   21.7490 N.am  156  GLY156     -0.1954
    153  CA       -25.6230   20.7350   22.1360 C.3   156  GLY156      0.1869
    154  C        -25.0080   19.8030   23.1470 C.2   156  GLY156      0.2309
    155  O        -24.0950   20.1660   23.9350 O.2   156  GLY156     -0.2863
    156  N        -20.3150   19.2400   16.3320 N.3   164  THR164     -0.1203
    157  CA       -18.9960   19.3230   17.0030 C.3   164  THR164      0.1994
    158  C        -17.9590   19.5530   15.9210 C.2   164  THR164      0.2617
    159  O        -18.1080   19.2330   14.7310 O.2   164  THR164     -0.2717
    160  CB       -18.7870   18.1430   17.9860 C.3   164  THR164      0.1784
    161  OG1      -18.7590   16.9880   17.0950 O.3   164  THR164     -0.2211
    162  CG2      -19.8390   18.0550   19.0910 C.3   164  THR164      0.0376
    163  N        -16.8800   20.2100   16.4160 N.am  165  PHE165     -0.1975
    164  CA       -15.7310   20.5970   15.6130 C.3   165  PHE165      0.1639
    165  C        -14.4440   19.8840   16.0900 C.2   165  PHE165      0.2290
    166  O        -14.3140   19.7310   17.3020 O.2   165  PHE165     -0.2864
    167  CB       -15.5250   22.1290   15.7320 C.3   165  PHE165      0.0560
    168  CG       -16.8620   22.7510   15.3400 C.ar  165  PHE165     -0.0200
    169  CD1      -17.7920   23.0680   16.3080 C.ar  165  PHE165     -0.0042
    170  CD2      -17.1010   22.9690   13.9980 C.ar  165  PHE165     -0.0042
    171  CE1      -19.0140   23.6580   15.9220 C.ar  165  PHE165     -0.0003
    172  CE2      -18.3150   23.5510   13.5810 C.ar  165  PHE165     -0.0003
    173  CZ       -19.2780   23.8880   14.5650 C.ar  165  PHE165     -0.0000
@<TRIPOS>BOND
     1   172   170   ar
     2   172   173   ar
     3    53    54    1
     4   170   168   ar
     5   173   171   ar
     6    59    57    1
     7   159   158    2
     8    54    57    1
     9    54    55    1
    10   168   167    1
    11   168   169   ar
    12   164   167    1
    13   164   165    1
    14   164   163    1
    15    57    58    1
    16   158   163   am
    17   158   157    1
    18   171   169   ar
    19    55    60   am
    20    55    56    2
    21   165   166    2
    22    60    61    1
    23   156   157    1
    24    64    61    1
    25    64    65    1
    26    67    65   am
    27   157   160    1
    28   161   160    1
    29    61    62    1
    30    65    66    2
    31    45    46    1
    32   160   162    1
    33   151   150    1
    34    62    63    2
    35    62    68   am
    36   136   137    1
    37   136   133    1
    38    46    49    1
    39    46    47    1
    40    48    47    1
    41    49    50    1
    42   141   140    2
    43    79    78    1
    44   125   126    1
    45    68    69    1
    46   143   142    1
    47   143   144    1
    48   132   133    1
    49   132   127   am
    50   126   127    1
    51   126   129    1
    52   150   147    1
    53    78    76   ar
    54    78    77   ar
    55    76    74   ar
    56   146   144   am
    57   146   147    1
    58   140   142   am
    59   140   139    1
    60   133   134    1
    61    77    75   ar
    62   138   134   am
    63   138   139    1
    64   149   148    2
    65   127   128    2
    66   130   129    1
    67    50    51   ar
    68    50    52   ar
    69   144   145    2
    70    74    73   ar
    71   147   148    1
    72    75    73   ar
    73   129   131    1
    74    73    72    1
    75   134   135    2
    76   148   152   am
    77    69    72    1
    78    69    70    1
    79    34    35    1
    80    35    36    1
    81    35    38    1
    82    40    42   ar
    83    40    39   ar
    84    36    37    2
    85    42    44   ar
    86    86    87    1
    87   152   153    1
    88    70    71    2
    89    38    39    1
    90    90    87    1
    91   153   154    1
    92    39    41   ar
    93    44    43   ar
    94    87    88    1
    95    83    82    2
    96    82    81    1
    97   154   155    2
    98    41    43   ar
    99    89    88    2
   100    88    91   am
   101    18    19    1
   102   114   113    2
   103    81    84    1
   104    81    80    1
   105    84    85    1
   106   120   121    1
   107   120   123    1
   108   120   119    1
   109   121   122    2
   110    22    19    1
   111    22    23    1
   112   124   123    1
   113   115   116    1
   114   115   112    1
   115   113   119   am
   116   113   112    1
   117    91    92    1
   118    19    20    1
   119   117   116   ar
   120   116   118   ar
   121    23    25   ar
   122    23    24   ar
   123   112   111    1
   124    25    27   ar
   125    92    93    1
   126    92    95    1
   127    28    20   am
   128    28    29    1
   129    20    21    2
   130    96    95    1
   131    96    97    1
   132    94    93    2
   133    24    26   ar
   134    98    97    2
   135    93   100   am
   136    33    32    1
   137    33    17    1
   138   111   109   am
   139    27    26   ar
   140    97    99   am
   141    32    29    1
   142    29    30    1
   143   100   106    1
   144   100   101    1
   145    30    31    2
   146   109   110    2
   147   109   108    1
   148   106   105    1
   149   101   102    1
   150   101   104    1
   151    16    17    1
   152    16    13    1
   153    14    13    1
   154    14    15    2
   155   105   104    1
   156   107   102   am
   157   107   108    1
   158   102   103    2
   159    13    12    1
   160    12     3   am
   161     4     3    2
   162    10     9    1
   163     3     2    1
   164     9    11    1
   165     9     8    2
   166     6     5    1
   167     6     7    1
   168     2     5    1
   169     2     1    1
   170     7     8    1
