@<TRIPOS>MOLECULE
tmp/3sgeC00.pdb
 142 140 0 0 0
SMALL
GASTEIGER

@<TRIPOS>ATOM
      1  N         29.2620   24.5720   62.7230 N.3    31  ASP31      -0.1239
      2  CA        30.5260   24.6270   63.4580 C.3    31  ASP31       0.1674
      3  C         31.1730   23.2340   63.5630 C.2    31  ASP31       0.2266
      4  O         30.4890   22.2330   63.3670 O.2    31  ASP31      -0.2867
      5  CB        30.3110   25.2430   64.8570 C.3    31  ASP31       0.1410
      6  CG        31.4450   26.1180   65.3640 C.2    31  ASP31       0.3668
      7  OD1       31.3280   26.6410   66.4920 O.co2  31  ASP31      -0.2456
      8  OD2       32.4500   26.2770   64.6340 O.co2  31  ASP31      -0.2456
      9  N         31.9900   21.4030   66.0260 N.3    33  ASP33      -0.1239
     10  CA        31.3680   20.5510   67.0380 C.3    33  ASP33       0.1674
     11  C         30.0230   19.9730   66.5140 C.2    33  ASP33       0.2266
     12  O         29.3310   19.2590   67.2400 O.2    33  ASP33      -0.2867
     13  CB        31.1700   21.3300   68.3540 C.3    33  ASP33       0.1410
     14  CG        30.1570   22.4810   68.3300 C.2    33  ASP33       0.3668
     15  OD1       29.6880   22.8560   67.2150 O.co2  33  ASP33      -0.2456
     16  OD2       29.8550   23.0290   69.4200 O.co2  33  ASP33      -0.2456
     17  N         27.3790   21.8310   65.7290 N.3    35  LYS35      -0.1245
     18  CA        26.2850   22.7430   66.1030 C.3    35  LYS35       0.1561
     19  C         26.2750   24.0210   65.2710 C.2    35  LYS35       0.2260
     20  O         27.3110   24.4050   64.7190 O.2    35  LYS35      -0.2867
     21  CB        26.3180   23.0720   67.5960 C.3    35  LYS35       0.0271
     22  CG        25.9830   21.9000   68.4990 C.3    35  LYS35       0.0035
     23  CD        26.0800   22.3280   69.9550 C.3    35  LYS35       0.0206
     24  CE        25.6650   21.2300   70.9000 C.3    35  LYS35       0.1093
     25  NZ        25.9340   21.6000   72.3140 N.3    35  LYS35      -0.1314
     26  N         25.3860   27.9710   65.5750 N.3    37  TYR37      -0.1241
     27  CA        25.1620   29.0760   66.5010 C.3    37  TYR37       0.1605
     28  C         24.5200   30.2750   65.8010 C.2    37  TYR37       0.2264
     29  O         25.1780   31.2740   65.5480 O.2    37  TYR37      -0.2867
     30  CB        26.4730   29.4360   67.2610 C.3    37  TYR37       0.0534
     31  CG        26.9810   28.2880   68.1140 C.ar   37  TYR37      -0.0201
     32  CD1       26.5710   28.1420   69.4340 C.ar   37  TYR37      -0.0009
     33  CD2       27.8120   27.3030   67.5740 C.ar   37  TYR37      -0.0009
     34  CE1       26.9940   27.0640   70.2110 C.ar   37  TYR37       0.0417
     35  CE2       28.2210   26.2020   68.3340 C.ar   37  TYR37       0.0417
     36  CZ        27.8130   26.0930   69.6540 C.ar   37  TYR37       0.1957
     37  OH        28.2190   25.0330   70.4270 O.3    37  TYR37      -0.2866
     38  N         21.4730   33.0040   66.2260 N.3    39  ASN39      -0.1240
     39  CA        20.5980   33.6280   67.2200 C.3    39  ASN39       0.1653
     40  C         19.6630   34.6320   66.5570 C.2    39  ASN39       0.2266
     41  O         20.0330   35.1920   65.5440 O.2    39  ASN39      -0.2867
     42  CB        21.4600   34.3750   68.2820 C.3    39  ASN39       0.1155
     43  CG        22.5260   33.4980   68.8970 C.2    39  ASN39       0.2627
     44  OD1       22.2240   32.5600   69.6300 O.2    39  ASN39      -0.2716
     45  ND2       23.7880   33.7580   68.5710 N.am   39  ASN39      -0.0877
     46  N         17.1550   38.5470   73.2910 N.3    51  ARG51      -0.1245
     47  CA        17.2770   37.3460   72.4610 C.3    51  ARG51       0.1563
     48  C         15.9760   36.5470   72.5320 C.2    51  ARG51       0.2260
     49  O         15.3890   36.4150   73.6110 O.2    51  ARG51      -0.2867
     50  CB        18.4680   36.4440   72.8840 C.3    51  ARG51       0.0307
     51  CG        18.8230   35.3780   71.8080 C.3    51  ARG51       0.0489
     52  CD        20.0430   34.5220   72.1590 C.3    51  ARG51       0.2205
     53  NE        19.7490   33.5910   73.2490 N.pl3  51  ARG51      -0.0865
     54  CZ        20.6190   32.7240   73.7590 C.cat  51  ARG51       0.5346
     55  NH1       21.8620   32.6620   73.2870 N.pl3  51  ARG51       0.1354
     56  NH2       20.2550   31.9150   74.7510 N.pl3  51  ARG51       0.1354
     57  N         17.9680   30.7970   70.0080 N.3    54  TYR54      -0.1227
     58  CA        19.3880   30.4200   69.9390 C.3    54  TYR54       0.1736
     59  C         19.5180   29.0450   69.3210 C.2    54  TYR54       0.2595
     60  O         18.5210   28.3210   69.2460 O.2    54  TYR54      -0.2718
     61  CB        20.0610   30.4620   71.3150 C.3    54  TYR54       0.0548
     62  CG        19.5520   29.4540   72.3190 C.ar   54  TYR54      -0.0200
     63  CD1       18.3740   29.6780   73.0230 C.ar   54  TYR54      -0.0009
     64  CD2       20.2910   28.3130   72.6270 C.ar   54  TYR54      -0.0009
     65  CE1       17.8950   28.7520   73.9460 C.ar   54  TYR54       0.0417
     66  CE2       19.8240   27.3790   73.5540 C.ar   54  TYR54       0.0417
     67  CZ        18.6390   27.6200   74.2330 C.ar   54  TYR54       0.1957
     68  OH        18.1610   26.7240   75.1570 O.3    54  TYR54      -0.2866
     69  N         20.7340   28.6820   68.8560 N.am   55  LEU55      -0.1980
     70  CA        21.0120   27.3800   68.2180 C.3    55  LEU55       0.1596
     71  C         19.9800   27.0380   67.1010 C.2    55  LEU55       0.2287
     72  O         19.4470   25.9120   67.0170 O.2    55  LEU55      -0.2864
     73  CB        21.1430   26.2610   69.2740 C.3    55  LEU55       0.0297
     74  CG        22.4440   26.2520   70.1120 C.3    55  LEU55       0.0022
     75  CD1       22.2780   25.3950   71.3490 C.3    55  LEU55       0.0001
     76  CD2       23.6340   25.7560   69.3000 C.3    55  LEU55       0.0001
     77  N         22.1530   36.9750   64.4940 N.3    94  TRP94      -0.1227
     78  CA        23.5080   37.1350   65.0170 C.3    94  TRP94       0.1737
     79  C         24.1490   35.7600   65.0200 C.2    94  TRP94       0.2595
     80  O         23.6600   34.8630   65.7120 O.2    94  TRP94      -0.2718
     81  CB        23.4400   37.6920   66.4600 C.3    94  TRP94       0.0564
     82  CG        24.7540   38.1070   67.0990 C.ar   94  TRP94       0.0003
     83  CD1       25.9490   38.3210   66.4760 C.ar   94  TRP94       0.0946
     84  CD2       24.9430   38.4900   68.4720 C.ar   94  TRP94       0.0152
     85  NE1       26.8820   38.7820   67.3830 N.ar   94  TRP94      -0.2442
     86  CE2       26.2830   38.9270   68.6070 C.ar   94  TRP94       0.0810
     87  CE3       24.0870   38.5850   69.5850 C.ar   94  TRP94       0.0012
     88  CZ2       26.7920   39.4250   69.8200 C.ar   94  TRP94       0.0191
     89  CZ3       24.5820   39.1140   70.7700 C.ar   94  TRP94       0.0001
     90  CH2       25.9390   39.4470   70.9020 C.ar   94  TRP94       0.0015
     91  N         25.2480   35.5940   64.2400 N.am   95  GLN95      -0.1965
     92  CA        25.9370   34.3130   64.1690 C.3    95  GLN95       0.1733
     93  C         27.0870   34.2420   65.1660 C.2    95  GLN95       0.2617
     94  O         27.8420   35.2140   65.3110 O.2    95  GLN95      -0.2715
     95  CB        26.3300   33.9320   62.7250 C.3    95  GLN95       0.0408
     96  CG        27.4830   34.7190   62.0450 C.3    95  GLN95       0.0908
     97  CD        28.8620   34.2570   62.4910 C.2    95  GLN95       0.2608
     98  OE1       29.0360   33.1670   63.0410 O.2    95  GLN95      -0.2717
     99  NE2       29.8620   35.1080   62.3350 N.am   95  GLN95      -0.0878
    100  N         27.1650   33.1220   65.8800 N.am   96  GLY96      -0.1940
    101  CA        28.2270   32.8640   66.8490 C.3    96  GLY96       0.2014
    102  C         29.1110   31.6810   66.4940 C.2    96  GLY96       0.2640
    103  O         29.8820   31.2280   67.3360 O.2    96  GLY96      -0.2714
    104  N         29.0090   31.1580   65.2600 N.am   97  SER97      -0.1935
    105  CA        29.8070   29.9990   64.8190 C.3    97  SER97       0.2055
    106  C         31.2170   30.3690   64.3500 C.2    97  SER97       0.2643
    107  O         32.1160   29.5310   64.4240 O.2    97  SER97      -0.2714
    108  CB        29.0990   29.2360   63.7040 C.3    97  SER97       0.2130
    109  OG        27.8760   28.6760   64.1430 O.3    97  SER97      -0.2179
    110  N         31.3890   31.5750   63.8040 N.am   98  HIS98      -0.1959
    111  CA        32.6690   32.0420   63.2930 C.3    98  HIS98       0.1787
    112  C         33.0330   33.4000   63.8840 C.2    98  HIS98       0.2620
    113  O         32.1800   34.2880   64.0040 O.2    98  HIS98      -0.2715
    114  CB        32.6500   32.1190   61.7540 C.3    98  HIS98       0.0785
    115  CG        32.1930   30.8550   61.0980 C.ar   98  HIS98       0.0821
    116  ND1       33.0940   29.8940   60.6780 N.ar   98  HIS98      -0.2267
    117  CD2       30.9350   30.4330   60.8110 C.ar   98  HIS98       0.1154
    118  CE1       32.3620   28.9190   60.1570 C.ar   98  HIS98       0.1986
    119  NE2       31.0560   29.1960   60.2240 N.ar   98  HIS98      -0.2212
    120  N         34.3190   33.5620   64.2070 N.am   99  PHE99      -0.1974
    121  CA        34.8660   34.7950   64.7460 C.3    99  PHE99       0.1639
    122  C         35.2790   35.7280   63.5940 C.2    99  PHE99       0.2290
    123  O         35.9520   35.2430   62.6740 O.2    99  PHE99      -0.2864
    124  CB        36.0660   34.4810   65.6700 C.3    99  PHE99       0.0560
    125  CG        36.7080   35.7220   66.2430 C.ar   99  PHE99      -0.0200
    126  CD1       36.1760   36.3420   67.3690 C.ar   99  PHE99      -0.0042
    127  CD2       37.8110   36.3020   65.6260 C.ar   99  PHE99      -0.0042
    128  CE1       36.7410   37.5110   67.8710 C.ar   99  PHE99      -0.0003
    129  CE2       38.3580   37.4880   66.1150 C.ar   99  PHE99      -0.0003
    130  CZ        37.8230   38.0780   67.2430 C.ar   99  PHE99      -0.0000
    131  N         31.9100   37.6520   65.5640 N.3   101  TYR101     -0.1241
    132  CA        30.4810   37.3490   65.6960 C.3   101  TYR101      0.1605
    133  C         29.6380   38.4510   65.0390 C.2   101  TYR101      0.2264
    134  O         29.4440   39.5260   65.6160 O.2   101  TYR101     -0.2867
    135  CB        30.1290   37.1580   67.1750 C.3   101  TYR101      0.0534
    136  CG        31.2130   36.4590   67.9710 C.ar  101  TYR101     -0.0201
    137  CD1       31.9070   37.1270   68.9710 C.ar  101  TYR101     -0.0009
    138  CD2       31.5490   35.1300   67.7180 C.ar  101  TYR101     -0.0009
    139  CE1       32.8950   36.4880   69.7160 C.ar  101  TYR101      0.0417
    140  CE2       32.5670   34.4940   68.4290 C.ar  101  TYR101      0.0417
    141  CZ        33.2330   35.1760   69.4330 C.ar  101  TYR101      0.1957
    142  OH        34.2160   34.5610   70.1760 O.3   101  TYR101     -0.2866
@<TRIPOS>BOND
     1   118   119   ar
     2   118   116   ar
     3   119   117   ar
     4   116   115   ar
     5   117   115   ar
     6   115   114    1
     7   114   111    1
     8    96    97    1
     9    96    95    1
    10    99    97   am
    11    97    98    2
    12   123   122    2
    13     1     2    1
    14    95    92    1
    15   111   110    1
    16   111   112    1
    17     4     3    2
    18     2     3    1
    19     2     5    1
    20   122   121    1
    21   108   109    1
    22   108   105    1
    23   110   106   am
    24   112   113    2
    25   112   120   am
    26    92    91    1
    27    92    93    1
    28   120   121    1
    29    91    79   am
    30   106   107    2
    31   106   105    1
    32    77    78    1
    33     8     6   ar
    34    20    19    2
    35   121   124    1
    36   105   104    1
    37     5     6    1
    38    78    79    1
    39    78    81    1
    40    79    80    2
    41   133   134    2
    42   133   132    1
    43    93    94    2
    44    93   100   am
    45   104   102   am
    46    19    18    1
    47     6     7   ar
    48    41    40    2
    49    29    28    2
    50   131   132    1
    51    26    27    1
    52   127   129   ar
    53   127   125   ar
    54   124   125    1
    55   132   135    1
    56    17    18    1
    57    28    27    1
    58   100   101    1
    59     9    10    1
    60    18    21    1
    61   129   130   ar
    62    38    39    1
    63   125   126   ar
    64    81    82    1
    65    83    82   ar
    66    83    85   ar
    67   102   101    1
    68   102   103    2
    69    27    30    1
    70    11    10    1
    71    11    12    2
    72    40    39    1
    73    72    71    2
    74    10    13    1
    75    82    84   ar
    76    71    70    1
    77   135   136    1
    78    15    14   ar
    79    39    42    1
    80   130   128   ar
    81    30    31    1
    82   126   128   ar
    83    85    86   ar
    84    33    31   ar
    85    33    35   ar
    86    21    22    1
    87   138   136   ar
    88   138   140   ar
    89   136   137   ar
    90    31    32   ar
    91    70    69    1
    92    70    73    1
    93    42    43    1
    94    14    13    1
    95    14    16   ar
    96    35    36   ar
    97   140   141   ar
    98    84    86   ar
    99    84    87   ar
   100    22    23    1
   101    45    43   am
   102    86    88   ar
   103    69    59   am
   104    43    44    2
   105   137   139   ar
   106    60    59    2
   107    73    74    1
   108    76    74    1
   109    59    58    1
   110   141   139   ar
   111   141   142    1
   112    32    34   ar
   113    87    89   ar
   114    36    34   ar
   115    36    37    1
   116    88    90   ar
   117    58    57    1
   118    58    61    1
   119    23    24    1
   120    74    75    1
   121    89    90   ar
   122    24    25    1
   123    61    62    1
   124    51    52    1
   125    51    50    1
   126    52    53    1
   127    62    64   ar
   128    62    63   ar
   129    47    48    1
   130    47    50    1
   131    47    46    1
   132    48    49    2
   133    64    66   ar
   134    63    65   ar
   135    53    54    2
   136    55    54    1
   137    66    67   ar
   138    54    56    1
   139    65    67   ar
   140    67    68    1
