@<TRIPOS>MOLECULE
tmp/3sgiA00.pdb
 170 156 0 0 0
SMALL
GASTEIGER

@<TRIPOS>ATOM
      1  N        -13.7390   35.3510  -25.8580 N.3    11  GLN11      -0.1245
      2  CA       -12.7880   34.8270  -24.8810 C.3    11  GLN11       0.1566
      3  C        -13.4690   34.6040  -23.5360 C.2    11  GLN11       0.2260
      4  O        -13.2270   33.6010  -22.8740 O.2    11  GLN11      -0.2867
      5  CB       -11.5420   35.7260  -24.7580 C.3    11  GLN11       0.0367
      6  CG       -11.7120   37.0400  -23.9680 C.3    11  GLN11       0.0905
      7  CD       -11.0810   36.9980  -22.5730 C.2    11  GLN11       0.2608
      8  OE1      -10.5110   35.9820  -22.1590 O.2    11  GLN11      -0.2717
      9  NE2      -11.1740   38.1140  -21.8480 N.am   11  GLN11      -0.0878
     10  N        -14.1430   30.3890  -22.5860 N.3    15  GLU15      -0.1245
     11  CA       -13.4070   30.0590  -21.3660 C.3    15  GLU15       0.1567
     12  C        -14.3530   30.0010  -20.1690 C.2    15  GLU15       0.2260
     13  O        -14.0540   29.3630  -19.1670 O.2    15  GLU15      -0.2867
     14  CB       -12.2440   31.0430  -21.1340 C.3    15  GLU15       0.0388
     15  CG       -11.0710   30.4710  -20.3140 C.3    15  GLU15       0.1160
     16  CD        -9.7640   31.2590  -20.4670 C.2    15  GLU15       0.3649
     17  OE1       -9.7930   32.5160  -20.4230 O.co2  15  GLU15      -0.2457
     18  OE2       -8.6990   30.6110  -20.6170 O.co2  15  GLU15      -0.2457
     19  N         -7.1120   33.0560  -11.1820 N.3    83  LEU83      -0.1231
     20  CA        -7.9610   33.8120  -12.1160 C.3    83  LEU83       0.1693
     21  C         -7.3350   34.2450  -13.4510 C.2    83  LEU83       0.2593
     22  O         -6.1290   34.1190  -13.6650 O.2    83  LEU83      -0.2718
     23  CB        -8.5280   35.0340  -11.4070 C.3    83  LEU83       0.0284
     24  CG        -9.2900   34.6830  -10.1310 C.3    83  LEU83       0.0019
     25  CD1       -9.6860   35.9450   -9.3390 C.3    83  LEU83       0.0001
     26  CD2      -10.4990   33.7660  -10.4200 C.3    83  LEU83       0.0001
     27  N         -8.1790   34.7710  -14.3430 N.am   84  SER84      -0.1938
     28  CA        -7.7600   35.1850  -15.6890 C.3    84  SER84       0.2055
     29  C         -7.1410   36.5750  -15.7300 C.2    84  SER84       0.2642
     30  O         -6.7480   37.1150  -14.6980 O.2    84  SER84      -0.2714
     31  CB        -8.9260   35.1410  -16.6770 C.3    84  SER84       0.2130
     32  OG        -8.4960   35.6460  -17.9390 O.3    84  SER84      -0.2179
     33  N         -7.0530   37.1340  -16.9360 N.am   85  LEU85      -0.1977
     34  CA        -6.4740   38.4480  -17.1580 C.3    85  LEU85       0.1596
     35  C         -7.3940   39.2920  -18.0200 C.2    85  LEU85       0.2287
     36  O         -7.9910   38.8000  -18.9870 O.2    85  LEU85      -0.2864
     37  CB        -5.1190   38.3250  -17.8480 C.3    85  LEU85       0.0297
     38  CG        -4.0700   37.5000  -17.1190 C.3    85  LEU85       0.0022
     39  CD1       -2.9470   37.0920  -18.0630 C.3    85  LEU85       0.0001
     40  CD2       -3.5420   38.2470  -15.9000 C.3    85  LEU85       0.0001
     41  N         -8.1880   42.1350  -20.8090 N.3    87  ASN87      -0.1240
     42  CA        -7.5440   42.2640  -22.1250 C.3    87  ASN87       0.1653
     43  C         -7.4760   43.6770  -22.7090 C.2    87  ASN87       0.2266
     44  O         -8.5010   44.3330  -22.8950 O.2    87  ASN87      -0.2867
     45  CB        -8.2000   41.3260  -23.1400 C.3    87  ASN87       0.1155
     46  CG        -8.0650   39.8600  -22.7630 C.2    87  ASN87       0.2627
     47  OD1       -7.3500   39.4950  -21.8250 O.2    87  ASN87      -0.2716
     48  ND2       -8.7530   39.0070  -23.5080 N.am   87  ASN87      -0.0877
     49  N          5.9650   41.3140  -19.0450 N.3   114  GLU114     -0.1231
     50  CA         6.2900   39.9440  -19.4010 C.3   114  GLU114      0.1699
     51  C          5.5820   39.4390  -20.6510 C.2   114  GLU114      0.2592
     52  O          4.4360   39.8300  -20.9340 O.2   114  GLU114     -0.2718
     53  CB         6.0880   38.9760  -18.2350 C.3   114  GLU114      0.0402
     54  CG         5.1680   39.4100  -17.1210 C.3   114  GLU114      0.1161
     55  CD         5.0020   38.2930  -16.1070 C.2   114  GLU114      0.3649
     56  OE1        5.7640   37.3150  -16.1940 O.co2 114  GLU114     -0.2457
     57  OE2        4.1200   38.3640  -15.2330 O.co2 114  GLU114     -0.2457
     58  N          6.2930   38.5810  -21.3870 N.am  115  LEU115     -0.1966
     59  CA         5.7890   37.9480  -22.5880 C.3   115  LEU115      0.1728
     60  C          4.7290   36.9440  -22.2240 C.2   115  LEU115      0.2616
     61  O          4.9280   36.1400  -21.3200 O.2   115  LEU115     -0.2715
     62  CB         6.9190   37.2280  -23.3030 C.3   115  LEU115      0.0311
     63  CG         7.7150   37.9970  -24.3630 C.3   115  LEU115      0.0022
     64  CD1        8.2350   39.3240  -23.8410 C.3   115  LEU115      0.0001
     65  CD2        8.8620   37.1370  -24.9070 C.3   115  LEU115      0.0001
     66  N          3.5940   36.9850  -22.9270 N.am  116  LYS116     -0.1963
     67  CA         2.4250   36.1240  -22.6660 C.3   116  LYS116      0.1728
     68  C          2.3030   35.0470  -23.6820 C.2   116  LYS116      0.2616
     69  O          1.9350   35.3130  -24.7620 O.2   116  LYS116     -0.2715
     70  CB         1.1220   36.9190  -22.6810 C.3   116  LYS116      0.0311
     71  CG        -0.0910   36.1270  -23.0650 C.3   116  LYS116      0.0038
     72  CD        -1.4090   36.5460  -22.3990 C.3   116  LYS116      0.0206
     73  CE        -2.5850   35.5780  -22.8020 C.3   116  LYS116      0.1093
     74  NZ        -3.9370   35.5290  -22.0590 N.3   116  LYS116     -0.1314
     75  N          2.5970   33.8190  -23.3110 N.am  117  ILE117     -0.1977
     76  CA         2.8130   32.7690  -24.2560 C.3   117  ILE117      0.1596
     77  C          1.6170   31.9410  -24.4600 C.2   117  ILE117      0.2287
     78  O          0.6040   32.1500  -23.8540 O.2   117  ILE117     -0.2864
     79  CB         3.8540   31.8100  -23.7700 C.3   117  ILE117      0.0276
     80  CG1        3.9590   31.8860  -22.2660 C.3   117  ILE117      0.0022
     81  CG2        5.1760   32.1410  -24.3370 C.3   117  ILE117      0.0022
     82  CD1        5.3050   31.6050  -21.7720 C.3   117  ILE117      0.0001
     83  N         -1.9320   26.3240  -18.9310 N.3   121  ALA121     -0.1245
     84  CA        -1.7770   26.7900  -17.5520 C.3   121  ALA121      0.1562
     85  C         -1.4730   25.6250  -16.6220 C.2   121  ALA121      0.2260
     86  O         -2.0850   24.5580  -16.7140 O.2   121  ALA121     -0.2867
     87  CB        -3.0280   27.5220  -17.0890 C.3   121  ALA121      0.0290
     88  N         -5.7640   24.1280  -14.8630 N.3   137  ARG137     -0.1245
     89  CA        -6.5410   25.3020  -14.4090 C.3   137  ARG137      0.1563
     90  C         -7.8230   24.9050  -13.7000 C.2   137  ARG137      0.2260
     91  O         -8.1480   25.4360  -12.6420 O.2   137  ARG137     -0.2867
     92  CB        -6.8680   26.2550  -15.5680 C.3   137  ARG137      0.0307
     93  CG        -8.0400   27.2190  -15.2940 C.3   137  ARG137      0.0489
     94  CD        -7.5930   28.6390  -14.9970 C.3   137  ARG137      0.2205
     95  NE        -7.0360   29.2850  -16.1930 N.pl3 137  ARG137     -0.0865
     96  CZ        -7.6400   30.2430  -16.9020 C.cat 137  ARG137      0.5346
     97  NH1       -8.8370   30.7050  -16.5390 N.pl3 137  ARG137      0.1354
     98  NH2       -7.0360   30.7500  -17.9770 N.pl3 137  ARG137      0.1354
     99  N          2.7620   29.2150  -10.5060 N.3   175  ARG175     -0.1245
    100  CA         1.7260   29.1190  -11.5060 C.3   175  ARG175      0.1563
    101  C          2.3790   29.5640  -12.7960 C.2   175  ARG175      0.2260
    102  O          2.9970   30.6300  -12.8530 O.2   175  ARG175     -0.2867
    103  CB         0.6410   30.1060  -11.1220 C.3   175  ARG175      0.0307
    104  CG        -0.8010   29.6710  -11.3000 C.3   175  ARG175      0.0489
    105  CD        -1.7050   30.8890  -11.0230 C.3   175  ARG175      0.2205
    106  NE        -0.9970   32.1370  -11.3510 N.pl3 175  ARG175     -0.0865
    107  CZ        -0.7970   32.6080  -12.5900 C.cat 175  ARG175      0.5346
    108  NH1       -1.2740   31.9480  -13.6550 N.pl3 175  ARG175      0.1354
    109  NH2       -0.1140   33.7470  -12.7630 N.pl3 175  ARG175      0.1354
    110  N          3.1000   28.3240  -17.3620 N.3   177  GLU177     -0.1245
    111  CA         2.5710   27.9640  -18.6690 C.3   177  GLU177      0.1567
    112  C          3.3900   26.8610  -19.3040 C.2   177  GLU177      0.2260
    113  O          4.5530   27.0840  -19.6440 O.2   177  GLU177     -0.2867
    114  CB         2.6300   29.1970  -19.5720 C.3   177  GLU177      0.0388
    115  CG         1.5240   29.2750  -20.5710 C.3   177  GLU177      0.1160
    116  CD         0.1820   29.2230  -19.9020 C.2   177  GLU177      0.3649
    117  OE1       -0.5380   28.2280  -20.1020 O.co2 177  GLU177     -0.2457
    118  OE2       -0.1390   30.1640  -19.1460 O.co2 177  GLU177     -0.2457
    119  N          5.2930   32.1560  -14.1130 N.3   229  HIS229     -0.1241
    120  CA         4.9670   33.5700  -14.3640 C.3   229  HIS229      0.1621
    121  C          4.0460   34.2150  -13.3220 C.2   229  HIS229      0.2264
    122  O          3.2550   35.1020  -13.6650 O.2   229  HIS229     -0.2867
    123  CB         4.3750   33.7630  -15.7720 C.3   229  HIS229      0.0745
    124  CG         3.1140   32.9850  -16.0270 C.ar  229  HIS229      0.0817
    125  ND1        2.9040   32.2700  -17.1890 N.ar  229  HIS229     -0.2268
    126  CD2        1.9950   32.8140  -15.2800 C.ar  229  HIS229      0.1154
    127  CE1        1.7190   31.6840  -17.1420 C.ar  229  HIS229      0.1986
    128  NE2        1.1440   32.0030  -15.9970 N.ar  229  HIS229     -0.2212
    129  N         11.7550   36.5000  -18.7670 N.3   258  GLU258     -0.1245
    130  CA        12.1100   36.1950  -20.1400 C.3   258  GLU258      0.1567
    131  C         13.5190   36.7210  -20.5430 C.2   258  GLU258      0.2260
    132  O         14.5050   36.0560  -20.1850 O.2   258  GLU258     -0.2867
    133  CB        10.9550   36.5170  -21.1000 C.3   258  GLU258      0.0388
    134  CG         9.5920   35.9780  -20.6630 C.3   258  GLU258      0.1160
    135  CD         8.6920   37.0580  -20.0460 C.2   258  GLU258      0.3649
    136  OE1        9.1760   38.1990  -19.8120 O.co2 258  GLU258     -0.2457
    137  OE2        7.4900   36.7620  -19.8080 O.co2 258  GLU258     -0.2457
    138  N          1.2170   35.2750  -27.7890 N.3   288  ASP288     -0.1239
    139  CA        -0.0360   35.9560  -28.1470 C.3   288  ASP288      0.1674
    140  C         -0.0220   37.4540  -27.8650 C.2   288  ASP288      0.2266
    141  O         -0.8550   38.2070  -28.3790 O.2   288  ASP288     -0.2867
    142  CB        -1.2190   35.3130  -27.4130 C.3   288  ASP288      0.1410
    143  CG        -1.6620   34.0040  -28.0510 C.2   288  ASP288      0.3668
    144  OD1       -0.7820   33.2010  -28.4420 O.co2 288  ASP288     -0.2456
    145  OD2       -2.8930   33.7710  -28.1630 O.co2 288  ASP288     -0.2456
    146  N          2.0380   40.7540  -21.2840 N.3   291  VAL291     -0.1245
    147  CA         1.2530   40.8560  -20.0710 C.3   291  VAL291      0.1561
    148  C          1.9650   41.7450  -19.0310 C.2   291  VAL291      0.2260
    149  O          3.1490   41.5480  -18.7040 O.2   291  VAL291     -0.2867
    150  CB         0.7910   39.4550  -19.5790 C.3   291  VAL291      0.0252
    151  CG1        1.8900   38.7330  -18.8370 C.3   291  VAL291      0.0019
    152  CG2       -0.4510   39.5750  -18.7520 C.3   291  VAL291      0.0019
    153  N          2.1300   43.9800  -15.4980 N.3   293  LYS293     -0.1245
    154  CA         1.7210   43.8030  -14.1190 C.3   293  LYS293      0.1561
    155  C          2.3520   44.8950  -13.2800 C.2   293  LYS293      0.2260
    156  O          3.4840   45.2760  -13.5370 O.2   293  LYS293     -0.2867
    157  CB         2.1660   42.4240  -13.6360 C.3   293  LYS293      0.0271
    158  CG         1.9530   41.3010  -14.6560 C.3   293  LYS293      0.0035
    159  CD         2.3410   39.9830  -14.0690 C.3   293  LYS293      0.0206
    160  CE         1.4270   38.8810  -14.5590 C.3   293  LYS293      0.1093
    161  NZ         1.3570   37.7710  -13.5530 N.3   293  LYS293     -0.1314
    162  N         -2.5750   42.1870  -26.1180 N.3   317  LYS317     -0.1245
    163  CA        -2.5970   41.0530  -27.0450 C.3   317  LYS317      0.1561
    164  C         -2.5910   41.4090  -28.5340 C.2   317  LYS317      0.2260
    165  O         -3.5050   42.0590  -29.0470 O.2   317  LYS317     -0.2867
    166  CB        -3.7430   40.0870  -26.6940 C.3   317  LYS317      0.0271
    167  CG        -4.8530   40.7080  -25.8510 C.3   317  LYS317      0.0035
    168  CD        -5.4640   39.7050  -24.8890 C.3   317  LYS317      0.0206
    169  CE        -6.3770   38.7130  -25.6000 C.3   317  LYS317      0.1093
    170  NZ        -5.6680   37.4360  -25.8970 N.3   317  LYS317     -0.1314
@<TRIPOS>BOND
     1   165   164    2
     2   164   163    1
     3   144   143   ar
     4   141   140    2
     5   145   143   ar
     6   139   140    1
     7   139   138    1
     8   139   142    1
     9   143   142    1
    10   163   166    1
    11   163   162    1
    12   166   167    1
    13   170   169    1
    14     1     2    1
    15   167   168    1
    16   169   168    1
    17    65    63    1
    18     2     5    1
    19     2     3    1
    20    69    68    2
    21     5     6    1
    22    77    76    1
    23    77    78    2
    24    63    64    1
    25    63    62    1
    26    81    79    1
    27    76    79    1
    28    76    75    1
    29     6     7    1
    30    79    80    1
    31    68    75   am
    32    68    67    1
    33     3     4    2
    34    48    46   am
    35    62    59    1
    36    45    46    1
    37    45    42    1
    38    71    70    1
    39    71    72    1
    40    66    67    1
    41    66    60   am
    42    44    43    2
    43    73    72    1
    44    73    74    1
    45    46    47    2
    46    43    42    1
    47    70    67    1
    48    59    60    1
    49    59    58    1
    50    10    11    1
    51     7     8    2
    52     7     9   am
    53    80    82    1
    54    60    61    2
    55    42    41    1
    56    58    51   am
    57    11    14    1
    58    11    12    1
    59   146   147    1
    60    14    15    1
    61   133   134    1
    62   133   130    1
    63    52    51    2
    64   134   135    1
    65    51    50    1
    66    18    16   ar
    67   115   116    1
    68   115   114    1
    69   131   132    2
    70   131   130    1
    71    16    17   ar
    72    16    15    1
    73    12    13    2
    74   130   129    1
    75   117   116   ar
    76   147   150    1
    77   147   148    1
    78   135   136   ar
    79   135   137   ar
    80   116   118   ar
    81   113   112    2
    82   150   151    1
    83   150   152    1
    84   114   111    1
    85    50    49    1
    86    50    53    1
    87   112   111    1
    88   148   149    2
    89    36    35    2
    90    83    84    1
    91   111   110    1
    92    53    54    1
    93    39    38    1
    94    35    34    1
    95    98    96    1
    96    32    31    1
    97    37    34    1
    98    37    38    1
    99    84    87    1
   100    84    85    1
   101   125   127   ar
   102   125   124   ar
   103    34    33    1
   104   127   128   ar
   105    54    55    1
   106    38    40    1
   107    33    29   am
   108    96    97    1
   109    96    95    2
   110    86    85    2
   111    31    28    1
   112    56    55   ar
   113    95    94    1
   114    55    57   ar
   115   124   123    1
   116   124   126   ar
   117   128   126   ar
   118   123   120    1
   119    29    28    1
   120    29    30    2
   121    28    27    1
   122    92    93    1
   123    92    89    1
   124   153   154    1
   125    93    94    1
   126    88    89    1
   127   158   159    1
   128   158   157    1
   129   160   159    1
   130   160   161    1
   131    89    90    1
   132   120   119    1
   133   120   121    1
   134    27    21   am
   135   154   157    1
   136   154   155    1
   137    90    91    2
   138   122   121    2
   139    22    21    2
   140   108   107    1
   141   156   155    2
   142    21    20    1
   143   102   101    2
   144   101   100    1
   145   109   107    1
   146   107   106    2
   147    20    23    1
   148    20    19    1
   149   100   103    1
   150   100    99    1
   151    23    24    1
   152   106   105    1
   153   104   103    1
   154   104   105    1
   155    26    24    1
   156    24    25    1
