@<TRIPOS>MOLECULE
tmp/3sgjC00.pdb
 82 76 0 0 0
SMALL
GASTEIGER

@<TRIPOS>ATOM
      1  N        -29.9280  -24.2550   24.3260 N.3   115  LYS115     -0.1245
      2  CA       -29.9880  -23.6130   23.0300 C.3   115  LYS115      0.1561
      3  C        -29.8490  -24.6350   21.9050 C.2   115  LYS115      0.2260
      4  O        -28.8770  -24.5990   21.1300 O.2   115  LYS115     -0.2867
      5  CB       -28.9310  -22.5030   22.9180 C.3   115  LYS115      0.0271
      6  CG       -29.1550  -21.3840   23.9200 C.3   115  LYS115      0.0035
      7  CD       -28.1720  -20.2450   23.7210 C.3   115  LYS115      0.0206
      8  CE       -28.2970  -19.1970   24.8130 C.3   115  LYS115      0.1093
      9  NZ       -28.7910  -17.9030   24.2920 N.3   115  LYS115     -0.1314
     10  N        -30.9910  -26.6340   18.5120 N.3   117  THR117     -0.1218
     11  CA       -31.6880  -26.5590   17.2230 C.3   117  THR117      0.1862
     12  C        -31.7350  -27.9100   16.5190 C.2   117  THR117      0.2287
     13  O        -30.7620  -28.6580   16.5280 O.2   117  THR117     -0.2866
     14  CB       -31.0240  -25.5610   16.2350 C.3   117  THR117      0.1770
     15  OG1      -30.7450  -24.3340   16.9000 O.3   117  THR117     -0.2211
     16  CG2      -31.9540  -25.2400   15.0630 C.3   117  THR117      0.0375
     17  N        -32.1540  -29.0770   12.7870 N.3   119  LEU119     -0.1245
     18  CA       -32.0440  -28.5450   11.4490 C.3   119  LEU119      0.1561
     19  C        -32.5800  -29.5420   10.4230 C.2   119  LEU119      0.2260
     20  O        -32.3810  -30.7490   10.5540 O.2   119  LEU119     -0.2867
     21  CB       -30.5900  -28.1690   11.1350 C.3   119  LEU119      0.0270
     22  CG       -30.0320  -27.0140   11.9850 C.3   119  LEU119      0.0019
     23  CD1      -29.2450  -27.5780   13.1580 C.3   119  LEU119      0.0001
     24  CD2      -29.1750  -26.0750   11.1290 C.3   119  LEU119      0.0001
     25  N        -30.2410  -28.3730    6.4740 N.3   122  GLY122     -0.1225
     26  CA       -29.2620  -27.3360    6.7700 C.3   122  GLY122      0.1811
     27  C        -29.8420  -26.0080    7.2180 C.2   122  GLY122      0.2280
     28  O        -29.0990  -25.0720    7.4710 O.2   122  GLY122     -0.2866
     29  N        -36.1090  -24.5650   17.4240 N.3   127  TYR127     -0.1241
     30  CA       -35.1600  -24.1430   18.4540 C.3   127  TYR127      0.1605
     31  C        -35.8430  -24.2740   19.8050 C.2   127  TYR127      0.2264
     32  O        -37.0300  -23.9610   19.9190 O.2   127  TYR127     -0.2867
     33  CB       -34.6490  -22.6860   18.2140 C.3   127  TYR127      0.0534
     34  CG       -33.9900  -22.0510   19.4240 C.ar  127  TYR127     -0.0201
     35  CD1      -32.6220  -22.1740   19.6390 C.ar  127  TYR127     -0.0009
     36  CD2      -34.7400  -21.3730   20.3830 C.ar  127  TYR127     -0.0009
     37  CE1      -32.0110  -21.6420   20.7580 C.ar  127  TYR127      0.0417
     38  CE2      -34.1420  -20.8230   21.5140 C.ar  127  TYR127      0.0417
     39  CZ       -32.7760  -20.9660   21.6920 C.ar  127  TYR127      0.1957
     40  OH       -32.1700  -20.4410   22.7950 O.3   127  TYR127     -0.2866
     41  N        -30.2690  -32.9820   11.4580 N.3   148  PHE148     -0.1241
     42  CA       -29.3630  -33.1400   12.5840 C.3   148  PHE148      0.1605
     43  C        -29.7380  -32.1880   13.7040 C.2   148  PHE148      0.2264
     44  O        -30.6390  -31.3640   13.5370 O.2   148  PHE148     -0.2867
     45  CB       -27.8780  -33.0350   12.1920 C.3   148  PHE148      0.0534
     46  CG       -27.3950  -31.6460   11.8750 C.ar  148  PHE148     -0.0203
     47  CD1      -27.7950  -30.9910   10.6990 C.ar  148  PHE148     -0.0042
     48  CD2      -26.4910  -31.0070   12.7210 C.ar  148  PHE148     -0.0042
     49  CE1      -27.3130  -29.7170   10.3920 C.ar  148  PHE148     -0.0003
     50  CE2      -26.0030  -29.7470   12.4210 C.ar  148  PHE148     -0.0003
     51  CZ       -26.4100  -29.0980   11.2600 C.ar  148  PHE148     -0.0000
     52  N        -28.0950  -29.7700   17.1540 N.3   150  ARG150     -0.1231
     53  CA       -26.9240  -29.2250   17.7870 C.3   150  ARG150      0.1694
     54  C        -27.3140  -28.3910   18.9950 C.2   150  ARG150      0.2593
     55  O        -28.4740  -28.0360   19.1420 O.2   150  ARG150     -0.2718
     56  CB       -26.0670  -28.4250   16.7830 C.3   150  ARG150      0.0321
     57  CG       -26.7690  -27.3180   16.0510 C.3   150  ARG150      0.0489
     58  CD       -25.7580  -26.3990   15.3920 C.3   150  ARG150      0.2205
     59  NE       -26.4330  -25.2430   14.8280 N.pl3 150  ARG150     -0.0865
     60  CZ       -26.3690  -24.8520   13.5530 C.cat 150  ARG150      0.5346
     61  NH1      -25.6290  -25.5150   12.6610 N.pl3 150  ARG150      0.1354
     62  NH2      -27.0420  -23.7700   13.1710 N.pl3 150  ARG150      0.1354
     63  N        -26.3460  -28.0760   19.8470 N.am  151  GLY151     -0.1942
     64  CA       -26.6060  -27.2170   20.9880 C.3   151  GLY151      0.2014
     65  C        -25.3460  -26.8770   21.7510 C.2   151  GLY151      0.2638
     66  O        -24.2170  -27.1620   21.3100 O.2   151  GLY151     -0.2714
     67  N        -25.5490  -26.2910   22.9220 N.am  152  LEU152     -0.1977
     68  CA       -24.4660  -25.9330   23.8190 C.3   152  LEU152      0.1596
     69  C        -24.3710  -26.8830   25.0180 C.2   152  LEU152      0.2287
     70  O        -25.3670  -27.1130   25.7200 O.2   152  LEU152     -0.2864
     71  CB       -24.6560  -24.4900   24.2970 C.3   152  LEU152      0.0297
     72  CG       -24.0020  -23.3460   23.5170 C.3   152  LEU152      0.0022
     73  CD1      -23.7280  -23.6250   22.0410 C.3   152  LEU152      0.0001
     74  CD2      -24.8280  -22.0730   23.6860 C.3   152  LEU152      0.0001
     75  N        -20.0110  -25.7850   21.3880 N.3   157  ASN157     -0.1240
     76  CA       -21.0160  -25.8830   20.3640 C.3   157  ASN157      0.1653
     77  C        -20.8410  -27.2470   19.7310 C.2   157  ASN157      0.2266
     78  O        -19.8080  -27.5140   19.1020 O.2   157  ASN157     -0.2867
     79  CB       -20.8000  -24.7890   19.3130 C.3   157  ASN157      0.1155
     80  CG       -21.9270  -24.7260   18.3120 C.2   157  ASN157      0.2627
     81  OD1      -22.6380  -25.7080   18.1300 O.2   157  ASN157     -0.2716
     82  ND2      -22.0970  -23.5870   17.6480 N.am  157  ASN157     -0.0877
@<TRIPOS>BOND
     1    25    26    1
     2    26    27    1
     3    27    28    2
     4    49    47   ar
     5    49    51   ar
     6    19    20    2
     7    19    18    1
     8    47    46   ar
     9    24    22    1
    10    21    18    1
    11    21    22    1
    12    51    50   ar
    13    18    17    1
    14    41    42    1
    15    46    45    1
    16    46    48   ar
    17    22    23    1
    18    45    42    1
    19    50    48   ar
    20    42    43    1
    21    61    60    1
    22    62    60    1
    23    44    43    2
    24    60    59    2
    25    59    58    1
    26    16    14    1
    27    58    57    1
    28    57    56    1
    29    14    15    1
    30    14    11    1
    31    12    13    2
    32    12    11    1
    33    56    53    1
    34    52    53    1
    35    11    10    1
    36    29    30    1
    37    82    80   am
    38    53    54    1
    39    81    80    2
    40    33    30    1
    41    33    34    1
    42    80    79    1
    43    30    31    1
    44    54    55    2
    45    54    63   am
    46    78    77    2
    47    79    76    1
    48    34    35   ar
    49    34    36   ar
    50    35    37   ar
    51    77    76    1
    52    31    32    2
    53    63    64    1
    54    76    75    1
    55    36    38   ar
    56    37    39   ar
    57    64    65    1
    58     4     3    2
    59    66    65    2
    60    38    39   ar
    61    39    40    1
    62    65    67   am
    63     3     2    1
    64    73    72    1
    65     5     2    1
    66     5     6    1
    67    67    68    1
    68     2     1    1
    69    72    74    1
    70    72    71    1
    71     7     6    1
    72     7     8    1
    73    68    71    1
    74    68    69    1
    75     9     8    1
    76    69    70    2
