@<TRIPOS>MOLECULE
tmp/3sgjA00.pdb
 124 114 0 0 0
SMALL
GASTEIGER

@<TRIPOS>ATOM
      1  N        -30.4940  -13.9760   24.7310 N.3    14  SER14      -0.1217
      2  CA       -29.2840  -13.2800   25.1720 C.3    14  SER14       0.1889
      3  C        -29.3400  -11.8500   24.6650 C.2    14  SER14       0.2288
      4  O        -29.9320  -11.5830   23.6240 O.2    14  SER14      -0.2866
      5  CB       -28.0400  -13.9640   24.5830 C.3    14  SER14       0.2089
      6  OG       -27.8590  -15.2510   25.1660 O.3    14  SER14      -0.2183
      7  N        -27.1670   -8.1020   23.9040 N.3    16  PHE16      -0.1241
      8  CA       -25.9190   -7.4030   23.6100 C.3    16  PHE16       0.1605
      9  C        -26.2150   -5.9180   23.4100 C.2    16  PHE16       0.2264
     10  O        -27.1120   -5.5350   22.6310 O.2    16  PHE16      -0.2867
     11  CB       -25.2500   -8.0330   22.3780 C.3    16  PHE16       0.0534
     12  CG       -24.9310   -9.4790   22.5840 C.ar   16  PHE16      -0.0203
     13  CD1      -25.7900  -10.4680   22.1070 C.ar   16  PHE16      -0.0042
     14  CD2      -23.8250   -9.8540   23.3700 C.ar   16  PHE16      -0.0042
     15  CE1      -25.5340  -11.8030   22.3430 C.ar   16  PHE16      -0.0003
     16  CE2      -23.5510  -11.1990   23.6030 C.ar   16  PHE16      -0.0003
     17  CZ       -24.4210  -12.1690   23.0950 C.ar   16  PHE16      -0.0000
     18  N        -24.8320   -2.1860   22.5130 N.3    18  PHE18      -0.1228
     19  CA       -23.7580   -1.5780   21.7210 C.3    18  PHE18       0.1721
     20  C        -23.6810   -0.0570   21.8580 C.2    18  PHE18       0.2437
     21  O        -24.7110    0.6330   21.7700 O.2    18  PHE18      -0.2733
     22  CB       -23.8830   -1.9740   20.2410 C.3    18  PHE18       0.0547
     23  CG       -23.7310   -3.4490   19.9940 C.ar   18  PHE18      -0.0202
     24  CD1      -22.4570   -4.0410   19.9420 C.ar   18  PHE18      -0.0042
     25  CD2      -24.8580   -4.2570   19.7940 C.ar   18  PHE18      -0.0042
     26  CE1      -22.3200   -5.4080   19.7320 C.ar   18  PHE18      -0.0003
     27  CE2      -24.7300   -5.6260   19.5530 C.ar   18  PHE18      -0.0003
     28  CZ       -23.4600   -6.2060   19.5280 C.ar   18  PHE18      -0.0000
     29  N        -22.4550    0.4770   22.0650 N.am   19  PRO19      -0.2729
     30  CA       -22.2530    1.9280   22.1650 C.3    19  PRO19       0.1401
     31  C        -22.5030    2.5870   20.8070 C.2    19  PRO19       0.2269
     32  O        -22.6070    1.8810   19.8020 O.2    19  PRO19      -0.2865
     33  CB       -20.7750    2.0470   22.5370 C.3    19  PRO19       0.0296
     34  CG       -20.1410    0.8310   21.9320 C.3    19  PRO19       0.0237
     35  CD       -21.1770   -0.2560   22.1080 C.3    19  PRO19       0.0939
     36  N        -21.3650    4.7840   17.4190 N.3    21  LYS21      -0.1245
     37  CA       -20.1150    4.9830   16.6680 C.3    21  LYS21       0.1561
     38  C        -19.4350    6.2680   17.1900 C.2    21  LYS21       0.2260
     39  O        -20.1260    7.2810   17.4070 O.2    21  LYS21      -0.2867
     40  CB       -20.4260    5.1870   15.1790 C.3    21  LYS21       0.0271
     41  CG       -20.8600    3.9560   14.4130 C.3    21  LYS21       0.0035
     42  CD       -19.6490    3.0810   14.1000 C.3    21  LYS21       0.0206
     43  CE       -20.0620    1.6820   13.6680 C.3    21  LYS21       0.1093
     44  NZ       -21.0420    1.1010   14.6340 N.3    21  LYS21      -0.1314
     45  N        -27.7200    0.7420   20.7980 N.3    35  THR35      -0.1218
     46  CA       -28.4570   -0.3890   20.2340 C.3    35  THR35       0.1862
     47  C        -28.4570   -1.6000   21.1780 C.2    35  THR35       0.2287
     48  O        -27.3870   -2.1280   21.5360 O.2    35  THR35      -0.2866
     49  CB       -27.8650   -0.7350   18.8620 C.3    35  THR35       0.1770
     50  OG1      -27.6630    0.4930   18.1520 O.3    35  THR35      -0.2211
     51  CG2      -28.7880   -1.6340   18.0350 C.3    35  THR35       0.0375
     52  N        -29.5950   -5.3980   21.3450 N.3    37  VAL37      -0.1245
     53  CA       -29.9150   -6.5250   20.4800 C.3    37  VAL37       0.1561
     54  C        -30.2380   -7.7590   21.3080 C.2    37  VAL37       0.2260
     55  O        -29.4490   -8.1580   22.1710 O.2    37  VAL37      -0.2867
     56  CB       -28.7300   -6.8430   19.5370 C.3    37  VAL37       0.0252
     57  CG1      -29.0850   -7.9740   18.5790 C.3    37  VAL37       0.0019
     58  CG2      -28.3140   -5.5810   18.7820 C.3    37  VAL37       0.0019
     59  N        -31.0080  -11.7620   21.0620 N.3    39  VAL39      -0.1231
     60  CA       -30.9390  -12.9630   20.1950 C.3    39  VAL39       0.1692
     61  C        -31.4370  -14.1970   20.9200 C.2    39  VAL39       0.2592
     62  O        -31.6250  -14.1690   22.1450 O.2    39  VAL39      -0.2718
     63  CB       -29.5270  -13.2260   19.6320 C.3    39  VAL39       0.0266
     64  CG1      -28.9870  -11.9820   18.9230 C.3    39  VAL39       0.0020
     65  CG2      -28.5850  -13.6880   20.7260 C.3    39  VAL39       0.0020
     66  N        -31.6690  -15.2660   20.1540 N.am   40  ASP40      -0.1974
     67  CA       -32.1350  -16.5530   20.6910 C.3    40  ASP40       0.1709
     68  C        -33.5160  -16.4450   21.3710 C.2    40  ASP40       0.2293
     69  O        -33.7980  -17.0710   22.3990 O.2    40  ASP40      -0.2864
     70  CB       -31.0850  -17.2080   21.5950 C.3    40  ASP40       0.1436
     71  CG       -29.8270  -17.6190   20.8400 C.2    40  ASP40       0.3671
     72  OD1      -28.8040  -17.8230   21.5110 O.co2  40  ASP40      -0.2456
     73  OD2      -29.8410  -17.7400   19.5930 O.co2  40  ASP40      -0.2456
     74  N        -34.4290  -15.4850   12.0030 N.3    70  GLN70      -0.1245
     75  CA       -33.0790  -15.9110   11.6140 C.3    70  GLN70       0.1566
     76  C        -33.0760  -17.2660   10.8920 C.2    70  GLN70       0.2260
     77  O        -34.0160  -18.0470   11.0370 O.2    70  GLN70      -0.2867
     78  CB       -32.1490  -15.9620   12.8250 C.3    70  GLN70       0.0367
     79  CG       -32.0790  -14.6540   13.6130 C.3    70  GLN70       0.0905
     80  CD       -31.8130  -13.4520   12.7240 C.2    70  GLN70       0.2608
     81  OE1      -30.7020  -13.2370   12.2690 O.2    70  GLN70      -0.2717
     82  NE2      -32.8400  -12.6660   12.4820 N.am   70  GLN70      -0.0878
     83  N        -31.3900  -19.7870   11.5710 N.3    72  ASN72      -0.1240
     84  CA       -31.3690  -20.8420   12.5770 C.3    72  ASN72       0.1653
     85  C        -32.6880  -21.0390   13.3470 C.2    72  ASN72       0.2266
     86  O        -32.7340  -21.7620   14.3460 O.2    72  ASN72      -0.2867
     87  CB       -30.1730  -20.6960   13.5220 C.3    72  ASN72       0.1155
     88  CG       -30.1780  -19.3880   14.2990 C.2    72  ASN72       0.2627
     89  OD1      -31.2280  -18.7860   14.5580 O.2    72  ASN72      -0.2716
     90  ND2      -28.9880  -18.9530   14.6920 N.am   72  ASN72      -0.0877
     91  N        -34.4310  -18.9980   15.1640 N.3    74  THR74      -0.1218
     92  CA       -34.6840  -18.0840   16.2830 C.3    74  THR74       0.1862
     93  C        -35.1740  -16.7400   15.7310 C.2    74  THR74       0.2287
     94  O        -35.0820  -16.4860   14.5010 O.2    74  THR74      -0.2866
     95  CB       -33.4210  -17.8440   17.1530 C.3    74  THR74       0.1770
     96  OG1      -32.3540  -17.3450   16.3330 O.3    74  THR74      -0.2211
     97  CG2      -32.9710  -19.1170   17.8020 C.3    74  THR74       0.0375
     98  N        -34.6770  -12.4420   16.2900 N.3    76  ARG76      -0.1245
     99  CA       -33.7480  -11.4290   16.7730 C.3    76  ARG76       0.1563
    100  C        -34.5270  -10.1230   16.8240 C.2    76  ARG76       0.2260
    101  O        -35.1980   -9.7700   15.8480 O.2    76  ARG76      -0.2867
    102  CB       -32.5610  -11.3360   15.8240 C.3    76  ARG76       0.0307
    103  CG       -31.6030  -10.2030   16.1000 C.3    76  ARG76       0.0489
    104  CD       -30.5060  -10.2750   15.0650 C.3    76  ARG76       0.2205
    105  NE       -29.4730   -9.2620   15.2240 N.pl3  76  ARG76      -0.0865
    106  CZ       -29.5030   -8.0520   14.6650 C.cat  76  ARG76       0.5346
    107  NH1      -30.5360   -7.6580   13.9010 N.pl3  76  ARG76       0.1354
    108  NH2      -28.4850   -7.2350   14.8650 N.pl3  76  ARG76       0.1354
    109  N        -34.4370   -5.9570   17.8990 N.3    78  VAL78      -0.1245
    110  CA       -33.5490   -4.8390   18.1120 C.3    78  VAL78       0.1561
    111  C        -34.3270   -3.6180   18.6370 C.2    78  VAL78       0.2260
    112  O        -35.4140   -3.2830   18.1510 O.2    78  VAL78      -0.2867
    113  CB       -32.8410   -4.4590   16.7880 C.3    78  VAL78       0.0252
    114  CG1      -31.9000   -3.2860   16.9960 C.3    78  VAL78       0.0019
    115  CG2      -32.0680   -5.6380   16.2250 C.3    78  VAL78       0.0019
    116  N        -28.5510   -4.7470   30.7980 N.3   109  LYS109     -0.1245
    117  CA       -27.2070   -4.3540   30.3670 C.3   109  LYS109      0.1561
    118  C        -27.0970   -2.8390   30.5180 C.2   109  LYS109      0.2260
    119  O        -28.0580   -2.1110   30.2670 O.2   109  LYS109     -0.2867
    120  CB       -26.9540   -4.7390   28.9060 C.3   109  LYS109      0.0271
    121  CG       -26.9940   -6.2290   28.5960 C.3   109  LYS109      0.0035
    122  CD       -25.8210   -6.9530   29.2350 C.3   109  LYS109      0.0206
    123  CE       -26.0030   -8.4560   29.1860 C.3   109  LYS109      0.1093
    124  NZ       -24.6860   -9.1010   29.4310 N.3   109  LYS109     -0.1314
@<TRIPOS>BOND
     1    76    77    2
     2    76    75    1
     3    83    84    1
     4    75    74    1
     5    75    78    1
     6    81    80    2
     7    82    80   am
     8    84    85    1
     9    84    87    1
    10    80    79    1
    11    78    79    1
    12    85    86    2
    13    87    88    1
    14    43    42    1
    15    43    44    1
    16   107   106    1
    17    42    41    1
    18    88    89    2
    19    88    90   am
    20    41    40    1
    21    94    93    2
    22   106   108    1
    23   106   105    2
    24   104   105    1
    25   104   103    1
    26    91    92    1
    27    40    37    1
    28    93    92    1
    29   102   103    1
    30   102    99    1
    31   101   100    2
    32   115   113    1
    33    92    95    1
    34    98    99    1
    35    96    95    1
    36    37    38    1
    37    37    36    1
    38    99   100    1
    39   113   114    1
    40   113   110    1
    41    95    97    1
    42    38    39    2
    43   109   110    1
    44    51    49    1
    45   110   111    1
    46   112   111    2
    47    50    49    1
    48    57    56    1
    49    58    56    1
    50    49    46    1
    51    64    63    1
    52    28    27   ar
    53    28    26   ar
    54    56    53    1
    55    27    25   ar
    56    73    71   ar
    57    63    60    1
    58    63    65    1
    59    26    24   ar
    60    25    23   ar
    61    32    31    2
    62    24    23   ar
    63    23    22    1
    64    66    67    1
    65    66    61   am
    66    60    61    1
    67    60    59    1
    68    46    45    1
    69    46    47    1
    70    22    19    1
    71    53    54    1
    72    53    52    1
    73    67    68    1
    74    67    70    1
    75    31    30    1
    76    71    72   ar
    77    71    70    1
    78    61    62    2
    79    47    48    2
    80    54    55    2
    81    68    69    2
    82    19    20    1
    83    19    18    1
    84    21    20    2
    85    20    29   am
    86    34    35    1
    87    34    33    1
    88    29    35    1
    89    29    30    1
    90    13    15   ar
    91    13    12   ar
    92    30    33    1
    93    15    17   ar
    94    11    12    1
    95    11     8    1
    96    12    14   ar
    97    10     9    2
    98    17    16   ar
    99    14    16   ar
   100     9     8    1
   101     8     7    1
   102     4     3    2
   103     5     6    1
   104     5     2    1
   105     3     2    1
   106     1     2    1
   107   121   120    1
   108   121   122    1
   109   120   117    1
   110   123   122    1
   111   123   124    1
   112   119   118    2
   113   117   118    1
   114   117   116    1
