@<TRIPOS>MOLECULE
tmp/3sgkC00.pdb
 91 85 0 0 0
SMALL
GASTEIGER

@<TRIPOS>ATOM
      1  N          3.2580   24.6510  -24.5940 N.3   111  LYS111     -0.1245
      2  CA         3.2360   23.9680  -23.3060 C.3   111  LYS111      0.1561
      3  C          3.3800   25.0090  -22.2110 C.2   111  LYS111      0.2260
      4  O          4.3830   25.0310  -21.4820 O.2   111  LYS111     -0.2867
      5  CB         4.3170   22.8910  -23.2160 C.3   111  LYS111      0.0271
      6  CG         4.2000   21.8620  -24.3070 C.3   111  LYS111      0.0035
      7  CD         4.8710   20.5580  -23.9520 C.3   111  LYS111      0.0206
      8  CE         4.6520   19.5880  -25.0940 C.3   111  LYS111      0.1093
      9  NZ         4.7010   18.1970  -24.6220 N.3   111  LYS111     -0.1314
     10  N          2.0630   27.2110  -18.9000 N.3   113  THR113     -0.1218
     11  CA         1.3700   27.0490  -17.6350 C.3   113  THR113      0.1862
     12  C          1.3440   28.3410  -16.8620 C.2   113  THR113      0.2287
     13  O          2.3270   29.0720  -16.8150 O.2   113  THR113     -0.2866
     14  CB         2.0050   25.9650  -16.7640 C.3   113  THR113      0.1770
     15  OG1        2.1630   24.7700  -17.5430 O.3   113  THR113     -0.2211
     16  CG2        1.1300   25.6600  -15.5580 C.3   113  THR113      0.0375
     17  N          0.8510   29.6060  -13.1290 N.3   115  LEU115     -0.1245
     18  CA         0.9770   29.0490  -11.7930 C.3   115  LEU115      0.1561
     19  C          0.4190   30.0120  -10.7700 C.2   115  LEU115      0.2260
     20  O          0.5610   31.2210  -10.9080 O.2   115  LEU115     -0.2867
     21  CB         2.4360   28.6840  -11.4990 C.3   115  LEU115      0.0270
     22  CG         2.9410   27.5540  -12.4140 C.3   115  LEU115      0.0019
     23  CD1        3.6400   28.1050  -13.6600 C.3   115  LEU115      0.0001
     24  CD2        3.8260   26.5610  -11.6630 C.3   115  LEU115      0.0001
     25  N          2.8400   28.5890   -6.9010 N.3   118  GLY118     -0.1210
     26  CA         3.6510   27.4190   -7.2240 C.3   118  GLY118      0.1956
     27  C          2.8870   26.2100   -7.7480 C.2   118  GLY118      0.2611
     28  O          3.5020   25.2230   -8.1290 O.2   118  GLY118     -0.2717
     29  N          1.5540   26.2770   -7.7630 N.am  119  LYS119     -0.1979
     30  CA         0.7300   25.1890   -8.2710 C.3   119  LYS119      0.1596
     31  C          0.1490   25.5830   -9.6160 C.2   119  LYS119      0.2287
     32  O         -0.3220   26.7070   -9.7840 O.2   119  LYS119     -0.2864
     33  CB        -0.4070   24.8340   -7.2990 C.3   119  LYS119      0.0298
     34  CG        -0.9410   23.4080   -7.4840 C.3   119  LYS119      0.0038
     35  CD        -2.4410   23.2600   -7.2110 C.3   119  LYS119      0.0206
     36  CE        -2.7300   22.6350   -5.8490 C.3   119  LYS119      0.1093
     37  NZ        -2.2960   23.4920   -4.6980 N.3   119  LYS119     -0.1314
     38  N         -3.0490   25.2290  -17.9670 N.3   123  TYR123     -0.1241
     39  CA        -2.0680   24.8340  -18.9590 C.3   123  TYR123      0.1605
     40  C         -2.6830   24.9270  -20.3470 C.2   123  TYR123      0.2264
     41  O         -3.8230   24.5010  -20.5580 O.2   123  TYR123     -0.2867
     42  CB        -1.6090   23.3880  -18.6870 C.3   123  TYR123      0.0534
     43  CG        -0.9830   22.6980  -19.8890 C.ar  123  TYR123     -0.0201
     44  CD1        0.4030   22.7070  -20.0780 C.ar  123  TYR123     -0.0009
     45  CD2       -1.7750   22.0470  -20.8480 C.ar  123  TYR123     -0.0009
     46  CE1        0.9800   22.0930  -21.1740 C.ar  123  TYR123      0.0417
     47  CE2       -1.1980   21.4240  -21.9570 C.ar  123  TYR123      0.0417
     48  CZ         0.1810   21.4490  -22.1090 C.ar  123  TYR123      0.1957
     49  OH         0.7800   20.8400  -23.1860 O.3   123  TYR123     -0.2866
     50  N          2.9820   33.2140  -11.8210 N.3   144  PHE144     -0.1241
     51  CA         3.9120   33.3520  -12.9430 C.3   144  PHE144      0.1605
     52  C          3.4980   32.4100  -14.0580 C.2   144  PHE144      0.2264
     53  O          2.5940   31.5960  -13.8940 O.2   144  PHE144     -0.2867
     54  CB         5.3990   33.1530  -12.5540 C.3   144  PHE144      0.0534
     55  CG         5.7690   31.7400  -12.1670 C.ar  144  PHE144     -0.0203
     56  CD1        5.4370   31.2250  -10.9070 C.ar  144  PHE144     -0.0042
     57  CD2        6.4980   30.9330  -13.0450 C.ar  144  PHE144     -0.0042
     58  CE1        5.8060   29.9300  -10.5450 C.ar  144  PHE144     -0.0003
     59  CE2        6.8730   29.6480  -12.6910 C.ar  144  PHE144     -0.0003
     60  CZ         6.5220   29.1410  -11.4420 C.ar  144  PHE144     -0.0000
     61  N          5.1450   30.0120  -17.4880 N.3   146  ARG146     -0.1231
     62  CA         6.3070   29.3940  -18.0570 C.3   146  ARG146      0.1694
     63  C          5.9110   28.5890  -19.2980 C.2   146  ARG146      0.2593
     64  O          4.7260   28.2550  -19.4960 O.2   146  ARG146     -0.2718
     65  CB         7.0020   28.5330  -17.0090 C.3   146  ARG146      0.0321
     66  CG         6.2920   27.2590  -16.6440 C.3   146  ARG146      0.0489
     67  CD         7.0610   26.5400  -15.5590 C.3   146  ARG146      0.2205
     68  NE         6.2830   25.4220  -15.0450 N.pl3 146  ARG146     -0.0865
     69  CZ         6.3940   24.9110  -13.8190 C.cat 146  ARG146      0.5346
     70  NH1        7.2740   25.4120  -12.9510 N.pl3 146  ARG146      0.1354
     71  NH2        5.6200   23.8870  -13.4680 N.pl3 146  ARG146      0.1354
     72  N          6.8930   28.3030  -20.1420 N.am  147  GLY147     -0.1942
     73  CA         6.6170   27.5620  -21.3520 C.3   147  GLY147      0.2014
     74  C          7.8600   27.1870  -22.1060 C.2   147  GLY147      0.2638
     75  O          8.9950   27.3350  -21.6230 O.2   147  GLY147     -0.2714
     76  N          7.6450   26.7120  -23.3150 N.am  148  LEU148     -0.1977
     77  CA         8.7190   26.2470  -24.1240 C.3   148  LEU148      0.1596
     78  C          8.8700   27.1660  -25.3310 C.2   148  LEU148      0.2287
     79  O          7.9010   27.3970  -26.0680 O.2   148  LEU148     -0.2864
     80  CB         8.4200   24.8060  -24.5420 C.3   148  LEU148      0.0297
     81  CG         9.1800   23.6800  -23.8340 C.3   148  LEU148      0.0022
     82  CD1        9.2970   23.8580  -22.3230 C.3   148  LEU148      0.0001
     83  CD2        8.5960   22.3130  -24.1960 C.3   148  LEU148      0.0001
     84  N         13.1960   26.0290  -21.9690 N.3   153  ASN153     -0.1240
     85  CA        12.1580   26.1330  -20.9550 C.3   153  ASN153      0.1653
     86  C         12.3620   27.4190  -20.1920 C.2   153  ASN153      0.2266
     87  O         13.3380   27.5570  -19.4520 O.2   153  ASN153     -0.2867
     88  CB        12.2710   24.9390  -20.0170 C.3   153  ASN153      0.1155
     89  CG        11.2820   24.9680  -18.8690 C.2   153  ASN153      0.2627
     90  OD1       10.8280   26.0260  -18.4000 O.2   153  ASN153     -0.2716
     91  ND2       10.9510   23.7760  -18.3990 N.am  153  ASN153     -0.0877
@<TRIPOS>BOND
     1    79    78    2
     2    78    77    1
     3     8     9    1
     4     8     7    1
     5     1     2    1
     6    80    77    1
     7    80    81    1
     8     6     7    1
     9     6     5    1
    10    83    81    1
    11    77    76    1
    12    81    82    1
    13    76    74   am
    14     2     5    1
    15     2     3    1
    16    49    48    1
    17     3     4    2
    18    48    47   ar
    19    48    46   ar
    20    74    75    2
    21    74    73    1
    22    84    85    1
    23    47    45   ar
    24    73    72    1
    25    46    44   ar
    26    85    86    1
    27    85    88    1
    28    45    43   ar
    29    41    40    2
    30    40    39    1
    31    86    87    2
    32    72    63   am
    33    44    43   ar
    34    88    89    1
    35    43    42    1
    36    64    63    2
    37    63    62    1
    38    39    42    1
    39    39    38    1
    40    10    11    1
    41    89    90    2
    42    89    91   am
    43    62    61    1
    44    62    65    1
    45    11    12    1
    46    11    14    1
    47    15    14    1
    48    65    66    1
    49    12    13    2
    50    14    16    1
    51    66    67    1
    52    67    68    1
    53    68    69    2
    54    52    53    2
    55    52    51    1
    56    69    71    1
    57    69    70    1
    58    23    22    1
    59    17    18    1
    60    57    59   ar
    61    57    55   ar
    62    51    54    1
    63    51    50    1
    64    59    60   ar
    65    54    55    1
    66    22    24    1
    67    22    21    1
    68    55    56   ar
    69    18    21    1
    70    18    19    1
    71    60    58   ar
    72    20    19    2
    73    56    58   ar
    74    32    31    2
    75    31    30    1
    76    30    29    1
    77    30    33    1
    78    28    27    2
    79    29    27   am
    80    27    26    1
    81    34    33    1
    82    34    35    1
    83    26    25    1
    84    35    36    1
    85    36    37    1
