@<TRIPOS>MOLECULE
tmp/3sglA01.pdb
 162 159 0 0 0
SMALL
GASTEIGER

@<TRIPOS>ATOM
      1  N         22.5470   -5.2480   33.8840 N.3    31  GLU31      -0.1245
      2  CA        23.8230   -5.7790   34.3460 C.3    31  GLU31       0.1567
      3  C         24.9700   -4.8270   34.0520 C.2    31  GLU31       0.2260
      4  O         25.0310   -4.2430   32.9740 O.2    31  GLU31      -0.2867
      5  CB        24.1120   -7.1150   33.6790 C.3    31  GLU31       0.0388
      6  CG        25.5400   -7.6210   33.9270 C.3    31  GLU31       0.1160
      7  CD        25.8320   -8.9430   33.2570 C.2    31  GLU31       0.3649
      8  OE1       25.3630   -9.1650   32.1320 O.co2  31  GLU31      -0.2457
      9  OE2       26.5430   -9.7750   33.8410 O.co2  31  GLU31      -0.2457
     10  N         28.8400   -4.7710   33.3620 N.3    33  GLY33      -0.1210
     11  CA        29.9080   -5.6720   32.9860 C.3    33  GLY33       0.1956
     12  C         29.4080   -6.9780   32.4310 C.2    33  GLY33       0.2612
     13  O         29.3870   -7.9850   33.1350 O.2    33  GLY33      -0.2717
     14  N         29.0420   -6.9730   31.1570 N.am   34  PHE34      -0.1962
     15  CA        28.6260   -8.1790   30.4810 C.3    34  PHE34       0.1771
     16  C         29.7090   -9.2530   30.4000 C.2    34  PHE34       0.2620
     17  O         29.4320  -10.4280   30.6260 O.2    34  PHE34      -0.2715
     18  CB        28.1340   -7.8460   29.0750 C.3    34  PHE34       0.0574
     19  CG        27.5780   -9.0300   28.3290 C.ar   34  PHE34      -0.0200
     20  CD1       26.2290   -9.3720   28.4480 C.ar   34  PHE34      -0.0042
     21  CD2       28.3980   -9.8220   27.5440 C.ar   34  PHE34      -0.0042
     22  CE1       25.7020  -10.4770   27.7820 C.ar   34  PHE34      -0.0003
     23  CE2       27.8820  -10.9280   26.8850 C.ar   34  PHE34      -0.0003
     24  CZ        26.5250  -11.2540   27.0040 C.ar   34  PHE34      -0.0000
     25  N         30.9160   -8.8720   30.0080 N.am   35  GLY35      -0.1940
     26  CA        32.0100   -9.8180   29.8160 C.3    35  GLY35       0.2014
     27  C         31.7300  -10.9040   28.7820 C.2    35  GLY35       0.2640
     28  O         31.4130  -10.6160   27.6300 O.2    35  GLY35      -0.2714
     29  N         31.8510  -12.1580   29.2120 N.am   36  THR36      -0.1936
     30  CA        31.5930  -13.3140   28.3650 C.3    36  THR36       0.2028
     31  C         30.1230  -13.7510   28.3670 C.2    36  THR36       0.2643
     32  O         29.7950  -14.7770   27.7650 O.2    36  THR36      -0.2714
     33  CB        32.3290  -14.5400   28.8830 C.3    36  THR36       0.1808
     34  OG1       31.9690  -14.7260   30.2530 O.3    36  THR36      -0.2208
     35  CG2       33.8320  -14.3830   28.7790 C.3    36  THR36       0.0379
     36  N         29.2590  -13.0380   29.0890 N.am   37  GLY37      -0.1939
     37  CA        27.8360  -13.3450   29.0620 C.3    37  GLY37       0.2014
     38  C         27.4100  -14.4960   29.9410 C.2    37  GLY37       0.2639
     39  O         26.3370  -15.0330   29.7790 O.2    37  GLY37      -0.2714
     40  N         28.2400  -14.8640   30.9010 N.am   38  LEU38      -0.1963
     41  CA        27.8590  -15.9280   31.8350 C.3    38  LEU38       0.1728
     42  C         26.5210  -15.6880   32.5740 C.2    38  LEU38       0.2616
     43  O         25.6390  -16.5730   32.6210 O.2    38  LEU38      -0.2715
     44  CB        28.9850  -16.2130   32.8430 C.3    38  LEU38       0.0311
     45  CG        28.6640  -17.3260   33.8380 C.3    38  LEU38       0.0022
     46  CD1       28.1950  -18.5710   33.1090 C.3    38  LEU38       0.0001
     47  CD2       29.8720  -17.6300   34.6730 C.3    38  LEU38       0.0001
     48  N         26.3770  -14.5140   33.1750 N.am   39  ASN39      -0.1972
     49  CA        25.1540  -14.2140   33.8830 C.3    39  ASN39       0.1688
     50  C         23.9690  -14.2300   32.9440 C.2    39  ASN39       0.2292
     51  O         22.9190  -14.7390   33.2820 O.2    39  ASN39      -0.2864
     52  CB        25.2650  -12.8660   34.5820 C.3    39  ASN39       0.1181
     53  CG        26.3830  -12.8440   35.5780 C.2    39  ASN39       0.2629
     54  OD1       26.9780  -11.8040   35.8400 O.2    39  ASN39      -0.2716
     55  ND2       26.7100  -14.0100   36.1150 N.am   39  ASN39      -0.0877
     56  N         26.0140   -3.2560   30.2200 N.3    67  PHE67      -0.1227
     57  CA        27.1210   -2.3540   29.9050 C.3    67  PHE67       0.1736
     58  C         28.4690   -3.0780   29.8680 C.2    67  PHE67       0.2595
     59  O         28.7930   -3.8530   30.7700 O.2    67  PHE67      -0.2718
     60  CB        27.1520   -1.2550   30.9560 C.3    67  PHE67       0.0547
     61  CG        25.8620   -0.4930   31.0390 C.ar   67  PHE67      -0.0202
     62  CD1       25.6740    0.6570   30.2880 C.ar   67  PHE67      -0.0042
     63  CD2       24.8190   -0.9650   31.8060 C.ar   67  PHE67      -0.0042
     64  CE1       24.4820    1.3410   30.3320 C.ar   67  PHE67      -0.0003
     65  CE2       23.6130   -0.2870   31.8690 C.ar   67  PHE67      -0.0003
     66  CZ        23.4410    0.8680   31.1270 C.ar   67  PHE67      -0.0000
     67  N         29.2500   -2.8330   28.8220 N.am   68  GLU68      -0.1965
     68  CA        30.5770   -3.4020   28.7760 C.3    68  GLU68       0.1733
     69  C         31.5850   -2.4280   28.1770 C.2    68  GLU68       0.2616
     70  O         31.4730   -2.0700   27.0120 O.2    68  GLU68      -0.2715
     71  CB        30.5510   -4.7430   28.0160 C.3    68  GLU68       0.0429
     72  CG        31.9110   -5.3740   27.7620 C.3    68  GLU68       0.1163
     73  CD        32.7030   -5.5300   29.0290 C.2    68  GLU68       0.3649
     74  OE1       32.2500   -6.2690   29.9430 O.co2  68  GLU68      -0.2457
     75  OE2       33.7680   -4.8740   29.1300 O.co2  68  GLU68      -0.2457
     76  N         32.5850   -2.0460   28.9710 N.am   69  LYS69      -0.1963
     77  CA        33.6750   -1.1610   28.5160 C.3    69  LYS69       0.1728
     78  C         34.6960   -1.8010   27.5570 C.2    69  LYS69       0.2616
     79  O         35.2280   -1.1370   26.6740 O.2    69  LYS69      -0.2715
     80  CB        34.4210   -0.5850   29.7150 C.3    69  LYS69       0.0311
     81  CG        35.1920    0.6520   29.3700 C.3    69  LYS69       0.0038
     82  CD        36.0870    1.1440   30.5200 C.3    69  LYS69       0.0206
     83  CE        36.8900    2.3670   30.0540 C.3    69  LYS69       0.1093
     84  NZ        37.8890    2.7900   31.0490 N.3    69  LYS69      -0.1314
     85  N         34.9850   -3.0820   27.7650 N.am   70  TYR70      -0.1974
     86  CA        35.9610   -3.8180   26.9550 C.3    70  TYR70       0.1639
     87  C         35.3520   -5.0370   26.2430 C.2    70  TYR70       0.2290
     88  O         35.6640   -6.1890   26.5460 O.2    70  TYR70      -0.2864
     89  CB        37.1540   -4.2140   27.8310 C.3    70  TYR70       0.0560
     90  CG        37.7710   -3.0250   28.5650 C.ar   70  TYR70      -0.0198
     91  CD1       38.4300   -1.9950   27.8530 C.ar   70  TYR70      -0.0009
     92  CD2       37.6900   -2.9190   29.9640 C.ar   70  TYR70      -0.0009
     93  CE1       39.0040   -0.9290   28.5110 C.ar   70  TYR70       0.0417
     94  CE2       38.2600   -1.8640   30.6250 C.ar   70  TYR70       0.0417
     95  CZ        38.9260   -0.8700   29.8960 C.ar   70  TYR70       0.1957
     96  OH        39.4900    0.2050   30.5640 O.3    70  TYR70      -0.2866
     97  N         34.7190   -8.1060   24.3590 N.3    72  LEU72      -0.1245
     98  CA        35.5750   -9.1570   23.7980 C.3    72  LEU72       0.1561
     99  C         35.2670   -9.4690   22.3440 C.2    72  LEU72       0.2260
    100  O         34.2600   -9.0450   21.8080 O.2    72  LEU72      -0.2867
    101  CB        35.3720  -10.4240   24.6110 C.3    72  LEU72       0.0270
    102  CG        36.3900  -10.8700   25.6600 C.3    72  LEU72       0.0019
    103  CD1       37.6030   -9.9410   25.7560 C.3    72  LEU72       0.0001
    104  CD2       35.6670  -11.0280   26.9610 C.3    72  LEU72       0.0001
    105  N         30.5220    0.7090   26.1290 N.3   122  GLY122     -0.1210
    106  CA        31.2100    1.8960   26.6240 C.3   122  GLY122      0.1956
    107  C         31.3790    1.7990   28.1290 C.2   122  GLY122      0.2612
    108  O         30.8630    0.8730   28.7670 O.2   122  GLY122     -0.2717
    109  N         32.1030    2.7690   28.6980 N.am  123  ASP123     -0.1959
    110  CA        32.2750    2.8960   30.1540 C.3   123  ASP123      0.1840
    111  C         30.9690    3.3580   30.7630 C.2   123  ASP123      0.2622
    112  O         30.4320    4.4210   30.3950 O.2   123  ASP123     -0.2715
    113  CB        33.3730    3.9100   30.4590 C.3   123  ASP123      0.1450
    114  CG        33.5910    4.1350   31.9530 C.2   123  ASP123      0.3671
    115  OD1       32.9610    3.4710   32.8190 O.co2 123  ASP123     -0.2456
    116  OD2       34.4360    4.9990   32.2450 O.co2 123  ASP123     -0.2456
    117  N         30.4890    2.5640   31.7160 N.am  124  VAL124     -0.1963
    118  CA        29.1630    2.7490   32.3110 C.3   124  VAL124      0.1727
    119  C         29.0150    4.1310   32.9090 C.2   124  VAL124      0.2616
    120  O         28.0270    4.8220   32.6300 O.2   124  VAL124     -0.2715
    121  CB        28.7710    1.5930   33.3200 C.3   124  VAL124      0.0290
    122  CG1       29.8740    1.2750   34.2550 C.3   124  VAL124      0.0023
    123  CG2       27.5530    1.9480   34.0880 C.3   124  VAL124      0.0023
    124  N         30.0150    4.5610   33.6670 N.am  125  ASN125     -0.1972
    125  CA        29.9790    5.8990   34.2700 C.3   125  ASN125      0.1688
    126  C         29.8260    7.0270   33.2570 C.2   125  ASN125      0.2292
    127  O         29.2220    8.0490   33.5410 O.2   125  ASN125     -0.2864
    128  CB        31.1850    6.1180   35.1890 C.3   125  ASN125      0.1181
    129  CG        31.0880    5.2830   36.4630 C.2   125  ASN125      0.2629
    130  OD1       31.9700    4.4720   36.7460 O.2   125  ASN125     -0.2716
    131  ND2       29.9710    5.4220   37.1940 N.am  125  ASN125     -0.0877
    132  N         27.7790   -6.6890   38.7900 N.3   145  ASP145     -0.1225
    133  CA        29.0590   -7.3710   38.6590 C.3   145  ASP145      0.1805
    134  C         30.0880   -6.3450   38.1790 C.2   145  ASP145      0.2598
    135  O         29.7510   -5.1950   37.8760 O.2   145  ASP145     -0.2718
    136  CB        28.9290   -8.5100   37.6230 C.3   145  ASP145      0.1424
    137  CG        30.0510   -9.5640   37.7110 C.2   145  ASP145      0.3668
    138  OD1       31.1130   -9.3460   38.3350 O.co2 145  ASP145     -0.2456
    139  OD2       29.8560  -10.6500   37.1380 O.co2 145  ASP145     -0.2456
    140  N         31.3390   -6.7740   38.0760 N.am  146  GLY146     -0.1942
    141  CA        32.4150   -5.9320   37.5700 C.3   146  GLY146      0.2014
    142  C         33.7080   -6.4290   38.1680 C.2   146  GLY146      0.2638
    143  O         33.7430   -7.4870   38.7940 O.2   146  GLY146     -0.2714
    144  N         34.7760   -5.6670   37.9990 N.am  147  PHE147     -0.1973
    145  CA        36.0260   -6.0290   38.6490 C.3   147  PHE147      0.1639
    146  C         35.8420   -6.0230   40.1830 C.2   147  PHE147      0.2290
    147  O         34.8720   -5.4500   40.7010 O.2   147  PHE147     -0.2864
    148  CB        37.1330   -5.0640   38.2170 C.3   147  PHE147      0.0560
    149  CG        37.4890   -5.1400   36.7410 C.ar  147  PHE147     -0.0200
    150  CD1       37.7700   -6.3750   36.1300 C.ar  147  PHE147     -0.0042
    151  CD2       37.6220   -3.9660   35.9850 C.ar  147  PHE147     -0.0042
    152  CE1       38.1390   -6.4500   34.7870 C.ar  147  PHE147     -0.0003
    153  CE2       38.0060   -4.0150   34.6400 C.ar  147  PHE147     -0.0003
    154  CZ        38.2600   -5.2660   34.0370 C.ar  147  PHE147     -0.0000
    155  N         37.1420    1.8700   40.3500 N.3   154  ASP154     -0.1239
    156  CA        36.7900    2.9600   39.4360 C.3   154  ASP154      0.1674
    157  C         35.3180    3.0340   39.0370 C.2   154  ASP154      0.2266
    158  O         34.8180    4.1150   38.7200 O.2   154  ASP154     -0.2867
    159  CB        37.6720    2.9230   38.1810 C.3   154  ASP154      0.1410
    160  CG        39.0740    3.5360   38.4070 C.2   154  ASP154      0.3668
    161  OD1       39.4960    3.7410   39.5760 O.co2 154  ASP154     -0.2456
    162  OD2       39.7620    3.8080   37.3920 O.co2 154  ASP154     -0.2456
@<TRIPOS>BOND
     1   100    99    2
     2    99    98    1
     3    98    97    1
     4    98   101    1
     5   101   102    1
     6   102   103    1
     7   102   104    1
     8   105   106    1
     9    87    88    2
    10    87    86    1
    11   106   107    1
    12    79    78    2
    13    23    24   ar
    14    23    21   ar
    15    86    85    1
    16    86    89    1
    17    24    22   ar
    18    70    69    2
    19    21    19   ar
    20    78    85   am
    21    78    77    1
    22    28    27    2
    23    72    71    1
    24    72    73    1
    25    32    31    2
    26    22    20   ar
    27    89    90    1
    28    91    93   ar
    29    91    90   ar
    30    71    68    1
    31   107   109   am
    32   107   108    2
    33    69    68    1
    34    69    76   am
    35    19    20   ar
    36    19    18    1
    37    30    31    1
    38    30    33    1
    39    30    29    1
    40    31    36   am
    41    93    95   ar
    42    77    76    1
    43    77    80    1
    44    90    92   ar
    45   109   110    1
    46    68    67    1
    47    35    33    1
    48    27    29   am
    49    27    26    1
    50    67    58   am
    51    33    34    1
    52    73    75   ar
    53    73    74   ar
    54    37    36    1
    55    37    38    1
    56    18    15    1
    57    81    80    1
    58    81    82    1
    59    39    38    2
    60    26    25    1
    61    58    57    1
    62    58    59    2
    63    95    96    1
    64    95    94   ar
    65    57    56    1
    66    57    60    1
    67    38    40   am
    68    92    94   ar
    69    25    16   am
    70    83    82    1
    71    83    84    1
    72   110   113    1
    73   110   111    1
    74    62    64   ar
    75    62    61   ar
    76    64    66   ar
    77   112   111    2
    78    16    15    1
    79    16    17    2
    80   113   114    1
    81    15    14    1
    82   111   117   am
    83    40    41    1
    84    60    61    1
    85    61    63   ar
    86    66    65   ar
    87    14    12   am
    88   117   118    1
    89    63    65   ar
    90    41    42    1
    91    41    44    1
    92   114   116   ar
    93   114   115   ar
    94     8     7   ar
    95   118   119    1
    96   118   121    1
    97    12    11    1
    98    12    13    2
    99    42    43    2
   100    42    48   am
   101   120   119    2
   102    44    45    1
   103   119   124   am
   104    50    51    2
   105    50    49    1
   106     4     3    2
   107    11    10    1
   108    46    45    1
   109    48    49    1
   110     7     9   ar
   111     7     6    1
   112   126   127    2
   113   126   125    1
   114   121   123    1
   115   121   122    1
   116   124   125    1
   117     5     6    1
   118     5     2    1
   119    45    47    1
   120    49    52    1
   121     1     2    1
   122   154   153   ar
   123   154   152   ar
   124     3     2    1
   125   125   128    1
   126    52    53    1
   127   153   151   ar
   128   152   150   ar
   129   128   129    1
   130    53    54    2
   131    53    55   am
   132   151   149   ar
   133   150   149   ar
   134   129   130    2
   135   129   131   am
   136   149   148    1
   137   139   137   ar
   138   162   160   ar
   139   141   140    1
   140   141   142    1
   141   136   137    1
   142   136   133    1
   143   137   138   ar
   144   135   134    2
   145   144   142   am
   146   144   145    1
   147   140   134   am
   148   142   143    2
   149   134   133    1
   150   159   160    1
   151   159   156    1
   152   148   145    1
   153   160   161   ar
   154   145   146    1
   155   133   132    1
   156   158   157    2
   157   157   156    1
   158   156   155    1
   159   146   147    2
