@<TRIPOS>MOLECULE
tmp/3sgtA00.pdb
 186 173 0 0 0
SMALL
GASTEIGER

@<TRIPOS>ATOM
      1  N         -2.3420    1.4720    2.2580 N.3    13  MET13      -0.1245
      2  CA        -2.4240    1.6010    0.8390 C.3    13  MET13       0.1570
      3  C         -2.3380    3.1280    0.5990 C.2    13  MET13       0.2261
      4  O         -3.2380    3.8740    1.0260 O.2    13  MET13      -0.2867
      5  CB        -3.7820    0.9900    0.3590 C.3    13  MET13       0.0387
      6  CG        -3.9780   -0.5150    0.8450 C.3    13  MET13       0.0595
      7  SD        -5.5840   -1.0810    0.1840 S.3    13  MET13      -0.1393
      8  CE        -6.8080   -0.1120    0.9980 C.3    13  MET13       0.0692
      9  N         -6.5330   -3.5270   -4.9160 N.3    38  VAL38      -0.1245
     10  CA        -7.0710   -4.2750   -3.7630 C.3    38  VAL38       0.1561
     11  C         -7.4850   -5.6930   -4.1930 C.2    38  VAL38       0.2260
     12  O         -7.0950   -6.6940   -3.5500 O.2    38  VAL38      -0.2867
     13  CB        -8.2440   -3.5350   -3.1360 C.3    38  VAL38       0.0252
     14  CG1       -9.0430   -4.4880   -2.1680 C.3    38  VAL38       0.0019
     15  CG2       -7.7780   -2.2530   -2.4170 C.3    38  VAL38       0.0019
     16  N         -6.3990   -4.1000    5.6310 N.3    55  LEU55      -0.1245
     17  CA        -6.1060   -3.0190    4.6940 C.3    55  LEU55       0.1561
     18  C         -6.5680   -1.6850    5.2780 C.2    55  LEU55       0.2260
     19  O         -7.6790   -1.5740    5.8240 O.2    55  LEU55      -0.2867
     20  CB        -6.8210   -3.2130    3.3400 C.3    55  LEU55       0.0270
     21  CG        -6.4590   -4.5370    2.6110 C.3    55  LEU55       0.0019
     22  CD1       -7.2610   -4.6100    1.2540 C.3    55  LEU55       0.0001
     23  CD2       -4.9330   -4.6510    2.3690 C.3    55  LEU55       0.0001
     24  N         -6.9870    2.2820    4.0610 N.3    57  ALA57      -0.1245
     25  CA        -6.9470    3.2810    2.9430 C.3    57  ALA57       0.1562
     26  C         -6.4700    4.6010    3.4900 C.2    57  ALA57       0.2260
     27  O         -7.2180    5.2950    4.1530 O.2    57  ALA57      -0.2867
     28  CB        -8.2960    3.4420    2.3290 C.3    57  ALA57       0.0290
     29  N         -5.7510    8.3620    3.8710 N.3    59  SER59      -0.1217
     30  CA        -6.1580    9.6210    3.2090 C.3    59  SER59       0.1889
     31  C         -5.2930   10.7790    3.7360 C.2    59  SER59       0.2288
     32  O         -4.6150   11.4390    2.9470 O.2    59  SER59      -0.2866
     33  CB        -7.6540    9.8480    3.4040 C.3    59  SER59       0.2089
     34  OG        -8.0140    9.5840    4.7640 O.3    59  SER59      -0.2183
     35  N        -14.6530   13.7220    5.3450 N.3    67  VAL67      -0.1245
     36  CA       -15.3340   12.5300    5.9160 C.3    67  VAL67       0.1561
     37  C        -16.3840   11.9840    4.9370 C.2    67  VAL67       0.2260
     38  O        -16.4360   10.7740    4.6170 O.2    67  VAL67      -0.2867
     39  CB       -16.0240   12.8700    7.2990 C.3    67  VAL67       0.0252
     40  CG1      -17.1210   11.8300    7.6960 C.3    67  VAL67       0.0019
     41  CG2      -14.9940   13.0150    8.3770 C.3    67  VAL67       0.0019
     42  N        -14.9000   10.2080    2.0160 N.3    70  LEU70      -0.1231
     43  CA       -14.3590    8.9160    2.4850 C.3    70  LEU70       0.1693
     44  C        -15.4600    7.9010    2.7790 C.2    70  LEU70       0.2591
     45  O        -15.3020    6.6590    2.5500 O.2    70  LEU70      -0.2718
     46  CB       -13.4680    9.1340    3.7010 C.3    70  LEU70       0.0284
     47  CG       -12.1930    9.9490    3.3840 C.3    70  LEU70       0.0019
     48  CD1      -11.5390   10.4650    4.6520 C.3    70  LEU70       0.0001
     49  CD2      -11.2040    9.0940    2.5190 C.3    70  LEU70       0.0001
     50  N        -16.5670    8.4150    3.3170 N.am   71  MET71      -0.1979
     51  CA       -17.7370    7.6010    3.5790 C.3    71  MET71       0.1605
     52  C        -18.2770    7.0580    2.2650 C.2    71  MET71       0.2287
     53  O        -18.5760    5.8610    2.1640 O.2    71  MET71      -0.2864
     54  CB       -18.8060    8.4450    4.3040 C.3    71  MET71       0.0413
     55  CG       -20.0150    7.6310    4.7510 C.3    71  MET71       0.0598
     56  SD       -19.7010    6.7670    6.3230 S.3    71  MET71      -0.1393
     57  CE       -19.7270    8.1670    7.4620 C.3    71  MET71       0.0692
     58  N        -16.6900    6.7740   -0.5290 N.3    73  LEU73      -0.1231
     59  CA       -15.7120    5.7750   -1.0780 C.3    73  LEU73       0.1693
     60  C        -15.8420    4.3720   -0.4180 C.2    73  LEU73       0.2592
     61  O        -15.7270    3.3040   -1.0730 O.2    73  LEU73      -0.2718
     62  CB       -14.2810    6.3070   -0.9700 C.3    73  LEU73       0.0284
     63  CG       -13.3050    5.6110   -1.9110 C.3    73  LEU73       0.0019
     64  CD1      -13.5450    6.1410   -3.3330 C.3    73  LEU73       0.0001
     65  CD2      -11.8140    5.8220   -1.4470 C.3    73  LEU73       0.0001
     66  N        -16.0990    4.3730    0.8760 N.am   74  PHE74      -0.1976
     67  CA       -16.3770    3.0990    1.5590 C.3    74  PHE74       0.1639
     68  C        -17.6690    2.4210    1.0610 C.2    74  PHE74       0.2290
     69  O        -17.7080    1.1770    0.8120 O.2    74  PHE74      -0.2864
     70  CB       -16.4100    3.3450    3.0720 C.3    74  PHE74       0.0560
     71  CG       -16.7230    2.1250    3.8600 C.ar   74  PHE74      -0.0200
     72  CD1      -15.7510    1.1720    4.1030 C.ar   74  PHE74      -0.0042
     73  CD2      -18.0200    1.8970    4.2770 C.ar   74  PHE74      -0.0042
     74  CE1      -16.0950   -0.0120    4.8120 C.ar   74  PHE74      -0.0003
     75  CE2      -18.3500    0.7740    4.9760 C.ar   74  PHE74      -0.0003
     76  CZ       -17.3830   -0.1820    5.2700 C.ar   74  PHE74      -0.0000
     77  N        -17.1460    1.0000   -2.3670 N.3    77  ALA77      -0.1231
     78  CA       -16.2810   -0.1560   -2.3240 C.3    77  ALA77       0.1694
     79  C        -17.0270   -1.3740   -1.7430 C.2    77  ALA77       0.2591
     80  O        -16.9420   -2.4540   -2.3140 O.2    77  ALA77      -0.2718
     81  CB       -14.9730    0.1430   -1.5860 C.3    77  ALA77       0.0304
     82  N        -17.7850   -1.1960   -0.6530 N.am   78  LEU78      -0.1980
     83  CA       -18.4780   -2.3110   -0.0070 C.3    78  LEU78       0.1596
     84  C        -19.5410   -2.9180   -0.9390 C.2    78  LEU78       0.2287
     85  O        -19.5610   -4.1140   -1.1850 O.2    78  LEU78      -0.2864
     86  CB       -19.0880   -1.8550    1.3300 C.3    78  LEU78       0.0297
     87  CG       -19.8920   -2.8610    2.1550 C.3    78  LEU78       0.0022
     88  CD1      -18.9650   -3.9310    2.8070 C.3    78  LEU78       0.0001
     89  CD2      -20.7390   -2.1600    3.2100 C.3    78  LEU78       0.0001
     90  N        -17.7620   -4.7510   -3.9010 N.3    81  GLU81      -0.1231
     91  CA       -16.7620   -5.8320   -3.7180 C.3    81  GLU81       0.1699
     92  C        -17.2870   -7.0670   -2.9720 C.2    81  GLU81       0.2592
     93  O        -16.6340   -8.0880   -3.0450 O.2    81  GLU81      -0.2718
     94  CB       -15.4840   -5.3320   -2.9730 C.3    81  GLU81       0.0402
     95  CG       -14.6770   -4.2030   -3.6830 C.3    81  GLU81       0.1161
     96  CD       -14.3280   -4.4860   -5.1480 C.2    81  GLU81       0.3649
     97  OE1      -13.8120   -5.5750   -5.4310 O.co2  81  GLU81      -0.2457
     98  OE2      -14.5450   -3.5990   -6.0110 O.co2  81  GLU81      -0.2457
     99  N        -18.4150   -6.9730   -2.2430 N.am   82  VAL82      -0.1980
    100  CA       -18.7590   -8.0220   -1.2880 C.3    82  VAL82       0.1595
    101  C        -19.0960   -9.3330   -1.9980 C.2    82  VAL82       0.2287
    102  O        -18.6390  -10.4020   -1.5730 O.2    82  VAL82      -0.2864
    103  CB       -19.8870   -7.6210   -0.2840 C.3    82  VAL82       0.0276
    104  CG1      -20.2800   -8.7830    0.5060 C.3    82  VAL82       0.0022
    105  CG2      -19.4210   -6.5390    0.6670 C.3    82  VAL82       0.0022
    106  N        -15.7890  -10.9340   -3.1660 N.3    85  LEU85      -0.1245
    107  CA       -15.1420  -11.5310   -1.9970 C.3    85  LEU85       0.1561
    108  C        -15.7920  -12.8460   -1.6020 C.2    85  LEU85       0.2260
    109  O        -15.0780  -13.8140   -1.3160 O.2    85  LEU85      -0.2867
    110  CB       -15.1510  -10.5930   -0.7490 C.3    85  LEU85       0.0270
    111  CG       -14.3660   -9.3180   -1.0600 C.3    85  LEU85       0.0019
    112  CD1      -14.5950   -8.2570    0.1090 C.3    85  LEU85       0.0001
    113  CD2      -12.8430   -9.6590   -1.1270 C.3    85  LEU85       0.0001
    114  N        -15.1140  -11.4540    5.3750 N.3    92  LEU92      -0.1245
    115  CA       -14.9350   -9.9980    5.5220 C.3    92  LEU92       0.1561
    116  C        -15.2990   -9.4770    6.9170 C.2    92  LEU92       0.2260
    117  O        -16.3830   -9.7930    7.4510 O.2    92  LEU92      -0.2867
    118  CB       -15.8440   -9.2810    4.5070 C.3    92  LEU92       0.0270
    119  CG       -15.8240   -7.7750    4.4610 C.3    92  LEU92       0.0019
    120  CD1      -14.4270   -7.1780    4.0850 C.3    92  LEU92       0.0001
    121  CD2      -16.8800   -7.3320    3.4080 C.3    92  LEU92       0.0001
    122  N        -15.1520   -5.5820    9.1850 N.3    94  ILE94      -0.1245
    123  CA       -14.8140   -4.1710    9.1530 C.3    94  ILE94       0.1561
    124  C        -14.3250   -3.8040   10.5390 C.2    94  ILE94       0.2260
    125  O        -15.0220   -4.1280   11.5200 O.2    94  ILE94      -0.2867
    126  CB       -16.0720   -3.2810    8.8260 C.3    94  ILE94       0.0252
    127  CG1      -16.7050   -3.6840    7.4900 C.3    94  ILE94       0.0019
    128  CG2      -15.6920   -1.8060    8.8970 C.3    94  ILE94       0.0019
    129  CD1      -15.7580   -3.9980    6.3400 C.3    94  ILE94       0.0001
    130  N        -21.9430    5.9500   11.6650 N.3   101  PHE101     -0.1241
    131  CA       -22.4440    5.6380   10.3390 C.3   101  PHE101      0.1605
    132  C        -23.9720    5.5080   10.4750 C.2   101  PHE101      0.2264
    133  O        -24.4760    5.0780   11.5280 O.2   101  PHE101     -0.2867
    134  CB       -21.8710    4.3020    9.8300 C.3   101  PHE101      0.0534
    135  CG       -20.4060    4.3420    9.4370 C.ar  101  PHE101     -0.0203
    136  CD1      -19.5190    5.3060    9.9320 C.ar  101  PHE101     -0.0042
    137  CD2      -19.9000    3.3520    8.5870 C.ar  101  PHE101     -0.0042
    138  CE1      -18.1460    5.3080    9.5490 C.ar  101  PHE101     -0.0003
    139  CE2      -18.5390    3.3580    8.1980 C.ar  101  PHE101     -0.0003
    140  CZ       -17.6600    4.3400    8.6940 C.ar  101  PHE101     -0.0000
    141  N        -10.3080  -11.0620    5.6660 N.3   124  LEU124     -0.1245
    142  CA        -9.9690   -9.7300    5.1600 C.3   124  LEU124      0.1561
    143  C        -10.5880   -8.7160    6.0840 C.2   124  LEU124      0.2260
    144  O        -11.8540   -8.5610    6.1660 O.2   124  LEU124     -0.2867
    145  CB       -10.5050   -9.5160    3.7190 C.3   124  LEU124      0.0270
    146  CG       -10.3030   -8.0900    3.1190 C.3   124  LEU124      0.0019
    147  CD1       -8.7770   -7.7970    2.8810 C.3   124  LEU124      0.0001
    148  CD2      -11.0520   -8.0450    1.7030 C.3   124  LEU124      0.0001
    149  N        -11.0960   -4.7880    6.8850 N.3   126  ILE126     -0.1231
    150  CA       -11.0430   -3.5160    6.2130 C.3   126  ILE126      0.1692
    151  C        -11.2480   -2.4300    7.2430 C.2   126  ILE126      0.2592
    152  O        -12.2510   -2.4330    7.9690 O.2   126  ILE126     -0.2718
    153  CB       -12.1370   -3.3750    5.1460 C.3   126  ILE126      0.0266
    154  CG1      -11.9910   -4.4190    4.0390 C.3   126  ILE126      0.0019
    155  CG2      -12.1530   -1.8840    4.6130 C.3   126  ILE126      0.0020
    156  CD1      -10.5960   -4.4520    3.2490 C.3   126  ILE126      0.0001
    157  N        -10.2600   -1.5130    7.3590 N.am  127  ALA127     -0.1966
    158  CA       -10.3680   -0.4660    8.3380 C.3   127  ALA127      0.1728
    159  C        -11.3010    0.6300    7.7780 C.2   127  ALA127      0.2616
    160  O        -11.1710    1.0320    6.6130 O.2   127  ALA127     -0.2715
    161  CB        -8.9500    0.0940    8.6380 C.3   127  ALA127      0.0334
    162  N        -12.3050    1.0340    8.5500 N.am  128  ALA128     -0.1963
    163  CA       -13.1990    2.0860    8.1120 C.3   128  ALA128      0.1728
    164  C        -13.3850    3.0310    9.2840 C.2   128  ALA128      0.2616
    165  O        -13.8130    2.6040   10.3510 O.2   128  ALA128     -0.2715
    166  CB       -14.5770    1.4990    7.6850 C.3   128  ALA128      0.0334
    167  N        -12.9860    4.2790    9.0970 N.am  129  ASN129     -0.1958
    168  CA       -12.9570    5.2280   10.2170 C.3   129  ASN129      0.1819
    169  C        -12.2400    4.6370   11.4070 C.2   129  ASN129      0.2621
    170  O        -12.7320    4.7440   12.5500 O.2   129  ASN129     -0.2715
    171  CB       -14.3880    5.6030   10.6370 C.3   129  ASN129      0.1195
    172  CG       -14.4070    6.8730   11.4990 C.2   129  ASN129      0.2630
    173  OD1      -13.5750    7.7770   11.3020 O.2   129  ASN129     -0.2716
    174  ND2      -15.2940    6.9070   12.4970 N.am  129  ASN129     -0.0877
    175  N        -11.0600    4.0670   11.1180 N.am  130  TYR130     -0.1974
    176  CA       -10.1960    3.3700   12.0850 C.3   130  TYR130      0.1639
    177  C         -9.0120    4.2480   12.5380 C.2   130  TYR130      0.2290
    178  O         -8.3720    4.9090   11.6910 O.2   130  TYR130     -0.2864
    179  CB        -9.6760    2.0380   11.4820 C.3   130  TYR130      0.0560
    180  CG        -8.7510    1.3530   12.4700 C.ar  130  TYR130     -0.0198
    181  CD1       -7.3580    1.7020   12.4860 C.ar  130  TYR130     -0.0009
    182  CD2       -9.2560    0.4560   13.3860 C.ar  130  TYR130     -0.0009
    183  CE1       -6.4950    1.1520   13.4300 C.ar  130  TYR130      0.0417
    184  CE2       -8.3650   -0.1400   14.3840 C.ar  130  TYR130      0.0417
    185  CZ        -7.0030    0.2290   14.3620 C.ar  130  TYR130      0.1957
    186  OH        -6.1410   -0.2710   15.3370 O.3   130  TYR130     -0.2866
@<TRIPOS>BOND
     1    98    96   ar
     2    97    96   ar
     3    96    95    1
     4     9    10    1
     5    11    10    1
     6    11    12    2
     7    90    91    1
     8    10    13    1
     9    91    94    1
    10    91    92    1
    11    95    94    1
    12    64    63    1
    13   106   107    1
    14    13    15    1
    15    13    14    1
    16    93    92    2
    17    92    99   am
    18    77    78    1
    19    78    79    1
    20    78    81    1
    21    80    79    2
    22    99   100    1
    23   101   102    2
    24   101   100    1
    25   107   108    1
    26   107   110    1
    27    63    65    1
    28    63    62    1
    29    79    82   am
    30   108   109    2
    31   100   103    1
    32    85    84    2
    33   113   111    1
    34    59    62    1
    35    59    58    1
    36    59    60    1
    37    61    60    2
    38   111   110    1
    39   111   112    1
    40    84    83    1
    41    82    83    1
    42    60    66   am
    43   103   104    1
    44   103   105    1
    45    83    86    1
    46     7     6    1
    47     7     8    1
    48     5     2    1
    49     5     6    1
    50     3     2    1
    51     3     4    2
    52    69    68    2
    53     2     1    1
    54    66    67    1
    55    68    67    1
    56    22    21    1
    57    86    87    1
    58    67    70    1
    59   148   146    1
    60    42    43    1
    61    87    88    1
    62    87    89    1
    63    53    52    2
    64    52    51    1
    65    28    25    1
    66    23    21    1
    67    43    44    1
    68    43    46    1
    69    49    47    1
    70    45    44    2
    71    21    20    1
    72    44    50   am
    73   147   146    1
    74    25    26    1
    75    25    24    1
    76    32    31    2
    77    70    71    1
    78   146   145    1
    79    30    33    1
    80    30    31    1
    81    30    29    1
    82   156   154    1
    83    50    51    1
    84    20    17    1
    85    47    46    1
    86    47    48    1
    87    33    34    1
    88   121   119    1
    89    26    27    2
    90    51    54    1
    91   145   142    1
    92    71    72   ar
    93    71    73   ar
    94   154   153    1
    95   120   119    1
    96    72    74   ar
    97    73    75   ar
    98    54    55    1
    99   119   118    1
   100   118   115    1
   101   155   153    1
   102    38    37    2
   103    17    18    1
   104    17    16    1
   105    55    56    1
   106    74    76   ar
   107    37    36    1
   108    75    76   ar
   109   153   150    1
   110   142   141    1
   111   142   143    1
   112    18    19    2
   113    35    36    1
   114   114   115    1
   115   115   116    1
   116    36    39    1
   117   143   144    2
   118   150   149    1
   119   150   151    1
   120    56    57    1
   121   129   127    1
   122   160   159    2
   123   116   117    2
   124   151   157   am
   125   151   152    2
   126    39    40    1
   127    39    41    1
   128   157   158    1
   129   127   126    1
   130   166   163    1
   131   159   158    1
   132   159   162   am
   133   163   162    1
   134   163   164    1
   135   139   137   ar
   136   139   140   ar
   137   158   161    1
   138   137   135   ar
   139   140   138   ar
   140   126   128    1
   141   126   123    1
   142   167   164   am
   143   167   168    1
   144   123   122    1
   145   123   124    1
   146   164   165    2
   147   135   134    1
   148   135   136   ar
   149   138   136   ar
   150   134   131    1
   151   168   171    1
   152   168   169    1
   153   131   132    1
   154   131   130    1
   155   132   133    2
   156   124   125    2
   157   171   172    1
   158   175   169   am
   159   175   176    1
   160   173   172    2
   161   169   170    2
   162   179   176    1
   163   179   180    1
   164   172   174   am
   165   178   177    2
   166   176   177    1
   167   180   181   ar
   168   180   182   ar
   169   181   183   ar
   170   182   184   ar
   171   183   185   ar
   172   185   184   ar
   173   185   186    1
