@<TRIPOS>MOLECULE
tmp/3sgvB00.pdb
 228 224 0 0 0
SMALL
GASTEIGER

@<TRIPOS>ATOM
      1  N         15.9370    3.9330   19.0710 N.3     8  ILE8       -0.1231
      2  CA        16.1830    2.5550   19.4660 C.3     8  ILE8        0.1692
      3  C         17.6320    2.2630   19.1210 C.2     8  ILE8        0.2592
      4  O         17.9770    2.1460   17.9250 O.2     8  ILE8       -0.2718
      5  CB        15.2590    1.5980   18.6950 C.3     8  ILE8        0.0266
      6  CG1       13.7460    1.8410   19.1210 C.3     8  ILE8        0.0019
      7  CG2       15.6450    0.0830   19.0350 C.3     8  ILE8        0.0020
      8  CD1       12.6670    1.0800   18.2260 C.3     8  ILE8        0.0001
      9  N         18.4660    2.1050   20.1340 N.am    9  MET9       -0.1965
     10  CA        19.9440    2.1010   19.9310 C.3     9  MET9        0.1736
     11  C         20.4300    0.6500   19.8090 C.2     9  MET9        0.2616
     12  O         21.1570    0.1810   20.6180 O.2     9  MET9       -0.2715
     13  CB        20.6010    2.7370   21.1390 C.3     9  MET9        0.0427
     14  CG        20.1270    4.2490   21.2870 C.3     9  MET9        0.0599
     15  SD        20.9090    5.0050   22.7480 S.3     9  MET9       -0.1393
     16  CE        20.2560    4.0860   24.1260 C.3     9  MET9        0.0692
     17  N         20.2740    0.0260   18.6700 N.am   10  ASP10      -0.1957
     18  CA        20.6230   -1.3760   18.4860 C.3    10  ASP10       0.1840
     19  C         21.9960   -1.4200   17.7990 C.2    10  ASP10       0.2623
     20  O         22.2740   -0.6040   16.9110 O.2    10  ASP10      -0.2715
     21  CB        19.5240   -1.9710   17.5900 C.3    10  ASP10       0.1450
     22  CG        19.6120   -3.4730   17.3700 C.2    10  ASP10       0.3671
     23  OD1       20.6280   -4.1220   17.7460 O.co2  10  ASP10      -0.2456
     24  OD2       18.6510   -4.0410   16.7380 O.co2  10  ASP10      -0.2456
     25  N         22.8060   -2.4000   18.1780 N.am   11  GLY11      -0.1940
     26  CA        24.0040   -2.7130   17.3840 C.3    11  GLY11       0.2014
     27  C         25.2840   -2.8340   18.2270 C.2    11  GLY11       0.2639
     28  O         26.3250   -3.1930   17.6580 O.2    11  GLY11      -0.2714
     29  N         25.2230   -2.5520   19.5450 N.am   12  ASN12      -0.1958
     30  CA        26.4670   -2.6620   20.3550 C.3    12  ASN12       0.1819
     31  C         27.0660   -4.0710   20.2850 C.2    12  ASN12       0.2622
     32  O         28.2760   -4.1920   20.1700 O.2    12  ASN12      -0.2715
     33  CB        26.2180   -2.3980   21.8430 C.3    12  ASN12       0.1195
     34  CG        25.8790   -0.9530   22.1820 C.2    12  ASN12       0.2630
     35  OD1       25.8280   -0.0850   21.3180 O.2    12  ASN12      -0.2716
     36  ND2       25.7320   -0.6750   23.4750 N.am   12  ASN12      -0.0877
     37  N         26.2020   -5.1250   20.3730 N.am   13  GLY13      -0.1940
     38  CA        26.6680   -6.5390   20.4040 C.3    13  GLY13       0.2014
     39  C         27.3460   -6.9100   19.1090 C.2    13  GLY13       0.2638
     40  O         28.4590   -7.4420   19.1330 O.2    13  GLY13      -0.2714
     41  N         26.6470   -6.6070   18.0040 N.am   14  ARG14      -0.1977
     42  CA        27.2080   -6.9340   16.7070 C.3    14  ARG14       0.1597
     43  C         28.4530   -6.1370   16.4510 C.2    14  ARG14       0.2287
     44  O         29.3380   -6.6280   15.8210 O.2    14  ARG14      -0.2864
     45  CB        26.2070   -6.6650   15.6110 C.3    14  ARG14       0.0334
     46  CG        25.1000   -7.6700   15.6690 C.3    14  ARG14       0.0492
     47  CD        23.9590   -7.1220   14.8180 C.3    14  ARG14       0.2205
     48  NE        24.3010   -7.3330   13.4360 N.pl3  14  ARG14      -0.0865
     49  CZ        23.5810   -8.1110   12.6350 C.cat  14  ARG14       0.5346
     50  NH1       22.4480   -8.6790   13.1010 N.pl3  14  ARG14       0.1354
     51  NH2       23.9850   -8.3170   11.3740 N.pl3  14  ARG14       0.1354
     52  N         31.3130   -8.4850   24.5050 N.3    23  ARG23      -0.1245
     53  CA        30.1470   -7.5880   24.4950 C.3    23  ARG23       0.1563
     54  C         30.4010   -6.2620   25.2670 C.2    23  ARG23       0.2260
     55  O         30.0230   -5.1810   24.8120 O.2    23  ARG23      -0.2867
     56  CB        28.8960   -8.3540   25.0240 C.3    23  ARG23       0.0307
     57  CG        27.6660   -7.5970   24.6960 C.3    23  ARG23       0.0489
     58  CD        26.3410   -8.3120   25.0910 C.3    23  ARG23       0.2205
     59  NE        25.5260   -8.8430   23.9800 N.pl3  23  ARG23      -0.0865
     60  CZ        24.6850   -8.1250   23.2110 C.cat  23  ARG23       0.5346
     61  NH1       24.5670   -6.8200   23.3600 N.pl3  23  ARG23       0.1354
     62  NH2       23.9870   -8.7170   22.2480 N.pl3  23  ARG23       0.1354
     63  N         29.5110   -2.2750   24.5830 N.3    27  HIS27      -0.1226
     64  CA        28.7110   -1.3930   25.4190 C.3    27  HIS27       0.1752
     65  C         29.4890   -0.1410   25.8520 C.2    27  HIS27       0.2595
     66  O         28.9100    0.9380   25.9530 O.2    27  HIS27      -0.2718
     67  CB        28.2250   -2.1720   26.6260 C.3    27  HIS27       0.0759
     68  CG        27.1250   -3.1090   26.2650 C.ar   27  HIS27       0.0818
     69  ND1       27.0460   -4.4150   26.6750 N.ar   27  HIS27      -0.2268
     70  CD2       26.0300   -2.8780   25.4850 C.ar   27  HIS27       0.1154
     71  CE1       25.9480   -4.9600   26.1710 C.ar   27  HIS27       0.1986
     72  NE2       25.3140   -4.0480   25.4530 N.ar   27  HIS27      -0.2212
     73  N         30.7830   -0.2590   26.0890 N.am   28  LYS28      -0.1980
     74  CA        31.5400    0.9720   26.3630 C.3    28  LYS28       0.1596
     75  C         31.4900    1.9260   25.1380 C.2    28  LYS28       0.2287
     76  O         31.3380    3.1200   25.2870 O.2    28  LYS28      -0.2864
     77  CB        32.9880    0.6490   26.7610 C.3    28  LYS28       0.0298
     78  CG        33.1270   -0.2380   27.9790 C.3    28  LYS28       0.0038
     79  CD        34.6270   -0.5110   28.2850 C.3    28  LYS28       0.0206
     80  CE        35.5490    0.7110   27.9910 C.3    28  LYS28       0.1093
     81  NZ        35.4240    1.9310   28.9030 N.3    28  LYS28      -0.1314
     82  N         29.1400    1.9180   22.9820 N.3    30  GLY30      -0.1210
     83  CA        27.6730    2.2750   22.9280 C.3    30  GLY30       0.1956
     84  C         27.4480    3.5220   23.8310 C.2    30  GLY30       0.2611
     85  O         26.7090    4.4600   23.4710 O.2    30  GLY30      -0.2717
     86  N         28.1100    3.5160   25.0070 N.am   31  ALA31      -0.1979
     87  CA        27.8620    4.6170   25.9640 C.3    31  ALA31       0.1597
     88  C         28.5080    5.8840   25.4040 C.2    31  ALA31       0.2287
     89  O         27.9730    6.9710   25.5710 O.2    31  ALA31      -0.2864
     90  CB        28.5260    4.2600   27.3550 C.3    31  ALA31       0.0319
     91  N         26.0190    7.2060   23.1080 N.3    34  VAL34      -0.1231
     92  CA        24.9380    7.8950   23.8580 C.3    34  VAL34       0.1692
     93  C         25.3410    9.3360   24.1740 C.2    34  VAL34       0.2591
     94  O         24.5920   10.2880   23.8650 O.2    34  VAL34      -0.2718
     95  CB        24.5970    7.2040   25.1460 C.3    34  VAL34       0.0266
     96  CG1       23.5620    8.1060   25.9760 C.3    34  VAL34       0.0020
     97  CG2       23.9180    5.7920   24.7800 C.3    34  VAL34       0.0020
     98  N         26.5350    9.5090   24.7610 N.am   35  ARG35      -0.1980
     99  CA        26.9660   10.8590   25.1410 C.3    35  ARG35       0.1597
    100  C         26.9820   11.7940   23.9060 C.2    35  ARG35       0.2287
    101  O         26.6000   12.9700   23.9810 O.2    35  ARG35      -0.2864
    102  CB        28.3610   10.7500   25.8250 C.3    35  ARG35       0.0334
    103  CG        28.3100    9.9770   27.1620 C.3    35  ARG35       0.0492
    104  CD        29.6990   10.1180   28.0310 C.3    35  ARG35       0.2205
    105  NE        29.6690    8.9620   28.9490 N.pl3  35  ARG35      -0.0865
    106  CZ        30.2320    7.7600   28.7250 C.cat  35  ARG35       0.5346
    107  NH1       31.0170    7.5360   27.6660 N.pl3  35  ARG35       0.1354
    108  NH2       30.0720    6.8030   29.6340 N.pl3  35  ARG35       0.1354
    109  N         16.2080    4.2680   23.9800 N.3    52  TYR52      -0.1227
    110  CA        15.8040    2.9020   24.3510 C.3    52  TYR52       0.1736
    111  C         17.0170    2.0010   23.9590 C.2    52  TYR52       0.2595
    112  O         17.5570    2.0330   22.7930 O.2    52  TYR52      -0.2718
    113  CB        14.6030    2.4730   23.5060 C.3    52  TYR52       0.0548
    114  CG        14.0960    1.1030   23.7960 C.ar   52  TYR52      -0.0200
    115  CD1       14.4670   -0.0200   23.0410 C.ar   52  TYR52      -0.0009
    116  CD2       13.1600    0.9120   24.8060 C.ar   52  TYR52      -0.0009
    117  CE1       13.9100   -1.2800   23.2650 C.ar   52  TYR52       0.0417
    118  CE2       12.6060   -0.3680   24.9980 C.ar   52  TYR52       0.0417
    119  CZ        12.9910   -1.4500   24.2350 C.ar   52  TYR52       0.1957
    120  OH        12.4800   -2.6990   24.4660 O.3    52  TYR52      -0.2866
    121  N         17.4700    1.1880   24.9050 N.am   53  ALA53      -0.1966
    122  CA        18.6870    0.3310   24.7400 C.3    53  ALA53       0.1728
    123  C         18.4730   -1.1410   24.9980 C.2    53  ALA53       0.2616
    124  O         19.3990   -1.9560   24.9190 O.2    53  ALA53      -0.2715
    125  CB        19.7430    0.8830   25.8020 C.3    53  ALA53       0.0334
    126  N         17.2110   -1.4890   25.3200 N.am   54  PHE54      -0.1960
    127  CA        16.9420   -2.8280   25.8340 C.3    54  PHE54       0.1771
    128  C         17.0530   -3.9610   24.7970 C.2    54  PHE54       0.2620
    129  O         16.5140   -3.8550   23.6940 O.2    54  PHE54      -0.2715
    130  CB        15.5280   -2.8880   26.4700 C.3    54  PHE54       0.0574
    131  CG        15.2230   -4.2540   27.0050 C.ar   54  PHE54      -0.0200
    132  CD1       15.6980   -4.6520   28.2650 C.ar   54  PHE54      -0.0042
    133  CD2       14.4820   -5.1760   26.2570 C.ar   54  PHE54      -0.0042
    134  CE1       15.4070   -5.9570   28.7690 C.ar   54  PHE54      -0.0003
    135  CE2       14.1770   -6.4280   26.7540 C.ar   54  PHE54      -0.0003
    136  CZ        14.6620   -6.8410   28.0110 C.ar   54  PHE54      -0.0000
    137  N         17.7600   -5.0270   25.1700 N.am   55  SER55      -0.1950
    138  CA        17.7680   -6.2700   24.4010 C.3    55  SER55       0.1924
    139  C         17.7150   -7.3870   25.4400 C.2    55  SER55       0.2314
    140  O         18.4960   -7.3740   26.3460 O.2    55  SER55      -0.2863
    141  CB        19.0550   -6.3610   23.6050 C.3    55  SER55       0.2116
    142  OG        19.1340   -7.6490   23.0120 O.3    55  SER55      -0.2180
    143  N         18.8160  -10.3300   25.2650 N.3    57  GLU57      -0.1231
    144  CA        20.1840  -10.9450   25.2400 C.3    57  GLU57       0.1699
    145  C         21.0560  -10.4540   26.3780 C.2    57  GLU57       0.2592
    146  O         21.6790  -11.2760   27.1050 O.2    57  GLU57      -0.2718
    147  CB        20.9740  -10.6270   23.9370 C.3    57  GLU57       0.0402
    148  CG        20.2020  -10.3350   22.6690 C.3    57  GLU57       0.1161
    149  CD        21.0820   -9.6360   21.5970 C.2    57  GLU57       0.3649
    150  OE1       20.9930   -8.3480   21.4250 O.co2  57  GLU57      -0.2457
    151  OE2       21.8660  -10.4030   20.9600 O.co2  57  GLU57      -0.2457
    152  N         21.1110   -9.1250   26.5320 N.am   58  ASN58      -0.1974
    153  CA        21.9570   -8.4930   27.5560 C.3    58  ASN58       0.1688
    154  C         21.5360   -8.8350   28.9890 C.2    58  ASN58       0.2292
    155  O         22.3340   -8.7350   29.8730 O.2    58  ASN58      -0.2864
    156  CB        22.0030   -6.9720   27.3630 C.3    58  ASN58       0.1181
    157  CG        22.6980   -6.6070   26.0760 C.2    58  ASN58       0.2629
    158  OD1       23.7120   -7.2100   25.7190 O.2    58  ASN58      -0.2716
    159  ND2       22.1640   -5.6120   25.3590 N.am   58  ASN58      -0.0877
    160  N         25.4260   -0.9020   37.7810 N.3    72  LEU72      -0.1231
    161  CA        26.2420   -0.1840   36.7690 C.3    72  LEU72       0.1693
    162  C         25.3990    0.8460   36.0280 C.2    72  LEU72       0.2592
    163  O         25.9100    1.9080   35.6600 O.2    72  LEU72      -0.2718
    164  CB        26.8340   -1.1580   35.7390 C.3    72  LEU72       0.0284
    165  CG        27.9680   -1.9460   36.3560 C.3    72  LEU72       0.0019
    166  CD1       28.4420   -3.0380   35.3550 C.3    72  LEU72       0.0001
    167  CD2       29.1270   -1.0550   36.7780 C.3    72  LEU72       0.0001
    168  N         24.1320    0.5370   35.7640 N.am   73  PHE73      -0.1976
    169  CA        23.2530    1.5470   35.1890 C.3    73  PHE73       0.1639
    170  C         23.1600    2.7580   36.0650 C.2    73  PHE73       0.2290
    171  O         23.2130    3.9100   35.5720 O.2    73  PHE73      -0.2864
    172  CB        21.8570    0.9450   34.9670 C.3    73  PHE73       0.0560
    173  CG        20.8170    1.9560   34.4990 C.ar   73  PHE73      -0.0200
    174  CD1       20.8590    2.4940   33.2250 C.ar   73  PHE73      -0.0042
    175  CD2       19.7280    2.2590   35.3680 C.ar   73  PHE73      -0.0042
    176  CE1       19.7530    3.3240   32.8090 C.ar   73  PHE73      -0.0003
    177  CE2       18.7080    3.1430   35.0150 C.ar   73  PHE73      -0.0003
    178  CZ        18.7190    3.6930   33.7320 C.ar   73  PHE73      -0.0000
    179  N         25.1840    3.6860   38.3850 N.3    75  TRP75      -0.1227
    180  CA        26.5010    4.3050   38.3910 C.3    75  TRP75       0.1737
    181  C         26.6960    5.2130   37.1790 C.2    75  TRP75       0.2595
    182  O         27.2670    6.3370   37.3000 O.2    75  TRP75      -0.2718
    183  CB        27.6290    3.2470   38.5260 C.3    75  TRP75       0.0564
    184  CG        28.9500    3.8350   38.4070 C.ar   75  TRP75       0.0003
    185  CD1       29.6910    4.4150   39.4090 C.ar   75  TRP75       0.0946
    186  CD2       29.7200    3.9570   37.2080 C.ar   75  TRP75       0.0152
    187  NE1       30.9020    4.8580   38.9020 N.ar   75  TRP75      -0.2442
    188  CE2       30.9370    4.5980   37.5530 C.ar   75  TRP75       0.0810
    189  CE3       29.5010    3.5830   35.8750 C.ar   75  TRP75       0.0012
    190  CZ2       31.9340    4.8720   36.6100 C.ar   75  TRP75       0.0191
    191  CZ3       30.5050    3.8500   34.9290 C.ar   75  TRP75       0.0001
    192  CH2       31.6880    4.4970   35.3000 C.ar   75  TRP75       0.0015
    193  N         26.2420    4.7630   36.0250 N.am   76  ALA76      -0.1980
    194  CA        26.3630    5.4890   34.7740 C.3    76  ALA76       0.1597
    195  C         25.5470    6.8080   34.9010 C.2    76  ALA76       0.2287
    196  O         26.0110    7.9060   34.5250 O.2    76  ALA76      -0.2864
    197  CB        25.7970    4.6700   33.6520 C.3    76  ALA76       0.0319
    198  N         15.8210    3.9960   14.3630 N.3   178  ARG178     -0.1245
    199  CA        16.3360    2.6880   14.8880 C.3   178  ARG178      0.1563
    200  C         17.5590    2.3550   14.0860 C.2   178  ARG178      0.2260
    201  O         17.5400    2.1850   12.8330 O.2   178  ARG178     -0.2867
    202  CB        15.2680    1.5730   14.6900 C.3   178  ARG178      0.0307
    203  CG        15.9240    0.2620   15.2050 C.3   178  ARG178      0.0489
    204  CD        14.8750   -0.8720   15.3540 C.3   178  ARG178      0.2205
    205  NE        15.6070   -2.0200   15.9040 N.pl3 178  ARG178     -0.0865
    206  CZ        15.0460   -2.9460   16.6840 C.cat 178  ARG178      0.5346
    207  NH1       13.7530   -2.8240   17.0020 N.pl3 178  ARG178      0.1354
    208  NH2       15.7800   -3.9630   17.1650 N.pl3 178  ARG178      0.1354
    209  N          9.5910   -3.1130   18.2490 N.3   186  SER186     -0.1217
    210  CA         9.9800   -3.9920   19.3690 C.3   186  SER186      0.1889
    211  C          9.4030   -3.4490   20.6840 C.2   186  SER186      0.2288
    212  O         10.1060   -3.5180   21.7340 O.2   186  SER186     -0.2866
    213  CB        11.5070   -4.1870   19.4810 C.3   186  SER186      0.2089
    214  OG        11.9370   -4.7150   18.2130 O.3   186  SER186     -0.2183
    215  N         24.7520    1.0340   16.4520 N.3   205  TRP205     -0.1241
    216  CA        24.7100    2.1720   17.4220 C.3   205  TRP205      0.1605
    217  C         26.1050    2.8010   17.7760 C.2   205  TRP205      0.2264
    218  O         26.2440    4.0430   17.7550 O.2   205  TRP205     -0.2867
    219  CB        23.9480    1.7390   18.6550 C.3   205  TRP205      0.0550
    220  CG        23.9410    2.9070   19.6490 C.ar  205  TRP205      0.0003
    221  CD1       24.6340    2.9840   20.8200 C.ar  205  TRP205      0.0946
    222  CD2       23.3510    4.1860   19.4060 C.ar  205  TRP205      0.0152
    223  NE1       24.4340    4.2650   21.3800 N.ar  205  TRP205     -0.2442
    224  CE2       23.6850    5.0150   20.5170 C.ar  205  TRP205      0.0810
    225  CE3       22.5470    4.7060   18.3880 C.ar  205  TRP205      0.0012
    226  CZ2       23.2100    6.3630   20.6280 C.ar  205  TRP205      0.0191
    227  CZ3       22.1470    6.0570   18.4460 C.ar  205  TRP205      0.0001
    228  CH2       22.5040    6.8560   19.5450 C.ar  205  TRP205      0.0015
@<TRIPOS>BOND
     1    51    49    1
     2    49    50    1
     3    49    48    2
     4   201   200    2
     5    48    47    1
     6   200   199    1
     7   198   199    1
     8   202   199    1
     9   202   203    1
    10    47    46    1
    11   203   204    1
    12   204   205    1
    13    45    46    1
    14    45    42    1
    15    44    43    2
    16   205   206    2
    17    43    42    1
    18   215   216    1
    19   206   207    1
    20   206   208    1
    21    42    41    1
    22    24    22   ar
    23    20    19    2
    24    22    21    1
    25    22    23   ar
    26    26    25    1
    27    26    27    1
    28   216   217    1
    29   216   219    1
    30    21    18    1
    31    28    27    2
    32   218   217    2
    33    19    25   am
    34    19    18    1
    35     4     3    2
    36    41    39   am
    37   214   213    1
    38     8     6    1
    39    27    29   am
    40   209   210    1
    41   225   227   ar
    42   225   222   ar
    43   227   228   ar
    44    18    17    1
    45   219   220    1
    46    17    11   am
    47     5     7    1
    48     5     6    1
    49     5     2    1
    50     1     2    1
    51    39    40    2
    52    39    38    1
    53     3     2    1
    54     3     9   am
    55   210   213    1
    56   210   211    1
    57   222   220   ar
    58   222   224   ar
    59   228   226   ar
    60    29    30    1
    61   220   221   ar
    62    11    10    1
    63    11    12    2
    64    10     9    1
    65    10    13    1
    66    32    31    2
    67    31    30    1
    68    31    37   am
    69    30    33    1
    70    37    38    1
    71   224   226   ar
    72   224   223   ar
    73   211   212    2
    74   221   223   ar
    75   151   149   ar
    76    13    14    1
    77    14    15    1
    78    35    34    2
    79   150   149   ar
    80   149   148    1
    81    33    34    1
    82    34    36   am
    83    62    60    1
    84   148   147    1
    85    15    16    1
    86   112   111    2
    87    83    82    1
    88    83    84    1
    89   142   141    1
    90   115   117   ar
    91   115   114   ar
    92    91    92    1
    93    60    61    1
    94    60    59    2
    95   117   119   ar
    96    85    84    2
    97   113   114    1
    98   113   110    1
    99   141   138    1
   100   129   128    2
   101   114   116   ar
   102    84    86   am
   103    92    93    1
   104    92    95    1
   105    94    93    2
   106   100   101    2
   107   100    99    1
   108   147   144    1
   109   111   110    1
   110   111   121   am
   111    59    58    1
   112   109   110    1
   113    93    98   am
   114   119   120    1
   115   119   118   ar
   116   138   137    1
   117   138   139    1
   118    53    52    1
   119    53    56    1
   120    53    54    1
   121    63    64    1
   122    57    56    1
   123    57    58    1
   124   122   121    1
   125   122   123    1
   126   122   125    1
   127    98    99    1
   128    97    95    1
   129   128   137   am
   130   128   127    1
   131   116   118   ar
   132    55    54    2
   133   124   123    2
   134   123   126   am
   135    86    87    1
   136    75    76    2
   137    75    74    1
   138    99   102    1
   139    95    96    1
   140   144   143    1
   141   144   145    1
   142   126   127    1
   143   159   157   am
   144    88    89    2
   145    88    87    1
   146    64    65    1
   147    64    67    1
   148   139   140    2
   149    72    70   ar
   150    72    71   ar
   151    70    68   ar
   152   158   157    2
   153   102   103    1
   154   127   130    1
   155    65    66    2
   156    65    73   am
   157    87    90    1
   158   157   156    1
   159    73    74    1
   160    71    69   ar
   161   133   135   ar
   162   133   131   ar
   163    68    67    1
   164    68    69   ar
   165    74    77    1
   166   145   152   am
   167   145   146    2
   168   130   131    1
   169   152   153    1
   170   135   136   ar
   171    77    78    1
   172   131   132   ar
   173   103   104    1
   174   156   153    1
   175   153   154    1
   176   107   106    1
   177    78    79    1
   178    80    79    1
   179    80    81    1
   180   136   134   ar
   181   104   105    1
   182   132   134   ar
   183   106   105    2
   184   106   108    1
   185   154   155    2
   186   176   174   ar
   187   176   178   ar
   188   174   173   ar
   189   197   194    1
   190   178   177   ar
   191   173   172    1
   192   173   175   ar
   193   196   195    2
   194   194   195    1
   195   194   193    1
   196   191   192   ar
   197   191   189   ar
   198   172   169    1
   199   177   175   ar
   200   169   168    1
   201   169   170    1
   202   192   190   ar
   203   166   165    1
   204   171   170    2
   205   163   162    2
   206   164   165    1
   207   164   161    1
   208   168   162   am
   209   189   186   ar
   210   193   181   am
   211   162   161    1
   212   165   167    1
   213   190   188   ar
   214   161   160    1
   215   181   182    2
   216   181   180    1
   217   186   188   ar
   218   186   184   ar
   219   188   187   ar
   220   179   180    1
   221   180   183    1
   222   184   183    1
   223   184   185   ar
   224   187   185   ar
