@<TRIPOS>MOLECULE
tmp/3sgvB02.pdb
 92 92 0 0 0
SMALL
GASTEIGER

@<TRIPOS>ATOM
      1  N         31.0890   -6.3590   26.4190 N.3    24  ALA24      -0.1245
      2  CA        31.3530   -5.1810   27.2630 C.3    24  ALA24       0.1562
      3  C         32.1140   -4.0820   26.5380 C.2    24  ALA24       0.2260
      4  O         31.8810   -2.9020   26.7740 O.2    24  ALA24      -0.2867
      5  CB        32.1150   -5.5740   28.5240 C.3    24  ALA24       0.0290
      6  N         29.5110   -2.2750   24.5830 N.3    27  HIS27      -0.1226
      7  CA        28.7110   -1.3930   25.4190 C.3    27  HIS27       0.1752
      8  C         29.4890   -0.1410   25.8520 C.2    27  HIS27       0.2595
      9  O         28.9100    0.9380   25.9530 O.2    27  HIS27      -0.2718
     10  CB        28.2250   -2.1720   26.6260 C.3    27  HIS27       0.0759
     11  CG        27.1250   -3.1090   26.2650 C.ar   27  HIS27       0.0818
     12  ND1       27.0460   -4.4150   26.6750 N.ar   27  HIS27      -0.2268
     13  CD2       26.0300   -2.8780   25.4850 C.ar   27  HIS27       0.1154
     14  CE1       25.9480   -4.9600   26.1710 C.ar   27  HIS27       0.1986
     15  NE2       25.3140   -4.0480   25.4530 N.ar   27  HIS27      -0.2212
     16  N         30.7830   -0.2590   26.0890 N.am   28  LYS28      -0.1980
     17  CA        31.5400    0.9720   26.3630 C.3    28  LYS28       0.1596
     18  C         31.4900    1.9260   25.1380 C.2    28  LYS28       0.2287
     19  O         31.3380    3.1200   25.2870 O.2    28  LYS28      -0.2864
     20  CB        32.9880    0.6490   26.7610 C.3    28  LYS28       0.0298
     21  CG        33.1270   -0.2380   27.9790 C.3    28  LYS28       0.0038
     22  CD        34.6270   -0.5110   28.2850 C.3    28  LYS28       0.0206
     23  CE        35.5490    0.7110   27.9910 C.3    28  LYS28       0.1093
     24  NZ        35.4240    1.9310   28.9030 N.3    28  LYS28      -0.1314
     25  N         21.1110   -9.1250   26.5320 N.3    58  ASN58      -0.1225
     26  CA        21.9570   -8.4930   27.5560 C.3    58  ASN58       0.1785
     27  C         21.5360   -8.8350   28.9890 C.2    58  ASN58       0.2597
     28  O         22.3340   -8.7350   29.8730 O.2    58  ASN58      -0.2718
     29  CB        22.0030   -6.9720   27.3630 C.3    58  ASN58       0.1169
     30  CG        22.6980   -6.6070   26.0760 C.2    58  ASN58       0.2627
     31  OD1       23.7120   -7.2100   25.7190 O.2    58  ASN58      -0.2716
     32  ND2       22.1640   -5.6120   25.3590 N.am   58  ASN58      -0.0877
     33  N         20.2890   -9.2660   29.1870 N.am   59  TRP59      -0.1976
     34  CA        19.7640   -9.4590   30.5540 C.3    59  TRP59       0.1640
     35  C         19.4990  -10.9320   30.8950 C.2    59  TRP59       0.2290
     36  O         19.1590  -11.2710   32.0260 O.2    59  TRP59      -0.2864
     37  CB        18.4950   -8.6360   30.7400 C.3    59  TRP59       0.0576
     38  CG        18.7690   -7.1490   30.7680 C.ar   59  TRP59       0.0006
     39  CD1       18.6780   -6.3080   29.7140 C.ar   59  TRP59       0.0946
     40  CD2       19.2350   -6.3650   31.8960 C.ar   59  TRP59       0.0152
     41  NE1       19.0510   -5.0270   30.1110 N.ar   59  TRP59      -0.2442
     42  CE2       19.3850   -5.0360   31.4460 C.ar   59  TRP59       0.0810
     43  CE3       19.5630   -6.6630   33.2380 C.ar   59  TRP59       0.0012
     44  CZ2       19.8140   -3.9930   32.2960 C.ar   59  TRP59       0.0191
     45  CZ3       19.9850   -5.6160   34.1060 C.ar   59  TRP59       0.0001
     46  CH2       20.0950   -4.2960   33.6210 C.ar   59  TRP59       0.0015
     47  N         24.4960   -5.4620   36.8290 N.3    69  LEU69      -0.1245
     48  CA        24.2210   -4.5450   35.7590 C.3    69  LEU69       0.1561
     49  C         23.3190   -3.3440   36.1950 C.2    69  LEU69       0.2260
     50  O         23.4460   -2.2220   35.7050 O.2    69  LEU69      -0.2867
     51  CB        23.4950   -5.3040   34.6160 C.3    69  LEU69       0.0270
     52  CG        24.4900   -6.2210   33.9060 C.3    69  LEU69       0.0019
     53  CD1       23.8180   -7.2390   33.0030 C.3    69  LEU69       0.0001
     54  CD2       25.4540   -5.4040   33.0960 C.3    69  LEU69       0.0001
     55  N         25.4260   -0.9020   37.7810 N.3    72  LEU72      -0.1231
     56  CA        26.2420   -0.1840   36.7690 C.3    72  LEU72       0.1693
     57  C         25.3990    0.8460   36.0280 C.2    72  LEU72       0.2592
     58  O         25.9100    1.9080   35.6600 O.2    72  LEU72      -0.2718
     59  CB        26.8340   -1.1580   35.7390 C.3    72  LEU72       0.0284
     60  CG        27.9680   -1.9460   36.3560 C.3    72  LEU72       0.0019
     61  CD1       28.4420   -3.0380   35.3550 C.3    72  LEU72       0.0001
     62  CD2       29.1270   -1.0550   36.7780 C.3    72  LEU72       0.0001
     63  N         24.1320    0.5370   35.7640 N.am   73  PHE73      -0.1976
     64  CA        23.2530    1.5470   35.1890 C.3    73  PHE73       0.1639
     65  C         23.1600    2.7580   36.0650 C.2    73  PHE73       0.2290
     66  O         23.2130    3.9100   35.5720 O.2    73  PHE73      -0.2864
     67  CB        21.8570    0.9450   34.9670 C.3    73  PHE73       0.0560
     68  CG        20.8170    1.9560   34.4990 C.ar   73  PHE73      -0.0200
     69  CD1       20.8590    2.4940   33.2250 C.ar   73  PHE73      -0.0042
     70  CD2       19.7280    2.2590   35.3680 C.ar   73  PHE73      -0.0042
     71  CE1       19.7530    3.3240   32.8090 C.ar   73  PHE73      -0.0003
     72  CE2       18.7080    3.1430   35.0150 C.ar   73  PHE73      -0.0003
     73  CZ        18.7190    3.6930   33.7320 C.ar   73  PHE73      -0.0000
     74  N         25.1840    3.6860   38.3850 N.3    75  TRP75      -0.1227
     75  CA        26.5010    4.3050   38.3910 C.3    75  TRP75       0.1737
     76  C         26.6960    5.2130   37.1790 C.2    75  TRP75       0.2595
     77  O         27.2670    6.3370   37.3000 O.2    75  TRP75      -0.2718
     78  CB        27.6290    3.2470   38.5260 C.3    75  TRP75       0.0564
     79  CG        28.9500    3.8350   38.4070 C.ar   75  TRP75       0.0003
     80  CD1       29.6910    4.4150   39.4090 C.ar   75  TRP75       0.0946
     81  CD2       29.7200    3.9570   37.2080 C.ar   75  TRP75       0.0152
     82  NE1       30.9020    4.8580   38.9020 N.ar   75  TRP75      -0.2442
     83  CE2       30.9370    4.5980   37.5530 C.ar   75  TRP75       0.0810
     84  CE3       29.5010    3.5830   35.8750 C.ar   75  TRP75       0.0012
     85  CZ2       31.9340    4.8720   36.6100 C.ar   75  TRP75       0.0191
     86  CZ3       30.5050    3.8500   34.9290 C.ar   75  TRP75       0.0001
     87  CH2       31.6880    4.4970   35.3000 C.ar   75  TRP75       0.0015
     88  N         26.2420    4.7630   36.0250 N.am   76  ALA76      -0.1980
     89  CA        26.3630    5.4890   34.7740 C.3    76  ALA76       0.1597
     90  C         25.5470    6.8080   34.9010 C.2    76  ALA76       0.2287
     91  O         26.0110    7.9060   34.5250 O.2    76  ALA76      -0.2864
     92  CB        25.7970    4.6700   33.6520 C.3    76  ALA76       0.0319
@<TRIPOS>BOND
     1     6     7    1
     2    18    19    2
     3    18    17    1
     4    32    30   am
     5     7     8    1
     6     7    10    1
     7    15    13   ar
     8    15    14   ar
     9    13    11   ar
    10    31    30    2
    11     8     9    2
    12     8    16   am
    13    30    29    1
    14    16    17    1
    15    14    12   ar
    16    11    10    1
    17    11    12   ar
    18    17    20    1
    19     1     2    1
    20    25    26    1
    21     3     4    2
    22     3     2    1
    23    20    21    1
    24     2     5    1
    25    29    26    1
    26    26    27    1
    27    21    22    1
    28    23    22    1
    29    23    24    1
    30    27    33   am
    31    27    28    2
    32    33    34    1
    33    39    41   ar
    34    39    38   ar
    35    41    42   ar
    36    34    37    1
    37    34    35    1
    38    37    38    1
    39    38    40   ar
    40    35    36    2
    41    42    40   ar
    42    42    44   ar
    43    40    43   ar
    44    44    46   ar
    45    71    69   ar
    46    71    73   ar
    47    53    52    1
    48    54    52    1
    49    69    68   ar
    50    43    45   ar
    51    46    45   ar
    52    92    89    1
    53    73    72   ar
    54    52    51    1
    55    68    67    1
    56    68    70   ar
    57    91    90    2
    58    51    48    1
    59    89    90    1
    60    89    88    1
    61    86    87   ar
    62    86    84   ar
    63    67    64    1
    64    72    70   ar
    65    64    63    1
    66    64    65    1
    67    87    85   ar
    68    61    60    1
    69    66    65    2
    70    58    57    2
    71    50    49    2
    72    59    60    1
    73    59    56    1
    74    48    49    1
    75    48    47    1
    76    63    57   am
    77    84    81   ar
    78    88    76   am
    79    57    56    1
    80    60    62    1
    81    85    83   ar
    82    56    55    1
    83    76    77    2
    84    76    75    1
    85    81    83   ar
    86    81    79   ar
    87    83    82   ar
    88    74    75    1
    89    75    78    1
    90    79    78    1
    91    79    80   ar
    92    82    80   ar
