@<TRIPOS>MOLECULE
tmp/3sgvA00.pdb
 160 152 0 0 0
SMALL
GASTEIGER

@<TRIPOS>ATOM
      1  N         -8.7770    6.3500   -7.4560 N.3    31  HIS31      -0.1226
      2  CA        -9.5200    5.4400   -6.6340 C.3    31  HIS31       0.1752
      3  C         -9.9270    4.1810   -7.3080 C.2    31  HIS31       0.2595
      4  O         -9.9100    3.1450   -6.6710 O.2    31  HIS31      -0.2718
      5  CB       -10.7520    6.0510   -6.0140 C.3    31  HIS31       0.0759
      6  CG       -10.4680    7.2310   -5.1900 C.ar   31  HIS31       0.0818
      7  ND1      -11.3740    8.2810   -5.1400 N.ar   31  HIS31      -0.2268
      8  CD2       -9.4440    7.5500   -4.3710 C.ar   31  HIS31       0.1154
      9  CE1      -10.8970    9.2060   -4.3330 C.ar   31  HIS31       0.1986
     10  NE2       -9.7290    8.8070   -3.8730 N.ar   31  HIS31      -0.2212
     11  N        -10.3380    4.2810   -8.5740 N.am   32  LYS32      -0.1980
     12  CA       -10.6910    3.1000   -9.3530 C.3    32  LYS32       0.1596
     13  C         -9.4820    2.2140   -9.5570 C.2    32  LYS32       0.2287
     14  O         -9.5600    1.0050   -9.3510 O.2    32  LYS32      -0.2864
     15  CB       -11.2580    3.5620  -10.7270 C.3    32  LYS32       0.0298
     16  CG       -12.4930    4.4650  -10.6220 C.3    32  LYS32       0.0038
     17  CD       -13.1130    4.7180  -11.9840 C.3    32  LYS32       0.0206
     18  CE       -13.8570    6.0060  -11.9530 C.3    32  LYS32       0.1093
     19  NZ       -14.1610    6.6260  -13.3260 N.3    32  LYS32      -0.1314
     20  N         -8.7900    0.5300   -6.2020 N.3    35  ALA35      -0.1231
     21  CA        -9.7210   -0.5960   -5.9790 C.3    35  ALA35       0.1694
     22  C         -9.3090   -1.8220   -6.7600 C.2    35  ALA35       0.2591
     23  O         -9.3740   -2.9610   -6.2110 O.2    35  ALA35      -0.2718
     24  CB       -11.1680   -0.1900   -6.3320 C.3    35  ALA35       0.0304
     25  N         -8.8120   -1.6450   -7.9960 N.am   36  LYS36      -0.1980
     26  CA        -8.3580   -2.8140   -8.7250 C.3    36  LYS36       0.1596
     27  C         -7.1410   -3.4030   -7.9900 C.2    36  LYS36       0.2287
     28  O         -6.9880   -4.6210   -7.9240 O.2    36  LYS36      -0.2864
     29  CB        -8.0430   -2.4120  -10.1580 C.3    36  LYS36       0.0298
     30  CG        -9.2620   -2.1380  -11.0500 C.3    36  LYS36       0.0038
     31  CD       -10.5100   -1.9870  -10.2800 C.3    36  LYS36       0.0206
     32  CE       -11.2250   -0.8020  -10.5700 C.3    36  LYS36       0.1093
     33  NZ       -12.2030   -0.3590   -9.5680 N.3    36  LYS36      -0.1314
     34  N         -6.5920   -3.3010   -4.7580 N.3    38  VAL38      -0.1231
     35  CA        -7.1390   -4.0500   -3.5800 C.3    38  VAL38       0.1692
     36  C         -7.6170   -5.4560   -3.9830 C.2    38  VAL38       0.2591
     37  O         -7.2170   -6.4420   -3.3490 O.2    38  VAL38      -0.2718
     38  CB        -8.3480   -3.3070   -3.0050 C.3    38  VAL38       0.0266
     39  CG1       -8.9390   -4.1950   -1.8890 C.3    38  VAL38       0.0020
     40  CG2       -7.9250   -1.9520   -2.3200 C.3    38  VAL38       0.0020
     41  N         -8.3930   -5.5660   -5.0500 N.am   39  ARG39      -0.1980
     42  CA        -8.8830   -6.9350   -5.4450 C.3    39  ARG39       0.1597
     43  C         -7.6940   -7.8440   -5.7090 C.2    39  ARG39       0.2287
     44  O         -7.7540   -9.0290   -5.4000 O.2    39  ARG39      -0.2864
     45  CB        -9.7210   -6.8830   -6.6990 C.3    39  ARG39       0.0334
     46  CG       -10.9430   -6.0360   -6.4260 C.3    39  ARG39       0.0492
     47  CD       -11.9750   -6.0420   -7.6470 C.3    39  ARG39       0.2205
     48  NE       -12.8450   -4.8640   -7.5140 N.pl3  39  ARG39      -0.0865
     49  CZ       -12.6060   -3.7020   -8.1430 C.cat  39  ARG39       0.5346
     50  NH1      -11.6220   -3.5940   -9.0350 N.pl3  39  ARG39       0.1354
     51  NH2      -13.3710   -2.6600   -7.9310 N.pl3  39  ARG39       0.1354
     52  N         -6.0230   -8.8930   -2.4340 N.3    42  VAL42      -0.1245
     53  CA        -6.9100   -9.8620   -1.7120 C.3    42  VAL42       0.1561
     54  C         -6.7170  -11.2400   -2.3620 C.2    42  VAL42       0.2260
     55  O         -6.4650  -12.2410   -1.6840 O.2    42  VAL42      -0.2867
     56  CB        -8.3550   -9.3780   -1.7430 C.3    42  VAL42       0.0252
     57  CG1       -9.3080  -10.4690   -1.1720 C.3    42  VAL42       0.0019
     58  CG2       -8.4510   -8.1220   -0.8720 C.3    42  VAL42       0.0019
     59  N        -14.4460    8.4570   -1.2330 N.3    62  LEU62      -0.1245
     60  CA       -14.2610    7.0330   -0.9950 C.3    62  LEU62       0.1561
     61  C        -15.3820    6.4330   -0.1780 C.2    62  LEU62       0.2260
     62  O        -15.6270    5.2430   -0.2780 O.2    62  LEU62      -0.2867
     63  CB       -12.9470    6.7680   -0.2690 C.3    62  LEU62       0.0270
     64  CG       -11.7290    6.6370   -1.1370 C.3    62  LEU62       0.0019
     65  CD1      -10.6110    6.5060   -0.1030 C.3    62  LEU62       0.0001
     66  CD2      -11.8740    5.3730   -2.0380 C.3    62  LEU62       0.0001
     67  N        -18.0130    5.7760   -2.7630 N.3    65  LEU65      -0.1231
     68  CA       -17.5780    4.5200   -3.4090 C.3    65  LEU65       0.1693
     69  C        -17.8650    3.2700   -2.5740 C.2    65  LEU65       0.2592
     70  O        -18.4350    2.3020   -3.1230 O.2    65  LEU65      -0.2718
     71  CB       -16.0850    4.5670   -3.8420 C.3    65  LEU65       0.0284
     72  CG       -15.9440    5.3730   -5.1480 C.3    65  LEU65       0.0019
     73  CD1      -14.4900    5.9050   -5.2660 C.3    65  LEU65       0.0001
     74  CD2      -16.3660    4.6110   -6.4200 C.3    65  LEU65       0.0001
     75  N        -17.5520    3.3290   -1.2670 N.am   66  PHE66      -0.1976
     76  CA       -17.7660    2.2480   -0.2620 C.3    66  PHE66       0.1639
     77  C        -19.1940    1.7250   -0.2750 C.2    66  PHE66       0.2290
     78  O        -19.4180    0.4990   -0.3080 O.2    66  PHE66      -0.2864
     79  CB       -17.4830    2.7890    1.1550 C.3    66  PHE66       0.0560
     80  CG       -17.3770    1.7340    2.2370 C.ar   66  PHE66      -0.0200
     81  CD1      -17.3230    0.3710    1.9410 C.ar   66  PHE66      -0.0042
     82  CD2      -17.2930    2.1410    3.5700 C.ar   66  PHE66      -0.0042
     83  CE1      -17.1800   -0.6090    2.9930 C.ar   66  PHE66      -0.0003
     84  CE2      -17.1630    1.2210    4.6070 C.ar   66  PHE66      -0.0003
     85  CZ       -17.0860   -0.1330    4.3380 C.ar   66  PHE66      -0.0000
     86  N        -21.8570    2.3920   -2.5680 N.3    68  TRP68      -0.1227
     87  CA       -21.9860    1.7680   -3.8620 C.3    68  TRP68       0.1737
     88  C        -21.1420    0.4710   -3.6950 C.2    68  TRP68       0.2595
     89  O        -21.4070   -0.3610   -2.7930 O.2    68  TRP68      -0.2718
     90  CB       -21.4290    2.7560   -4.8810 C.3    68  TRP68       0.0564
     91  CG       -21.7190    2.5740   -6.3370 C.ar   68  TRP68       0.0003
     92  CD1      -22.9170    2.7960   -7.0030 C.ar   68  TRP68       0.0946
     93  CD2      -20.7450    2.2690   -7.3510 C.ar   68  TRP68       0.0152
     94  NE1      -22.7410    2.5890   -8.3590 N.ar   68  TRP68      -0.2442
     95  CE2      -21.4240    2.2780   -8.6030 C.ar   68  TRP68       0.0810
     96  CE3      -19.3680    1.9730   -7.3190 C.ar   68  TRP68       0.0012
     97  CZ2      -20.7740    1.9690   -9.8070 C.ar   68  TRP68       0.0191
     98  CZ3      -18.7190    1.6690   -8.5100 C.ar   68  TRP68       0.0001
     99  CH2      -19.4250    1.6780   -9.7450 C.ar   68  TRP68       0.0015
    100  N        -20.1010    0.3030   -4.4930 N.am   69  ALA69      -0.1966
    101  CA       -19.4170   -0.9810   -4.6080 C.3    69  ALA69       0.1728
    102  C        -19.8110   -2.1550   -3.6810 C.2    69  ALA69       0.2616
    103  O        -19.7520   -3.2800   -4.1180 O.2    69  ALA69      -0.2715
    104  CB       -17.9240   -0.7800   -4.4960 C.3    69  ALA69       0.0334
    105  N        -20.1460   -1.8640   -2.4230 N.am   70  LEU70      -0.1977
    106  CA       -20.1320   -2.8570   -1.3070 C.3    70  LEU70       0.1596
    107  C        -20.7710   -4.1650   -1.6580 C.2    70  LEU70       0.2287
    108  O        -20.2060   -5.2250   -1.4010 O.2    70  LEU70      -0.2864
    109  CB       -20.8920   -2.3490   -0.0940 C.3    70  LEU70       0.0297
    110  CG       -20.2500   -2.5410    1.2810 C.3    70  LEU70       0.0022
    111  CD1      -21.3270   -3.0720    2.2480 C.3    70  LEU70       0.0001
    112  CD2      -18.9700   -3.4200    1.2700 C.3    70  LEU70       0.0001
    113  N        -18.8100   -5.8890   -4.5030 N.3    73  GLU73      -0.1231
    114  CA       -17.5200   -6.3380   -4.0160 C.3    73  GLU73       0.1699
    115  C        -17.7230   -7.5260   -3.0600 C.2    73  GLU73       0.2592
    116  O        -16.9290   -8.4900   -3.1220 O.2    73  GLU73      -0.2718
    117  CB       -16.6830   -5.2420   -3.2480 C.3    73  GLU73       0.0402
    118  CG       -16.3560   -3.9590   -4.1110 C.3    73  GLU73       0.1161
    119  CD       -15.5070   -4.2100   -5.3860 C.2    73  GLU73       0.3649
    120  OE1      -14.8380   -5.2840   -5.4990 O.co2  73  GLU73      -0.2457
    121  OE2      -15.5710   -3.3040   -6.2510 O.co2  73  GLU73      -0.2457
    122  N        -18.7180   -7.4710   -2.1330 N.am   74  VAL74      -0.1980
    123  CA       -18.9320   -8.5910   -1.2040 C.3    74  VAL74       0.1595
    124  C        -19.3000   -9.8700   -1.9460 C.2    74  VAL74       0.2287
    125  O        -18.9030  -10.9620   -1.5430 O.2    74  VAL74      -0.2864
    126  CB       -19.9690   -8.2500   -0.1280 C.3    74  VAL74       0.0276
    127  CG1      -20.2190   -9.4420    0.7930 C.3    74  VAL74       0.0022
    128  CG2      -19.4520   -7.0940    0.7180 C.3    74  VAL74       0.0022
    129  N        -16.1010  -11.2860   -3.0100 N.3    77  LEU77      -0.1245
    130  CA       -15.3660  -11.8960   -1.8680 C.3    77  LEU77       0.1561
    131  C        -15.9460  -13.2480   -1.4520 C.2    77  LEU77       0.2260
    132  O        -15.1990  -14.2310   -1.1770 O.2    77  LEU77      -0.2867
    133  CB       -15.3330  -10.9610   -0.6360 C.3    77  LEU77       0.0270
    134  CG       -14.6340   -9.6200   -0.8840 C.3    77  LEU77       0.0019
    135  CD1      -14.7750   -8.8200    0.3920 C.3    77  LEU77       0.0001
    136  CD2      -13.1320   -9.8900   -1.0490 C.3    77  LEU77       0.0001
    137  N        -15.2420  -11.4990    5.5020 N.3    84  LEU84      -0.1245
    138  CA       -15.0590  -10.0170    5.5540 C.3    84  LEU84       0.1561
    139  C        -15.4410   -9.4540    6.9330 C.2    84  LEU84       0.2260
    140  O        -16.5330   -9.7420    7.4580 O.2    84  LEU84      -0.2867
    141  CB       -16.0270   -9.3630    4.4570 C.3    84  LEU84       0.0270
    142  CG       -16.0040   -7.8480    4.4480 C.3    84  LEU84       0.0019
    143  CD1      -14.5970   -7.3370    4.0530 C.3    84  LEU84       0.0001
    144  CD2      -17.1120   -7.3710    3.4640 C.3    84  LEU84       0.0001
    145  N        -10.3980  -10.9950    5.6580 N.3   116  LEU116     -0.1245
    146  CA       -10.0590   -9.6410    5.1560 C.3   116  LEU116      0.1561
    147  C        -10.7100   -8.6740    6.1170 C.2   116  LEU116      0.2260
    148  O        -11.9680   -8.5890    6.2370 O.2   116  LEU116     -0.2867
    149  CB       -10.6810   -9.5070    3.7380 C.3   116  LEU116      0.0270
    150  CG       -10.5470   -8.1150    3.2020 C.3   116  LEU116      0.0019
    151  CD1       -9.0160   -7.7650    3.0290 C.3   116  LEU116      0.0001
    152  CD2      -11.2290   -8.0210    1.8120 C.3   116  LEU116      0.0001
    153  N        -11.2740   -4.7410    6.8060 N.3   118  ILE118     -0.1245
    154  CA       -11.2090   -3.4280    6.1670 C.3   118  ILE118      0.1561
    155  C        -11.3640   -2.3450    7.2550 C.2   118  ILE118      0.2260
    156  O        -12.3960   -2.3620    8.0180 O.2   118  ILE118     -0.2867
    157  CB       -12.3910   -3.2980    5.1360 C.3   118  ILE118      0.0252
    158  CG1      -12.2380   -4.3470    4.0010 C.3   118  ILE118      0.0019
    159  CG2      -12.5170   -1.9160    4.6750 C.3   118  ILE118      0.0019
    160  CD1      -10.9450   -4.2980    3.2840 C.3   118  ILE118      0.0001
@<TRIPOS>BOND
     1    19    18    1
     2    17    18    1
     3    17    16    1
     4    30    31    1
     5    30    29    1
     6    15    16    1
     7    15    12    1
     8    32    31    1
     9    32    33    1
    10    29    26    1
    11    97    99   ar
    12    97    95   ar
    13    99    98   ar
    14    13    12    1
    15    13    14    2
    16    12    11    1
    17    50    49    1
    18    26    25    1
    19    26    27    1
    20    95    94   ar
    21    95    93   ar
    22    11     3   am
    23    98    96   ar
    24    94    92   ar
    25    49    51    1
    26    49    48    2
    27    25    22   am
    28    27    28    2
    29    47    48    1
    30    47    46    1
    31     1     2    1
    32    93    96   ar
    33    93    91   ar
    34     3     4    2
    35     3     2    1
    36    92    91   ar
    37    22    23    2
    38    22    21    1
    39    45    46    1
    40    45    42    1
    41     2     5    1
    42    74    72    1
    43    91    90    1
    44    24    21    1
    45   121   119   ar
    46    20    21    1
    47     5     6    1
    48    43    42    1
    49    43    44    2
    50   120   119   ar
    51    42    41    1
    52   119   118    1
    53    73    72    1
    54     6     7   ar
    55     6     8   ar
    56    72    71    1
    57     7     9   ar
    58    41    36   am
    59    90    87    1
    60    34    35    1
    61   101   104    1
    62   101   100    1
    63   101   102    1
    64   113   114    1
    65   100    88   am
    66     8    10   ar
    67     9    10   ar
    68   103   102    2
    69   118   117    1
    70   114   117    1
    71   114   115    1
    72    36    35    1
    73    36    37    2
    74    87    88    1
    75    87    86    1
    76    71    68    1
    77    88    89    2
    78   102   105   am
    79    35    38    1
    80    68    67    1
    81    68    69    1
    82    70    69    2
    83   116   115    2
    84   115   122   am
    85   129   130    1
    86    38    40    1
    87    38    39    1
    88    69    75   am
    89    52    53    1
    90   105   106    1
    91    54    53    1
    92    54    55    2
    93   122   123    1
    94    66    64    1
    95   124   125    2
    96   124   123    1
    97   130   131    1
    98   130   133    1
    99    56    53    1
   100    56    57    1
   101    56    58    1
   102   107   108    2
   103   107   106    1
   104   131   132    2
   105   106   109    1
   106    75    76    1
   107    59    60    1
   108   123   126    1
   109    64    63    1
   110    64    65    1
   111   136   134    1
   112    60    63    1
   113    60    61    1
   114   134   133    1
   115   134   135    1
   116    78    77    2
   117    62    61    2
   118    77    76    1
   119    76    79    1
   120   126   128    1
   121   126   127    1
   122   109   110    1
   123    79    80    1
   124   112   110    1
   125   110   111    1
   126   152   150    1
   127    81    80   ar
   128    81    83   ar
   129    80    82   ar
   130    83    85   ar
   131   151   150    1
   132   150   149    1
   133   160   158    1
   134   144   142    1
   135    82    84   ar
   136   149   146    1
   137   158   157    1
   138   143   142    1
   139    85    84   ar
   140   142   141    1
   141   141   138    1
   142   159   157    1
   143   157   154    1
   144   146   145    1
   145   146   147    1
   146   137   138    1
   147   138   139    1
   148   147   148    2
   149   154   153    1
   150   154   155    1
   151   139   140    2
   152   155   156    2
