@<TRIPOS>MOLECULE
tmp/3sgvB01.pdb
 206 199 0 0 0
SMALL
GASTEIGER

@<TRIPOS>ATOM
      1  N         18.4660    2.1050   20.1340 N.3     9  MET9       -0.1245
      2  CA        19.9440    2.1010   19.9310 C.3     9  MET9        0.1570
      3  C         20.4300    0.6500   19.8090 C.2     9  MET9        0.2261
      4  O         21.1570    0.1810   20.6180 O.2     9  MET9       -0.2867
      5  CB        20.6010    2.7370   21.1390 C.3     9  MET9        0.0387
      6  CG        20.1270    4.2490   21.2870 C.3     9  MET9        0.0595
      7  SD        20.9090    5.0050   22.7480 S.3     9  MET9       -0.1393
      8  CE        20.2560    4.0860   24.1260 C.3     9  MET9        0.0692
      9  N         28.1100    3.5160   25.0070 N.3    31  ALA31      -0.1245
     10  CA        27.8620    4.6170   25.9640 C.3    31  ALA31       0.1562
     11  C         28.5080    5.8840   25.4040 C.2    31  ALA31       0.2260
     12  O         27.9730    6.9710   25.5710 O.2    31  ALA31      -0.2867
     13  CB        28.5260    4.2600   27.3550 C.3    31  ALA31       0.0290
     14  N         26.0190    7.2060   23.1080 N.3    34  VAL34      -0.1231
     15  CA        24.9380    7.8950   23.8580 C.3    34  VAL34       0.1692
     16  C         25.3410    9.3360   24.1740 C.2    34  VAL34       0.2591
     17  O         24.5920   10.2880   23.8650 O.2    34  VAL34      -0.2718
     18  CB        24.5970    7.2040   25.1460 C.3    34  VAL34       0.0266
     19  CG1       23.5620    8.1060   25.9760 C.3    34  VAL34       0.0020
     20  CG2       23.9180    5.7920   24.7800 C.3    34  VAL34       0.0020
     21  N         26.5350    9.5090   24.7610 N.am   35  ARG35      -0.1980
     22  CA        26.9660   10.8590   25.1410 C.3    35  ARG35       0.1597
     23  C         26.9820   11.7940   23.9060 C.2    35  ARG35       0.2287
     24  O         26.6000   12.9700   23.9810 O.2    35  ARG35      -0.2864
     25  CB        28.3610   10.7500   25.8250 C.3    35  ARG35       0.0334
     26  CG        28.3100    9.9770   27.1620 C.3    35  ARG35       0.0492
     27  CD        29.6990   10.1180   28.0310 C.3    35  ARG35       0.2205
     28  NE        29.6690    8.9620   28.9490 N.pl3  35  ARG35      -0.0865
     29  CZ        30.2320    7.7600   28.7250 C.cat  35  ARG35       0.5346
     30  NH1       31.0170    7.5360   27.6660 N.pl3  35  ARG35       0.1354
     31  NH2       30.0720    6.8030   29.6340 N.pl3  35  ARG35       0.1354
     32  N         15.6470    7.6420   24.7530 N.3    51  LEU51      -0.1231
     33  CA        16.5850    6.6230   24.3000 C.3    51  LEU51       0.1693
     34  C         16.2070    5.2640   24.8830 C.2    51  LEU51       0.2592
     35  O         15.9550    5.0790   26.1010 O.2    51  LEU51      -0.2718
     36  CB        17.9980    6.9530   24.8320 C.3    51  LEU51       0.0284
     37  CG        18.5630    8.2810   24.3440 C.3    51  LEU51       0.0019
     38  CD1       19.9650    8.4490   24.8950 C.3    51  LEU51       0.0001
     39  CD2       18.5960    8.4180   22.8150 C.3    51  LEU51       0.0001
     40  N         16.2080    4.2680   23.9800 N.am   52  TYR52      -0.1962
     41  CA        15.8040    2.9020   24.3510 C.3    52  TYR52       0.1771
     42  C         17.0170    2.0010   23.9590 C.2    52  TYR52       0.2619
     43  O         17.5570    2.0330   22.7930 O.2    52  TYR52      -0.2715
     44  CB        14.6030    2.4730   23.5060 C.3    52  TYR52       0.0574
     45  CG        14.0960    1.1030   23.7960 C.ar   52  TYR52      -0.0198
     46  CD1       14.4670   -0.0200   23.0410 C.ar   52  TYR52      -0.0009
     47  CD2       13.1600    0.9120   24.8060 C.ar   52  TYR52      -0.0009
     48  CE1       13.9100   -1.2800   23.2650 C.ar   52  TYR52       0.0417
     49  CE2       12.6060   -0.3680   24.9980 C.ar   52  TYR52       0.0417
     50  CZ        12.9910   -1.4500   24.2350 C.ar   52  TYR52       0.1957
     51  OH        12.4800   -2.6990   24.4660 O.3    52  TYR52      -0.2866
     52  N         17.4700    1.1880   24.9050 N.am   53  ALA53      -0.1963
     53  CA        18.6870    0.3310   24.7400 C.3    53  ALA53       0.1728
     54  C         18.4730   -1.1410   24.9980 C.2    53  ALA53       0.2616
     55  O         19.3990   -1.9560   24.9190 O.2    53  ALA53      -0.2715
     56  CB        19.7430    0.8830   25.8020 C.3    53  ALA53       0.0334
     57  N         17.2110   -1.4890   25.3200 N.am   54  PHE54      -0.1974
     58  CA        16.9420   -2.8280   25.8340 C.3    54  PHE54       0.1639
     59  C         17.0530   -3.9610   24.7970 C.2    54  PHE54       0.2290
     60  O         16.5140   -3.8550   23.6940 O.2    54  PHE54      -0.2864
     61  CB        15.5280   -2.8880   26.4700 C.3    54  PHE54       0.0560
     62  CG        15.2230   -4.2540   27.0050 C.ar   54  PHE54      -0.0200
     63  CD1       15.6980   -4.6520   28.2650 C.ar   54  PHE54      -0.0042
     64  CD2       14.4820   -5.1760   26.2570 C.ar   54  PHE54      -0.0042
     65  CE1       15.4070   -5.9570   28.7690 C.ar   54  PHE54      -0.0003
     66  CE2       14.1770   -6.4280   26.7540 C.ar   54  PHE54      -0.0003
     67  CZ        14.6620   -6.8410   28.0110 C.ar   54  PHE54      -0.0000
     68  N         20.2890   -9.2660   29.1870 N.3    59  TRP59      -0.1241
     69  CA        19.7640   -9.4590   30.5540 C.3    59  TRP59       0.1605
     70  C         19.4990  -10.9320   30.8950 C.2    59  TRP59       0.2264
     71  O         19.1590  -11.2710   32.0260 O.2    59  TRP59      -0.2867
     72  CB        18.4950   -8.6360   30.7400 C.3    59  TRP59       0.0550
     73  CG        18.7690   -7.1490   30.7680 C.ar   59  TRP59       0.0003
     74  CD1       18.6780   -6.3080   29.7140 C.ar   59  TRP59       0.0946
     75  CD2       19.2350   -6.3650   31.8960 C.ar   59  TRP59       0.0152
     76  NE1       19.0510   -5.0270   30.1110 N.ar   59  TRP59      -0.2442
     77  CE2       19.3850   -5.0360   31.4460 C.ar   59  TRP59       0.0810
     78  CE3       19.5630   -6.6630   33.2380 C.ar   59  TRP59       0.0012
     79  CZ2       19.8140   -3.9930   32.2960 C.ar   59  TRP59       0.0191
     80  CZ3       19.9850   -5.6160   34.1060 C.ar   59  TRP59       0.0001
     81  CH2       20.0950   -4.2960   33.6210 C.ar   59  TRP59       0.0015
     82  N         22.3440   -3.6360   37.0540 N.3    70  MET70      -0.1245
     83  CA        21.5070   -2.5900   37.6330 C.3    70  MET70       0.1570
     84  C         22.3490   -1.5570   38.3720 C.2    70  MET70       0.2261
     85  O         22.0790   -0.3680   38.2690 O.2    70  MET70      -0.2867
     86  CB        20.4270   -3.1780   38.5670 C.3    70  MET70       0.0387
     87  CG        19.4040   -3.9800   37.7750 C.3    70  MET70       0.0595
     88  SD        18.2730   -4.8510   38.8560 S.3    70  MET70      -0.1393
     89  CE        17.1470   -3.5780   39.2370 C.3    70  MET70       0.0692
     90  N         24.1320    0.5370   35.7640 N.3    73  PHE73      -0.1241
     91  CA        23.2530    1.5470   35.1890 C.3    73  PHE73       0.1605
     92  C         23.1600    2.7580   36.0650 C.2    73  PHE73       0.2264
     93  O         23.2130    3.9100   35.5720 O.2    73  PHE73      -0.2867
     94  CB        21.8570    0.9450   34.9670 C.3    73  PHE73       0.0534
     95  CG        20.8170    1.9560   34.4990 C.ar   73  PHE73      -0.0203
     96  CD1       20.8590    2.4940   33.2250 C.ar   73  PHE73      -0.0042
     97  CD2       19.7280    2.2590   35.3680 C.ar   73  PHE73      -0.0042
     98  CE1       19.7530    3.3240   32.8090 C.ar   73  PHE73      -0.0003
     99  CE2       18.7080    3.1430   35.0150 C.ar   73  PHE73      -0.0003
    100  CZ        18.7190    3.6930   33.7320 C.ar   73  PHE73      -0.0000
    101  N         26.2420    4.7630   36.0250 N.3    76  ALA76      -0.1231
    102  CA        26.3630    5.4890   34.7740 C.3    76  ALA76       0.1694
    103  C         25.5470    6.8080   34.9010 C.2    76  ALA76       0.2591
    104  O         26.0110    7.9060   34.5250 O.2    76  ALA76      -0.2718
    105  CB        25.7970    4.6700   33.6520 C.3    76  ALA76       0.0304
    106  N         24.3350    6.6930   35.4110 N.am   77  LEU77      -0.1980
    107  CA        23.5160    7.8840   35.6230 C.3    77  LEU77       0.1596
    108  C         24.2180    8.8180   36.6120 C.2    77  LEU77       0.2287
    109  O         24.2210   10.0340   36.3990 O.2    77  LEU77      -0.2864
    110  CB        22.0940    7.4970   36.1650 C.3    77  LEU77       0.0297
    111  CG        21.1390    6.6730   35.2580 C.3    77  LEU77       0.0022
    112  CD1       19.8740    6.6270   36.0420 C.3    77  LEU77       0.0001
    113  CD2       20.8830    7.3790   33.9720 C.3    77  LEU77       0.0001
    114  N         27.1330   10.8030   35.1650 N.3    80  GLU80      -0.1245
    115  CA        26.8490   11.7810   34.1060 C.3    80  GLU80       0.1567
    116  C         26.0100   12.9430   34.5610 C.2    80  GLU80       0.2260
    117  O         25.9030   13.9380   33.8350 O.2    80  GLU80      -0.2867
    118  CB        26.0300   11.1120   32.9340 C.3    80  GLU80       0.0388
    119  CG        26.9090   10.0540   32.3020 C.3    80  GLU80       0.1160
    120  CD        28.0950   10.6150   31.5270 C.2    80  GLU80       0.3649
    121  OE1       28.0370   11.7720   31.0410 O.co2  80  GLU80      -0.2457
    122  OE2       29.0920    9.8760   31.4080 O.co2  80  GLU80      -0.2457
    123  N         25.1650   16.7240   32.9420 N.3    84  LEU84      -0.1245
    124  CA        23.8560   17.0260   32.3600 C.3    84  LEU84       0.1561
    125  C         23.2410   18.2480   33.0300 C.2    84  LEU84       0.2260
    126  O         22.7260   19.1220   32.3520 O.2    84  LEU84      -0.2867
    127  CB        22.8720   15.8460   32.5880 C.3    84  LEU84       0.0270
    128  CG        23.2770   14.6390   31.8040 C.3    84  LEU84       0.0019
    129  CD1       22.2870   13.6030   32.1990 C.3    84  LEU84       0.0001
    130  CD2       23.0480   14.9280   30.2310 C.3    84  LEU84       0.0001
    131  N         16.8160   15.2320   33.2970 N.3    91  LEU91      -0.1245
    132  CA        16.9300   13.7580   33.1270 C.3    91  LEU91       0.1561
    133  C         15.7050   13.1180   33.6960 C.2    91  LEU91       0.2260
    134  O         15.3080   13.4070   34.8710 O.2    91  LEU91      -0.2867
    135  CB        18.1780   13.3010   33.9040 C.3    91  LEU91       0.0270
    136  CG        18.2880   11.7770   33.9310 C.3    91  LEU91       0.0019
    137  CD1       18.6060   11.1910   32.5030 C.3    91  LEU91       0.0001
    138  CD2       19.5340   11.4900   34.8270 C.3    91  LEU91       0.0001
    139  N         11.6190   -2.7790   40.0670 N.3    99  ARG99      -0.1231
    140  CA        12.5100   -3.9660   40.2240 C.3    99  ARG99       0.1694
    141  C         13.8760   -3.6290   40.8480 C.2    99  ARG99       0.2592
    142  O         14.5450   -4.5240   41.3890 O.2    99  ARG99      -0.2718
    143  CB        12.7150   -4.6920   38.8660 C.3    99  ARG99       0.0321
    144  CG        11.6350   -5.7610   38.4720 C.3    99  ARG99       0.0489
    145  CD        11.6690   -6.0840   36.9080 C.3    99  ARG99       0.2205
    146  NE        12.8750   -5.5610   36.2230 N.pl3  99  ARG99      -0.0865
    147  CZ        14.0950   -6.1320   36.2080 C.cat  99  ARG99       0.5346
    148  NH1       14.3340   -7.2920   36.8280 N.pl3  99  ARG99       0.1354
    149  NH2       15.0970   -5.5290   35.5580 N.pl3  99  ARG99       0.1354
    150  N         14.2580   -2.3470   40.8120 N.am  100  PHE100     -0.1976
    151  CA        15.4600   -1.8690   41.4890 C.3   100  PHE100      0.1639
    152  C         15.2660   -1.9680   42.9950 C.2   100  PHE100      0.2290
    153  O         14.1650   -1.7220   43.4940 O.2   100  PHE100     -0.2864
    154  CB        15.7170   -0.3580   41.1320 C.3   100  PHE100      0.0560
    155  CG        16.1690   -0.1150   39.7170 C.ar  100  PHE100     -0.0200
    156  CD1       17.4970   -0.2150   39.3710 C.ar  100  PHE100     -0.0042
    157  CD2       15.2740    0.2440   38.7450 C.ar  100  PHE100     -0.0042
    158  CE1       17.9400    0.0310   38.0900 C.ar  100  PHE100     -0.0003
    159  CE2       15.6900    0.4730   37.4050 C.ar  100  PHE100     -0.0003
    160  CZ        17.0650    0.3550   37.0860 C.ar  100  PHE100     -0.0000
    161  N         15.9330   14.6860   28.5880 N.3   123  LEU123     -0.1245
    162  CA        16.5220   13.3890   28.1710 C.3   123  LEU123      0.1561
    163  C         15.7580   12.3140   28.9350 C.2   123  LEU123      0.2260
    164  O         15.8660   12.2020   30.1760 O.2   123  LEU123     -0.2867
    165  CB        18.0120   13.4020   28.5150 C.3   123  LEU123      0.0270
    166  CG        18.7060   12.0750   28.2900 C.3   123  LEU123      0.0019
    167  CD1       18.6860   11.6750   26.7950 C.3   123  LEU123      0.0001
    168  CD2       20.1980   12.1400   28.7410 C.3   123  LEU123      0.0001
    169  N         15.3920    8.3750   29.5950 N.3   125  ILE125     -0.1231
    170  CA        16.1520    7.1090   29.4900 C.3   125  ILE125      0.1692
    171  C         15.1960    6.0060   29.8400 C.2   125  ILE125      0.2592
    172  O         14.6040    5.9810   30.9430 O.2   125  ILE125     -0.2718
    173  CB        17.3200    7.1830   30.4990 C.3   125  ILE125      0.0266
    174  CG1       18.2890    8.3550   30.2010 C.3   125  ILE125      0.0019
    175  CG2       18.0090    5.8000   30.6640 C.3   125  ILE125      0.0020
    176  CD1       18.9560    8.2750   28.7570 C.3   125  ILE125      0.0001
    177  N         14.9720    5.0290   28.9470 N.am  126  ALA126     -0.1966
    178  CA        14.0220    3.9050   29.2080 C.3   126  ALA126      0.1728
    179  C         14.7280    2.8600   30.0250 C.2   126  ALA126      0.2616
    180  O         15.8920    2.4040   29.7310 O.2   126  ALA126     -0.2715
    181  CB        13.6250    3.2930   27.8950 C.3   126  ALA126      0.0334
    182  N         14.1040    2.5250   31.1350 N.am  127  ALA127     -0.1963
    183  CA        14.5810    1.3810   31.9770 C.3   127  ALA127      0.1728
    184  C         13.3890    0.5160   32.2810 C.2   127  ALA127      0.2616
    185  O         12.4720    0.9560   32.9570 O.2   127  ALA127     -0.2715
    186  CB        15.1510    1.8840   33.2950 C.3   127  ALA127      0.0334
    187  N         13.4370   -0.6970   31.7310 N.am  128  ASN128     -0.1958
    188  CA        12.2940   -1.6350   31.7610 C.3   128  ASN128      0.1819
    189  C         11.0270   -0.9270   31.3240 C.2   128  ASN128      0.2621
    190  O          9.9890   -0.9810   32.0010 O.2   128  ASN128     -0.2715
    191  CB        12.0690   -2.1880   33.1660 C.3   128  ASN128      0.1195
    192  CG        13.2890   -2.8240   33.7370 C.2   128  ASN128      0.2630
    193  OD1       13.6790   -2.5010   34.8520 O.2   128  ASN128     -0.2716
    194  ND2       13.8980   -3.7370   32.9840 N.am  128  ASN128     -0.0877
    195  N         11.0920   -0.2990   30.1470 N.am  129  TYR129     -0.1974
    196  CA         9.9510    0.3640   29.5010 C.3   129  TYR129      0.1639
    197  C          9.4470   -0.5160   28.3790 C.2   129  TYR129      0.2290
    198  O         10.2370   -1.1180   27.6300 O.2   129  TYR129     -0.2864
    199  CB        10.4320    1.6800   28.8300 C.3   129  TYR129      0.0560
    200  CG         9.3180    2.3600   28.1100 C.ar  129  TYR129     -0.0198
    201  CD1        9.1490    2.0840   26.7280 C.ar  129  TYR129     -0.0009
    202  CD2        8.3850    3.1330   28.7620 C.ar  129  TYR129     -0.0009
    203  CE1        8.0720    2.6010   26.0220 C.ar  129  TYR129      0.0417
    204  CE2        7.3450    3.6800   28.0470 C.ar  129  TYR129      0.0417
    205  CZ         7.1690    3.3700   26.7140 C.ar  129  TYR129      0.1957
    206  OH         6.1260    3.8530   26.0210 O.3   129  TYR129     -0.2866
@<TRIPOS>BOND
     1     3     2    1
     2     3     4    2
     3     2     1    1
     4     2     5    1
     5     5     6    1
     6     6     7    1
     7     7     8    1
     8    43    42    2
     9    39    37    1
    10    46    48   ar
    11    46    45   ar
    12    14    15    1
    13    48    50   ar
    14    44    45    1
    15    44    41    1
    16    60    59    2
    17    45    47   ar
    18    15    16    1
    19    15    18    1
    20    17    16    2
    21    23    24    2
    22    23    22    1
    23    42    41    1
    24    42    52   am
    25    40    41    1
    26    40    34   am
    27    16    21   am
    28    50    51    1
    29    50    49   ar
    30    33    32    1
    31    33    36    1
    32    33    34    1
    33    37    36    1
    34    37    38    1
    35    53    52    1
    36    53    54    1
    37    53    56    1
    38    21    22    1
    39    20    18    1
    40    59    58    1
    41    47    49   ar
    42    34    35    2
    43    55    54    2
    44    54    57   am
    45     9    10    1
    46    22    25    1
    47    18    19    1
    48    57    58    1
    49    11    12    2
    50    11    10    1
    51    25    26    1
    52    58    61    1
    53    10    13    1
    54   206   205    1
    55   203   205   ar
    56   203   201   ar
    57    64    66   ar
    58    64    62   ar
    59    61    62    1
    60   205   204   ar
    61   201   200   ar
    62    66    67   ar
    63   167   166    1
    64    62    63   ar
    65    26    27    1
    66   198   197    2
    67    30    29    1
    68   181   178    1
    69    67    65   ar
    70    27    28    1
    71   204   202   ar
    72   200   202   ar
    73   200   199    1
    74   162   165    1
    75   162   161    1
    76   162   163    1
    77    63    65   ar
    78   166   165    1
    79   166   168    1
    80   197   196    1
    81    29    28    2
    82    29    31    1
    83   176   174    1
    84   199   196    1
    85   163   164    2
    86   177   178    1
    87   177   171   am
    88    68    69    1
    89   178   179    1
    90   170   169    1
    91   170   171    1
    92   170   173    1
    93   196   195    1
    94    74    76   ar
    95    74    73   ar
    96   180   179    2
    97   171   172    2
    98   179   182   am
    99    76    77   ar
   100   195   189   am
   101   174   173    1
   102   130   128    1
   103   173   175    1
   104    69    72    1
   105    69    70    1
   106    72    73    1
   107    73    75   ar
   108    70    71    2
   109   121   120   ar
   110   182   183    1
   111   189   188    1
   112   189   190    2
   113   122   120   ar
   114    77    75   ar
   115    77    79   ar
   116   120   119    1
   117   187   188    1
   118   187   184   am
   119   188   191    1
   120   128   129    1
   121   128   127    1
   122    75    78   ar
   123   183   184    1
   124   183   186    1
   125   184   185    2
   126    79    81   ar
   127   119   118    1
   128   126   125    2
   129   124   127    1
   130   124   123    1
   131   124   125    1
   132   137   136    1
   133    98    96   ar
   134    98   100   ar
   135   118   115    1
   136   194   192   am
   137   132   131    1
   138   132   133    1
   139   132   135    1
   140   191   192    1
   141    96    95   ar
   142    78    80   ar
   143    81    80   ar
   144   105   102    1
   145   133   134    2
   146   100    99   ar
   147   192   193    2
   148   117   116    2
   149   135   136    1
   150   136   138    1
   151   113   111    1
   152   115   116    1
   153   115   114    1
   154    95    94    1
   155    95    97   ar
   156   104   103    2
   157   102   103    1
   158   102   101    1
   159   103   106   am
   160    94    91    1
   161    99    97   ar
   162    91    90    1
   163    91    92    1
   164   111   112    1
   165   111   110    1
   166   106   107    1
   167   149   147    1
   168    93    92    2
   169   107   110    1
   170   107   108    1
   171   147   146    2
   172   147   148    1
   173   146   145    1
   174   109   108    2
   175   145   144    1
   176    82    83    1
   177   160   159   ar
   178   160   158   ar
   179   159   157   ar
   180    83    84    1
   181    83    86    1
   182    87    86    1
   183    87    88    1
   184   158   156   ar
   185    85    84    2
   186   144   143    1
   187   157   155   ar
   188    88    89    1
   189   143   140    1
   190   156   155   ar
   191   155   154    1
   192   139   140    1
   193   140   141    1
   194   150   141   am
   195   150   151    1
   196   141   142    2
   197   154   151    1
   198   151   152    1
   199   152   153    2
