@<TRIPOS>MOLECULE
tmp/3sgxA01.pdb
 226 213 0 0 0
SMALL
GASTEIGER

@<TRIPOS>ATOM
      1  N         -2.7540   -1.9820   -3.5180 N.3     9  MET9       -0.1230
      2  CA        -2.7800   -2.1370   -2.0690 C.3     9  MET9        0.1702
      3  C         -2.6350   -3.6280   -1.7190 C.2     9  MET9        0.2592
      4  O         -3.5890   -4.4070   -1.8670 O.2     9  MET9       -0.2718
      5  CB        -4.0990   -1.5980   -1.5090 C.3     9  MET9        0.0401
      6  CG        -4.6120   -0.3640   -2.1600 C.3     9  MET9        0.0596
      7  SD        -6.1660    0.2800   -1.4390 S.3     9  MET9       -0.1393
      8  CE        -7.3860   -0.5580   -2.4250 C.3     9  MET9        0.0692
      9  N         -1.4620   -4.0290   -1.2490 N.am   10  ASP10      -0.1960
     10  CA        -1.2320   -5.4290   -0.8550 C.3    10  ASP10       0.1840
     11  C         -0.6080   -5.4910    0.5560 C.2    10  ASP10       0.2623
     12  O         -0.1010   -4.4620    1.0900 O.2    10  ASP10      -0.2715
     13  CB        -0.3780   -6.0930   -1.9360 C.3    10  ASP10       0.1450
     14  CG        -0.2270   -7.6200   -1.7860 C.2    10  ASP10       0.3671
     15  OD1       -1.0350   -8.2990   -1.1090 O.co2  10  ASP10      -0.2456
     16  OD2        0.7410   -8.1530   -2.4010 O.co2  10  ASP10      -0.2456
     17  N         -0.7090   -6.6650    1.1820 N.am   11  GLY11      -0.1940
     18  CA        -0.2180   -6.9080    2.5410 C.3    11  GLY11       0.2014
     19  C         -1.2510   -6.8580    3.6600 C.2    11  GLY11       0.2639
     20  O         -0.8940   -6.9490    4.8440 O.2    11  GLY11      -0.2714
     21  N         -2.5270   -6.6980    3.3270 N.am   12  ASN12      -0.1958
     22  CA        -3.5710   -6.7290    4.3460 C.3    12  ASN12       0.1819
     23  C         -3.5270   -8.0130    5.1530 C.2    12  ASN12       0.2621
     24  O         -3.5140   -7.9830    6.4010 O.2    12  ASN12      -0.2715
     25  CB        -4.9530   -6.4670    3.7380 C.3    12  ASN12       0.1195
     26  CG        -5.0990   -5.0000    3.1890 C.2    12  ASN12       0.2630
     27  OD1       -4.6930   -4.0320    3.8380 O.2    12  ASN12      -0.2716
     28  ND2       -5.6500   -4.8610    1.9980 N.am   12  ASN12      -0.0877
     29  N         -3.4700   -9.1460    4.4610 N.am   13  GLY13      -0.1954
     30  CA        -3.4890  -10.4510    5.1390 C.3    13  GLY13       0.1869
     31  C         -2.2220  -10.7660    5.9230 C.2    13  GLY13       0.2309
     32  O         -2.3010  -11.1810    7.0920 O.2    13  GLY13      -0.2863
     33  N         -7.0480  -13.0360    8.6290 N.3    23  ARG23      -0.1245
     34  CA        -7.0920  -12.1100    7.4740 C.3    23  ARG23       0.1563
     35  C         -8.0160  -10.9150    7.6890 C.2    23  ARG23       0.2260
     36  O         -7.6910   -9.8010    7.2960 O.2    23  ARG23      -0.2867
     37  CB        -7.5990  -12.8730    6.2410 C.3    23  ARG23       0.0307
     38  CG        -6.8280  -12.7020    4.9100 C.3    23  ARG23       0.0489
     39  CD        -5.9860  -13.9650    4.4920 C.3    23  ARG23       0.2205
     40  NE        -4.6070  -13.9920    5.0220 N.pl3  23  ARG23      -0.0865
     41  CZ        -3.4890  -13.6750    4.3390 C.cat  23  ARG23       0.5346
     42  NH1       -3.5290  -13.2660    3.0690 N.pl3  23  ARG23       0.1354
     43  NH2       -2.3020  -13.7670    4.9440 N.pl3  23  ARG23       0.1354
     44  N         -8.0110   -6.7160    6.8190 N.3    27  HIS27      -0.1241
     45  CA        -8.9120   -6.0900    5.8860 C.3    27  HIS27       0.1621
     46  C         -9.5500   -4.8500    6.5230 C.2    27  HIS27       0.2264
     47  O         -9.5700   -3.7730    5.9230 O.2    27  HIS27      -0.2867
     48  CB        -9.9660   -7.0800    5.4060 C.3    27  HIS27       0.0745
     49  CG        -9.3890   -8.3260    4.8050 C.ar   27  HIS27       0.0817
     50  ND1      -10.1280   -9.4830    4.6300 N.ar   27  HIS27      -0.2268
     51  CD2       -8.1370   -8.6050    4.3610 C.ar   27  HIS27       0.1154
     52  CE1       -9.3640  -10.4080    4.0790 C.ar   27  HIS27       0.1986
     53  NE2       -8.1530   -9.9000    3.9060 N.ar   27  HIS27      -0.2212
     54  N         -6.9570   -2.2640    6.5750 N.3    30  GLY30      -0.1210
     55  CA        -6.6580   -1.7750    5.2310 C.3    30  GLY30       0.1956
     56  C         -7.6860   -0.7550    4.7720 C.2    30  GLY30       0.2611
     57  O         -7.3560    0.2260    4.0910 O.2    30  GLY30      -0.2717
     58  N         -8.9320   -1.0100    5.1440 N.am   31  ALA31      -0.1979
     59  CA       -10.0370   -0.0780    5.0030 C.3    31  ALA31       0.1597
     60  C         -9.7590    1.3040    5.6420 C.2    31  ALA31       0.2287
     61  O        -10.1600    2.3570    5.1170 O.2    31  ALA31      -0.2864
     62  CB       -11.3080   -0.7060    5.6200 C.3    31  ALA31       0.0319
     63  N         -7.0390    3.1770    3.6420 N.3    34  VAL34      -0.1245
     64  CA        -7.5810    3.6570    2.3810 C.3    34  VAL34       0.1561
     65  C         -8.1810    5.0540    2.6020 C.2    34  VAL34       0.2260
     66  O         -7.9780    5.9720    1.7790 O.2    34  VAL34      -0.2867
     67  CB        -8.7010    2.7090    1.8560 C.3    34  VAL34       0.0252
     68  CG1       -9.5060    3.3650    0.7760 C.3    34  VAL34       0.0019
     69  CG2       -8.1300    1.3590    1.3490 C.3    34  VAL34       0.0019
     70  N         -7.1690    3.0850   -7.1930 N.3    51  LEU51      -0.1245
     71  CA        -6.9290    2.0910   -6.1310 C.3    51  LEU51       0.1561
     72  C         -7.3020    0.6910   -6.5810 C.2    51  LEU51       0.2260
     73  O         -8.4210    0.4540   -7.0380 O.2    51  LEU51      -0.2867
     74  CB        -7.7510    2.3940   -4.8760 C.3    51  LEU51       0.0270
     75  CG        -7.5710    3.7730   -4.2080 C.3    51  LEU51       0.0019
     76  CD1       -8.3930    3.8210   -2.9610 C.3    51  LEU51       0.0001
     77  CD2       -6.0790    4.1030   -3.9320 C.3    51  LEU51       0.0001
     78  N         -7.1470   -3.2350   -5.1140 N.3    53  ALA53      -0.1231
     79  CA        -6.9430   -3.9900   -3.8900 C.3    53  ALA53       0.1694
     80  C         -5.8970   -5.1170   -3.9740 C.2    53  ALA53       0.2592
     81  O         -4.8710   -5.0150   -3.3000 O.2    53  ALA53      -0.2718
     82  CB        -8.2770   -4.4430   -3.2820 C.3    53  ALA53       0.0304
     83  N         -6.1010   -6.1490   -4.7890 N.am   54  PHE54      -0.1962
     84  CA        -5.1700   -7.3360   -4.8330 C.3    54  PHE54       0.1771
     85  C         -5.4130   -8.3860   -3.7690 C.2    54  PHE54       0.2620
     86  O         -5.2140   -8.1400   -2.5660 O.2    54  PHE54      -0.2715
     87  CB        -3.6560   -7.0390   -4.8290 C.3    54  PHE54       0.0574
     88  CG        -2.8020   -8.2760   -5.1480 C.ar   54  PHE54      -0.0200
     89  CD1       -2.5920   -8.6810   -6.4650 C.ar   54  PHE54      -0.0042
     90  CD2       -2.2500   -9.0660   -4.1260 C.ar   54  PHE54      -0.0042
     91  CE1       -1.8320   -9.8500   -6.7740 C.ar   54  PHE54      -0.0003
     92  CE2       -1.4820  -10.2290   -4.4160 C.ar   54  PHE54      -0.0003
     93  CZ        -1.2750  -10.6170   -5.7450 C.ar   54  PHE54      -0.0000
     94  N         -5.7850   -9.5750   -4.2360 N.am   55  SER55      -0.1950
     95  CA        -6.1400  -10.6650   -3.3450 C.3    55  SER55       0.1924
     96  C         -4.8770  -11.4070   -2.8360 C.2    55  SER55       0.2314
     97  O         -4.1570  -10.8400   -1.9980 O.2    55  SER55      -0.2863
     98  CB        -7.1630  -11.5810   -4.0020 C.3    55  SER55       0.2116
     99  OG        -7.5270  -11.0540   -5.2650 O.3    55  SER55      -0.2180
    100  N         -5.6250  -15.1560   -3.2620 N.3    57  GLU57      -0.1245
    101  CA        -6.1860  -16.4720   -2.9920 C.3    57  GLU57       0.1567
    102  C         -7.7160  -16.4540   -2.7990 C.2    57  GLU57       0.2260
    103  O         -8.4570  -17.0410   -3.6010 O.2    57  GLU57      -0.2867
    104  CB        -5.4790  -17.1180   -1.7780 C.3    57  GLU57       0.0388
    105  CG        -4.0340  -16.6180   -1.5010 C.3    57  GLU57       0.1160
    106  CD        -3.9790  -15.4280   -0.5240 C.2    57  GLU57       0.3649
    107  OE1       -3.1540  -14.5140   -0.7370 O.co2  57  GLU57      -0.2457
    108  OE2       -4.7540  -15.4080    0.4620 O.co2  57  GLU57      -0.2457
    109  N        -15.2240  -12.1640   -0.5940 N.3    58  LEU58      -0.1231
    110  CA       -14.6900  -11.3770    0.5280 C.3    58  LEU58       0.1693
    111  C        -14.0900  -10.0750    0.0110 C.2    58  LEU58       0.2591
    112  O        -14.1930   -9.0220    0.6340 O.2    58  LEU58      -0.2718
    113  CB       -13.6290  -12.1570    1.3040 C.3    58  LEU58       0.0284
    114  CG       -13.2980  -11.7820    2.7340 C.3    58  LEU58       0.0019
    115  CD1      -14.4900  -11.9660    3.6640 C.3    58  LEU58       0.0001
    116  CD2      -12.1190  -12.6310    3.2170 C.3    58  LEU58       0.0001
    117  N        -13.4240  -10.1890   -1.1250 N.am   59  MET59      -0.1979
    118  CA       -13.0660   -9.0510   -1.9330 C.3    59  MET59       0.1605
    119  C        -14.3910   -8.3320   -2.2890 C.2    59  MET59       0.2287
    120  O        -14.5840   -7.1490   -1.9400 O.2    59  MET59      -0.2864
    121  CB       -12.3370   -9.5650   -3.1780 C.3    59  MET59       0.0413
    122  CG       -12.0930   -8.5360   -4.2670 C.3    59  MET59       0.0598
    123  SD       -10.3730   -8.0630   -4.2360 S.3    59  MET59      -0.1393
    124  CE       -10.1820   -7.6120   -2.5260 C.3    59  MET59       0.0692
    125  N        -17.7530   -7.3340   -1.3490 N.3    61  LEU61      -0.1231
    126  CA       -17.7010   -6.7980    0.0370 C.3    61  LEU61       0.1693
    127  C        -16.6540   -5.6620    0.0120 C.2    61  LEU61       0.2592
    128  O        -15.9210   -5.3810    0.9920 O.2    61  LEU61      -0.2718
    129  CB       -17.3910   -7.8650    1.0690 C.3    61  LEU61       0.0284
    130  CG       -18.6180   -8.6870    1.4960 C.3    61  LEU61       0.0019
    131  CD1      -18.3750  -10.1800    1.3500 C.3    61  LEU61       0.0001
    132  CD2      -19.1000   -8.3670    2.9150 C.3    61  LEU61       0.0001
    133  N        -16.5400   -5.1430   -1.2210 N.am   62  PHE62      -0.1976
    134  CA       -16.3140   -3.7780   -1.5750 C.3    62  PHE62       0.1639
    135  C        -17.7270   -3.1520   -1.7530 C.2    62  PHE62       0.2290
    136  O        -17.8640   -1.9550   -2.0050 O.2    62  PHE62      -0.2864
    137  CB       -15.5450   -3.7750   -2.8970 C.3    62  PHE62       0.0560
    138  CG       -16.2950   -3.1780   -4.0790 C.ar   62  PHE62      -0.0200
    139  CD1      -15.8160   -2.0190   -4.6950 C.ar   62  PHE62      -0.0042
    140  CD2      -17.4320   -3.7770   -4.5900 C.ar   62  PHE62      -0.0042
    141  CE1      -16.4770   -1.4420   -5.7680 C.ar   62  PHE62      -0.0003
    142  CE2      -18.1100   -3.2060   -5.6680 C.ar   62  PHE62      -0.0003
    143  CZ       -17.6280   -2.0380   -6.2590 C.ar   62  PHE62      -0.0000
    144  N        -18.0440   -0.9150    1.3660 N.3    65  ALA65      -0.1231
    145  CA       -17.5630    0.4480    1.1120 C.3    65  ALA65       0.1694
    146  C        -18.5480    1.2880    0.2990 C.2    65  ALA65       0.2591
    147  O        -18.8480    2.4190    0.6610 O.2    65  ALA65      -0.2718
    148  CB       -16.2140    0.4260    0.4240 C.3    65  ALA65       0.0304
    149  N        -19.0520    0.7250   -0.7880 N.am   66  LEU66      -0.1980
    150  CA       -19.9870    1.4390   -1.6410 C.3    66  LEU66       0.1596
    151  C        -21.1510    1.9760   -0.7910 C.2    66  LEU66       0.2287
    152  O        -21.4680    3.1580   -0.8690 O.2    66  LEU66      -0.2864
    153  CB       -20.4990    0.5500   -2.7850 C.3    66  LEU66       0.0297
    154  CG       -20.6040    0.8670   -4.3040 C.3    66  LEU66       0.0022
    155  CD1      -21.8160    0.1530   -4.8940 C.3    66  LEU66       0.0001
    156  CD2      -20.6700    2.3510   -4.7450 C.3    66  LEU66       0.0001
    157  N        -19.6800    4.5600    2.3750 N.3    69  GLU69      -0.1231
    158  CA       -18.6860    5.6380    2.2590 C.3    69  GLU69       0.1699
    159  C        -19.0570    6.7140    1.2590 C.2    69  GLU69       0.2592
    160  O        -18.5110    7.8250    1.2810 O.2    69  GLU69      -0.2718
    161  CB       -17.3020    5.0620    1.9100 C.3    69  GLU69       0.0402
    162  CG       -16.6510    4.2840    3.0270 C.3    69  GLU69       0.1161
    163  CD       -16.3910    5.1670    4.2290 C.2    69  GLU69       0.3649
    164  OE1      -15.8810    6.2910    4.0420 O.co2  69  GLU69      -0.2457
    165  OE2      -16.6950    4.7470    5.3600 O.co2  69  GLU69      -0.2457
    166  N        -19.9870    6.3690    0.3820 N.am   70  VAL70      -0.1980
    167  CA       -20.3670    7.2200   -0.7380 C.3    70  VAL70       0.1595
    168  C        -20.8560    8.6320   -0.3240 C.2    70  VAL70       0.2287
    169  O        -20.4470    9.6230   -0.9370 O.2    70  VAL70      -0.2864
    170  CB       -21.3980    6.4860   -1.6330 C.3    70  VAL70       0.0276
    171  CG1      -22.5150    5.8480   -0.7610 C.3    70  VAL70       0.0022
    172  CG2      -21.9990    7.4100   -2.7000 C.3    70  VAL70       0.0022
    173  N        -18.0740   10.7940    0.9590 N.3    73  LEU73      -0.1245
    174  CA       -17.1620   11.2080   -0.1140 C.3    73  LEU73       0.1561
    175  C        -17.7520   12.3430   -0.9110 C.2    73  LEU73       0.2260
    176  O        -17.0690   13.2930   -1.2300 O.2    73  LEU73      -0.2867
    177  CB       -16.8800   10.0450   -1.0580 C.3    73  LEU73       0.0270
    178  CG       -16.0950    8.8800   -0.4960 C.3    73  LEU73       0.0019
    179  CD1      -16.1880    7.7310   -1.4800 C.3    73  LEU73       0.0001
    180  CD2      -14.6450    9.3020   -0.2570 C.3    73  LEU73       0.0001
    181  N        -16.3480   10.1540   -7.6500 N.3    80  LEU80      -0.1245
    182  CA       -16.1720    8.6900   -7.5670 C.3    80  LEU80       0.1561
    183  C        -16.4110    7.9610   -8.8740 C.2    80  LEU80       0.2260
    184  O        -17.4420    8.1380   -9.5330 O.2    80  LEU80      -0.2867
    185  CB       -17.0510    8.0880   -6.4570 C.3    80  LEU80       0.0270
    186  CG       -17.1020    6.5570   -6.2320 C.3    80  LEU80       0.0019
    187  CD1      -15.7030    5.9400   -6.0700 C.3    80  LEU80       0.0001
    188  CD2      -17.9450    6.2580   -5.0000 C.3    80  LEU80       0.0001
    189  N        -15.8800    4.0090  -10.8050 N.3    82  ILE82      -0.1245
    190  CA       -15.5610    2.6220  -10.7420 C.3    82  ILE82       0.1561
    191  C        -15.0630    2.1720  -12.0950 C.2    82  ILE82       0.2260
    192  O        -15.7550    2.2970  -13.1140 O.2    82  ILE82      -0.2867
    193  CB       -16.7820    1.7910  -10.2700 C.3    82  ILE82       0.0252
    194  CG1      -16.8300    1.7670   -8.7460 C.3    82  ILE82       0.0019
    195  CG2      -16.7390    0.3470  -10.8410 C.3    82  ILE82       0.0019
    196  CD1      -16.8670    3.1100   -8.0800 C.3    82  ILE82       0.0001
    197  N        -11.6110    9.9500   -7.4930 N.3   112  LEU112     -0.1245
    198  CA       -11.1950    8.6880   -6.8750 C.3   112  LEU112      0.1561
    199  C        -11.6550    7.5430   -7.7380 C.2   112  LEU112      0.2260
    200  O        -12.8500    7.3380   -7.8810 O.2   112  LEU112     -0.2867
    201  CB       -11.7520    8.4840   -5.4440 C.3   112  LEU112      0.0270
    202  CG       -11.5210    7.1330   -4.7050 C.3   112  LEU112      0.0019
    203  CD1      -10.1050    6.9650   -4.2780 C.3   112  LEU112      0.0001
    204  CD2      -12.3790    6.9240   -3.4660 C.3   112  LEU112      0.0001
    205  N        -11.7880    3.4940   -8.3650 N.3   114  ILE114     -0.1245
    206  CA       -11.7560    2.2510   -7.6010 C.3   114  ILE114      0.1561
    207  C        -11.8260    1.1580   -8.6010 C.2   114  ILE114      0.2260
    208  O        -12.8020    1.0860   -9.3310 O.2   114  ILE114     -0.2867
    209  CB       -12.9500    2.1540   -6.6200 C.3   114  ILE114      0.0252
    210  CG1      -12.9620    3.3690   -5.6780 C.3   114  ILE114      0.0019
    211  CG2      -12.9570    0.7840   -5.7970 C.3   114  ILE114      0.0019
    212  CD1      -11.7870    3.3960   -4.7390 C.3   114  ILE114      0.0001
    213  N          0.1580   -2.5740    3.4240 N.3   194  TRP194     -0.1241
    214  CA        -0.8610   -1.5560    3.2150 C.3   194  TRP194      0.1605
    215  C         -1.4080   -0.9710    4.4980 C.2   194  TRP194      0.2264
    216  O         -1.4230    0.2280    4.6240 O.2   194  TRP194     -0.2867
    217  CB        -2.0050   -2.0410    2.2970 C.3   194  TRP194      0.0550
    218  CG        -3.0070   -0.9440    2.0670 C.ar  194  TRP194      0.0003
    219  CD1       -4.3210   -0.9300    2.4520 C.ar  194  TRP194      0.0946
    220  CD2       -2.7680    0.3120    1.4250 C.ar  194  TRP194      0.0152
    221  NE1       -4.9050    0.2710    2.1120 N.ar  194  TRP194     -0.2442
    222  CE2       -3.9720    1.0440    1.4680 C.ar  194  TRP194      0.0810
    223  CE3       -1.6500    0.8960    0.8410 C.ar  194  TRP194      0.0012
    224  CZ2       -4.0870    2.3270    0.9300 C.ar  194  TRP194      0.0191
    225  CZ3       -1.7660    2.1670    0.3020 C.ar  194  TRP194      0.0001
    226  CH2       -2.9740    2.8740    0.3600 C.ar  194  TRP194      0.0015
@<TRIPOS>BOND
     1   192   191    2
     2   191   190    1
     3   195   193    1
     4   189   190    1
     5   190   193    1
     6   193   194    1
     7   184   183    2
     8   208   207    2
     9   183   182    1
    10   194   196    1
    11   207   206    1
    12   205   206    1
    13   200   199    2
    14   199   198    1
    15   181   182    1
    16   206   209    1
    17   182   185    1
    18   197   198    1
    19    70    71    1
    20    73    72    2
    21   198   201    1
    22    91    89   ar
    23    91    93   ar
    24   209   211    1
    25   209   210    1
    26    72    71    1
    27    89    88   ar
    28   185   186    1
    29   143   141   ar
    30   143   142   ar
    31   186   187    1
    32   186   188    1
    33    71    74    1
    34   141   139   ar
    35    93    92   ar
    36   210   212    1
    37   142   140   ar
    38   201   202    1
    39    99    98    1
    40    88    87    1
    41    88    90   ar
    42    78    79    1
    43   155   154    1
    44    74    75    1
    45    84    87    1
    46    84    83    1
    47    84    85    1
    48    83    80   am
    49   156   154    1
    50   202   203    1
    51   202   204    1
    52   139   138   ar
    53   140   138   ar
    54    92    90   ar
    55   154   153    1
    56   122   123    1
    57   122   121    1
    58    94    85   am
    59    94    95    1
    60   123   124    1
    61    75    77    1
    62    75    76    1
    63   138   137    1
    64    98    95    1
    65    80    79    1
    66    80    81    2
    67    79    82    1
    68    85    86    2
    69   103   102    2
    70     1     2    1
    71    95    96    1
    72   100   101    1
    73   121   118    1
    74   101   102    1
    75   101   104    1
    76   137   134    1
    77    96    97    2
    78   153   150    1
    79   172   170    1
    80     8     7    1
    81    16    14   ar
    82   119   120    2
    83   119   118    1
    84     6     5    1
    85     6     7    1
    86     2     3    1
    87     2     5    1
    88   136   135    2
    89    13    14    1
    90    13    10    1
    91   118   117    1
    92     4     3    2
    93    14    15   ar
    94   104   105    1
    95   135   134    1
    96     3     9   am
    97   150   151    1
    98   150   149    1
    99   170   171    1
   100   170   167    1
   101   134   133    1
   102   105   106    1
   103   179   178    1
   104   125   126    1
   105     9    10    1
   106   176   175    2
   107   133   127   am
   108   117   111   am
   109   177   178    1
   110   177   174    1
   111   169   168    2
   112   175   174    1
   113   152   151    2
   114    10    11    1
   115   149   146   am
   116   167   168    1
   117   167   166    1
   118   107   106   ar
   119   109   110    1
   120   106   108   ar
   121   178   180    1
   122   174   173    1
   123   111   110    1
   124   111   112    2
   125   127   126    1
   126   127   128    2
   127   126   129    1
   128   146   147    2
   129   146   145    1
   130   225   226   ar
   131   225   223   ar
   132   226   224   ar
   133   166   159   am
   134   148   145    1
   135   110   113    1
   136    11    12    2
   137    11    17   am
   138    68    67    1
   139   223   220   ar
   140   224   222   ar
   141   129   130    1
   142   145   144    1
   143    17    18    1
   144   159   160    2
   145   159   158    1
   146   113   114    1
   147    69    67    1
   148   131   130    1
   149   220   222   ar
   150   220   218   ar
   151   222   221   ar
   152   130   132    1
   153    66    65    2
   154    67    64    1
   155   161   158    1
   156   161   162    1
   157    28    26   am
   158   218   217    1
   159   218   219   ar
   160   221   219   ar
   161   158   157    1
   162   217   214    1
   163    64    65    1
   164    64    63    1
   165    18    19    1
   166   114   116    1
   167   114   115    1
   168   162   163    1
   169    42    41    1
   170    26    25    1
   171    26    27    2
   172   214   213    1
   173   214   215    1
   174    21    19   am
   175    21    22    1
   176    19    20    2
   177    25    22    1
   178    53    52   ar
   179    53    51   ar
   180   164   163   ar
   181    52    50   ar
   182    57    56    2
   183   163   165   ar
   184    41    43    1
   185    41    40    2
   186    22    23    1
   187    51    49   ar
   188    29    30    1
   189    29    23   am
   190    39    38    1
   191    39    40    1
   192   215   216    2
   193    50    49   ar
   194    56    58   am
   195    56    55    1
   196    49    48    1
   197    38    37    1
   198    59    58    1
   199    59    62    1
   200    59    60    1
   201    61    60    2
   202    30    31    1
   203    23    24    2
   204    55    54    1
   205    48    45    1
   206    45    46    1
   207    45    44    1
   208    47    46    2
   209    31    32    2
   210    37    34    1
   211    36    35    2
   212    34    35    1
   213    34    33    1
