@<TRIPOS>MOLECULE
tmp/3sgxA00.pdb
 159 151 0 0 0
SMALL
GASTEIGER

@<TRIPOS>ATOM
      1  N         -8.0110   -6.7160    6.8190 N.3    27  HIS27      -0.1241
      2  CA        -8.9120   -6.0900    5.8860 C.3    27  HIS27       0.1621
      3  C         -9.5500   -4.8500    6.5230 C.2    27  HIS27       0.2264
      4  O         -9.5700   -3.7730    5.9230 O.2    27  HIS27      -0.2867
      5  CB        -9.9660   -7.0800    5.4060 C.3    27  HIS27       0.0745
      6  CG        -9.3890   -8.3260    4.8050 C.ar   27  HIS27       0.0817
      7  ND1      -10.1280   -9.4830    4.6300 N.ar   27  HIS27      -0.2268
      8  CD2       -8.1370   -8.6050    4.3610 C.ar   27  HIS27       0.1154
      9  CE1       -9.3640  -10.4080    4.0790 C.ar   27  HIS27       0.1986
     10  NE2       -8.1530   -9.9000    3.9060 N.ar   27  HIS27      -0.2212
     11  N         -8.9320   -1.0100    5.1440 N.3    31  ALA31      -0.1245
     12  CA       -10.0370   -0.0780    5.0030 C.3    31  ALA31       0.1562
     13  C         -9.7590    1.3040    5.6420 C.2    31  ALA31       0.2260
     14  O        -10.1600    2.3570    5.1170 O.2    31  ALA31      -0.2867
     15  CB       -11.3080   -0.7060    5.6200 C.3    31  ALA31       0.0290
     16  N         -7.0390    3.1770    3.6420 N.3    34  VAL34      -0.1231
     17  CA        -7.5810    3.6570    2.3810 C.3    34  VAL34       0.1692
     18  C         -8.1810    5.0540    2.6020 C.2    34  VAL34       0.2591
     19  O         -7.9780    5.9720    1.7790 O.2    34  VAL34      -0.2718
     20  CB        -8.7010    2.7090    1.8560 C.3    34  VAL34       0.0266
     21  CG1       -9.5060    3.3650    0.7760 C.3    34  VAL34       0.0020
     22  CG2       -8.1300    1.3590    1.3490 C.3    34  VAL34       0.0020
     23  N         -8.9250    5.1830    3.7050 N.am   35  ARG35      -0.1980
     24  CA        -9.5030    6.4360    4.1260 C.3    35  ARG35       0.1597
     25  C         -8.3520    7.4260    4.2720 C.2    35  ARG35       0.2287
     26  O         -8.3720    8.5370    3.6930 O.2    35  ARG35      -0.2864
     27  CB       -10.2820    6.2590    5.4270 C.3    35  ARG35       0.0334
     28  CG       -11.0720    7.4920    5.8650 C.3    35  ARG35       0.0492
     29  CD       -11.7300    7.3330    7.2760 C.3    35  ARG35       0.2205
     30  NE       -12.9470    6.4900    7.2480 N.pl3  35  ARG35      -0.0865
     31  CZ       -13.0280    5.1920    7.5920 C.cat  35  ARG35       0.5346
     32  NH1      -11.9700    4.4960    8.0260 N.pl3  35  ARG35       0.1354
     33  NH2      -14.1970    4.5740    7.4960 N.pl3  35  ARG35       0.1354
     34  N         -6.8740    8.4000    0.8950 N.3    38  VAL38      -0.1231
     35  CA        -7.8480    9.2930    0.2270 C.3    38  VAL38       0.1692
     36  C         -7.8000   10.7400    0.7810 C.2    38  VAL38       0.2592
     37  O         -7.6980   11.6640   -0.0340 O.2    38  VAL38      -0.2718
     38  CB        -9.2910    8.6750    0.2050 C.3    38  VAL38       0.0266
     39  CG1      -10.3330    9.6300   -0.3860 C.3    38  VAL38       0.0020
     40  CG2       -9.2830    7.3390   -0.5670 C.3    38  VAL38       0.0020
     41  N         -7.8090   10.9420    2.1150 N.am   39  SER39      -0.1952
     42  CA        -7.5970   12.3270    2.6850 C.3    39  SER39       0.1924
     43  C         -6.2980   12.9550    2.2440 C.2    39  SER39       0.2314
     44  O         -6.2990   14.0780    1.7240 O.2    39  SER39      -0.2863
     45  CB        -7.5730   12.4170    4.2110 C.3    39  SER39       0.2116
     46  OG        -8.5430   11.5910    4.7660 O.3    39  SER39      -0.2180
     47  N         -6.3690   14.1800   -1.2400 N.3    42  ALA42      -0.1231
     48  CA        -7.2630   15.3390   -1.4160 C.3    42  ALA42       0.1694
     49  C         -6.6710   16.6480   -0.9040 C.2    42  ALA42       0.2592
     50  O         -7.0080   17.7250   -1.4140 O.2    42  ALA42      -0.2718
     51  CB        -8.6030   15.1040   -0.7780 C.3    42  ALA42       0.0304
     52  N         -5.7710   16.5330    0.0700 N.am   43  ASN43      -0.1974
     53  CA        -5.2480   17.6650    0.7850 C.3    43  ASN43       0.1688
     54  C         -3.8130   17.9820    0.3750 C.2    43  ASN43       0.2292
     55  O         -3.2000   18.9130    0.8980 O.2    43  ASN43      -0.2864
     56  CB        -5.3560   17.4000    2.2870 C.3    43  ASN43       0.1181
     57  CG        -6.7640   17.6600    2.8150 C.2    43  ASN43       0.2629
     58  OD1       -7.4510   16.7480    3.3120 O.2    43  ASN43      -0.2716
     59  ND2       -7.2260   18.9040    2.6610 N.am   43  ASN43      -0.0877
     60  N        -17.7530   -7.3340   -1.3490 N.3    61  LEU61      -0.1231
     61  CA       -17.7010   -6.7980    0.0370 C.3    61  LEU61       0.1693
     62  C        -16.6540   -5.6620    0.0120 C.2    61  LEU61       0.2592
     63  O        -15.9210   -5.3810    0.9920 O.2    61  LEU61      -0.2718
     64  CB       -17.3910   -7.8650    1.0690 C.3    61  LEU61       0.0284
     65  CG       -18.6180   -8.6870    1.4960 C.3    61  LEU61       0.0019
     66  CD1      -18.3750  -10.1800    1.3500 C.3    61  LEU61       0.0001
     67  CD2      -19.1000   -8.3670    2.9150 C.3    61  LEU61       0.0001
     68  N        -16.5400   -5.1430   -1.2210 N.am   62  PHE62      -0.1976
     69  CA       -16.3140   -3.7780   -1.5750 C.3    62  PHE62       0.1639
     70  C        -17.7270   -3.1520   -1.7530 C.2    62  PHE62       0.2290
     71  O        -17.8640   -1.9550   -2.0050 O.2    62  PHE62      -0.2864
     72  CB       -15.5450   -3.7750   -2.8970 C.3    62  PHE62       0.0560
     73  CG       -16.2950   -3.1780   -4.0790 C.ar   62  PHE62      -0.0200
     74  CD1      -15.8160   -2.0190   -4.6950 C.ar   62  PHE62      -0.0042
     75  CD2      -17.4320   -3.7770   -4.5900 C.ar   62  PHE62      -0.0042
     76  CE1      -16.4770   -1.4420   -5.7680 C.ar   62  PHE62      -0.0003
     77  CE2      -18.1100   -3.2060   -5.6680 C.ar   62  PHE62      -0.0003
     78  CZ       -17.6280   -2.0380   -6.2590 C.ar   62  PHE62      -0.0000
     79  N        -19.6120   -3.2320    0.8030 N.3    64  TRP64      -0.1227
     80  CA       -19.6490   -2.5890    2.1060 C.3    64  TRP64       0.1737
     81  C        -19.2030   -1.1330    1.9780 C.2    64  TRP64       0.2595
     82  O        -19.9390   -0.2150    2.3890 O.2    64  TRP64      -0.2718
     83  CB       -18.8660   -3.3810    3.1750 C.3    64  TRP64       0.0564
     84  CG       -18.9100   -2.7080    4.5270 C.ar   64  TRP64       0.0003
     85  CD1      -19.9770   -2.0330    5.0760 C.ar   64  TRP64       0.0946
     86  CD2      -17.8470   -2.6120    5.4880 C.ar   64  TRP64       0.0152
     87  NE1      -19.6390   -1.5210    6.3130 N.ar   64  TRP64      -0.2442
     88  CE2      -18.3440   -1.8640    6.5960 C.ar   64  TRP64       0.0810
     89  CE3      -16.5290   -3.0910    5.5330 C.ar   64  TRP64       0.0012
     90  CZ2      -17.5660   -1.5870    7.7370 C.ar   64  TRP64       0.0191
     91  CZ3      -15.7460   -2.8080    6.6770 C.ar   64  TRP64       0.0001
     92  CH2      -16.2760   -2.0590    7.7570 C.ar   64  TRP64       0.0015
     93  N        -18.0440   -0.9150    1.3660 N.am   65  ALA65      -0.1980
     94  CA       -17.5630    0.4480    1.1120 C.3    65  ALA65       0.1597
     95  C        -18.5480    1.2880    0.2990 C.2    65  ALA65       0.2287
     96  O        -18.8480    2.4190    0.6610 O.2    65  ALA65      -0.2864
     97  CB       -16.2140    0.4260    0.4240 C.3    65  ALA65       0.0319
     98  N        -21.3930    2.3210    2.5200 N.3    68  SER68      -0.1202
     99  CA       -21.0630    3.0600    3.7370 C.3    68  SER68       0.2020
    100  C        -20.2490    4.3270    3.5470 C.2    68  SER68       0.2618
    101  O        -20.1430    5.0980    4.4730 O.2    68  SER68      -0.2717
    102  CB       -20.3920    2.1390    4.7710 C.3    68  SER68       0.2103
    103  OG       -19.0040    1.9630    4.5410 O.3    68  SER68      -0.2182
    104  N        -19.6800    4.5600    2.3750 N.am   69  GLU69      -0.1979
    105  CA       -18.6860    5.6380    2.2590 C.3    69  GLU69       0.1602
    106  C        -19.0570    6.7140    1.2590 C.2    69  GLU69       0.2287
    107  O        -18.5110    7.8250    1.2810 O.2    69  GLU69      -0.2864
    108  CB       -17.3020    5.0620    1.9100 C.3    69  GLU69       0.0415
    109  CG       -16.6510    4.2840    3.0270 C.3    69  GLU69       0.1163
    110  CD       -16.3910    5.1670    4.2290 C.2    69  GLU69       0.3649
    111  OE1      -15.8810    6.2910    4.0420 O.co2  69  GLU69      -0.2457
    112  OE2      -16.6950    4.7470    5.3600 O.co2  69  GLU69      -0.2457
    113  N        -20.4040   10.3470    2.3920 N.3    72  SER72      -0.1202
    114  CA       -19.3390   11.0450    3.0280 C.3    72  SER72       0.2020
    115  C        -18.3890   11.6130    1.9630 C.2    72  SER72       0.2618
    116  O        -17.9690   12.7890    2.0350 O.2    72  SER72      -0.2717
    117  CB       -18.6290   10.0670    3.9410 C.3    72  SER72       0.2103
    118  OG       -17.5990   10.6870    4.6690 O.3    72  SER72      -0.2182
    119  N        -18.0740   10.7940    0.9590 N.am   73  LEU73      -0.1979
    120  CA       -17.1620   11.2080   -0.1140 C.3    73  LEU73       0.1596
    121  C        -17.7520   12.3430   -0.9110 C.2    73  LEU73       0.2287
    122  O        -17.0690   13.2930   -1.2300 O.2    73  LEU73      -0.2864
    123  CB       -16.8800   10.0450   -1.0580 C.3    73  LEU73       0.0297
    124  CG       -16.0950    8.8800   -0.4960 C.3    73  LEU73       0.0022
    125  CD1      -16.1880    7.7310   -1.4800 C.3    73  LEU73       0.0001
    126  CD2      -14.6450    9.3020   -0.2570 C.3    73  LEU73       0.0001
    127  N        -17.3850   15.6410    0.7570 N.3    76  HIS76      -0.1241
    128  CA       -16.0090   16.0580    0.7550 C.3    76  HIS76       0.1621
    129  C        -15.5420   16.4140   -0.6410 C.2    76  HIS76       0.2264
    130  O        -14.3580   16.7160   -0.8740 O.2    76  HIS76      -0.2867
    131  CB       -15.1780   14.9770    1.4240 C.3    76  HIS76       0.0745
    132  CG       -15.1550   15.1160    2.9070 C.ar   76  HIS76       0.0817
    133  ND1      -16.0310   14.4420    3.7360 N.ar   76  HIS76      -0.2268
    134  CD2      -14.3980   15.9050    3.7110 C.ar   76  HIS76       0.1154
    135  CE1      -15.7880   14.7790    4.9900 C.ar   76  HIS76       0.1986
    136  NE2      -14.8020   15.6670    5.0020 N.ar   76  HIS76      -0.2212
    137  N        -15.5160   14.6560   -3.4430 N.3    78  VAL78      -0.1245
    138  CA       -14.7450   13.6280   -4.1650 C.3    78  VAL78       0.1561
    139  C        -15.5390   13.0440   -5.3070 C.2    78  VAL78       0.2260
    140  O        -16.6630   12.6560   -5.1190 O.2    78  VAL78      -0.2867
    141  CB       -14.2560   12.5510   -3.2120 C.3    78  VAL78       0.0252
    142  CG1      -13.7100   11.3240   -3.9770 C.3    78  VAL78       0.0019
    143  CG2      -13.1730   13.1640   -2.3420 C.3    78  VAL78       0.0019
    144  N        -11.6110    9.9500   -7.4930 N.3   112  LEU112     -0.1245
    145  CA       -11.1950    8.6880   -6.8750 C.3   112  LEU112      0.1561
    146  C        -11.6550    7.5430   -7.7380 C.2   112  LEU112      0.2260
    147  O        -12.8500    7.3380   -7.8810 O.2   112  LEU112     -0.2867
    148  CB       -11.7520    8.4840   -5.4440 C.3   112  LEU112      0.0270
    149  CG       -11.5210    7.1330   -4.7050 C.3   112  LEU112      0.0019
    150  CD1      -10.1050    6.9650   -4.2780 C.3   112  LEU112      0.0001
    151  CD2      -12.3790    6.9240   -3.4660 C.3   112  LEU112      0.0001
    152  N        -11.7880    3.4940   -8.3650 N.3   114  ILE114     -0.1245
    153  CA       -11.7560    2.2510   -7.6010 C.3   114  ILE114      0.1561
    154  C        -11.8260    1.1580   -8.6010 C.2   114  ILE114      0.2260
    155  O        -12.8020    1.0860   -9.3310 O.2   114  ILE114     -0.2867
    156  CB       -12.9500    2.1540   -6.6200 C.3   114  ILE114      0.0252
    157  CG1      -12.9620    3.3690   -5.6780 C.3   114  ILE114      0.0019
    158  CG2      -12.9570    0.7840   -5.7970 C.3   114  ILE114      0.0019
    159  CD1      -11.7870    3.3960   -4.7390 C.3   114  ILE114      0.0001
@<TRIPOS>BOND
     1   155   154    2
     2   154   153    1
     3   152   153    1
     4   147   146    2
     5   146   145    1
     6   153   156    1
     7   144   145    1
     8   145   148    1
     9   156   158    1
    10   156   157    1
    11    78    76   ar
    12    78    77   ar
    13    76    74   ar
    14   157   159    1
    15    77    75   ar
    16   148   149    1
    17   139   140    2
    18   139   138    1
    19   149   150    1
    20   149   151    1
    21    74    73   ar
    22    75    73   ar
    23   138   137    1
    24   138   141    1
    25    73    72    1
    26   142   141    1
    27   141   143    1
    28    72    69    1
    29    71    70    2
    30    70    69    1
    31    69    68    1
    32   125   124    1
    33    48    47    1
    34    48    49    1
    35    48    51    1
    36    50    49    2
    37    60    61    1
    38   122   121    2
    39    68    62   am
    40   123   124    1
    41   123   120    1
    42   121   120    1
    43    49    52   am
    44   130   129    2
    45   129   128    1
    46    40    38    1
    47   124   126    1
    48    39    38    1
    49   120   119    1
    50    37    36    2
    51    62    61    1
    52    62    63    2
    53    61    64    1
    54    52    53    1
    55    38    35    1
    56    35    36    1
    57    35    34    1
    58    95    96    2
    59    95    94    1
    60    54    53    1
    61    54    55    2
    62    97    94    1
    63   128   127    1
    64   128   131    1
    65    21    20    1
    66    36    41   am
    67    53    56    1
    68    79    80    1
    69   119   115   am
    70    64    65    1
    71    94    93    1
    72   106   107    2
    73   106   105    1
    74    22    20    1
    75    66    65    1
    76    93    81   am
    77   131   132    1
    78    65    67    1
    79    44    43    2
    80    19    18    2
    81    20    17    1
    82   108   105    1
    83   108   109    1
    84   115   116    2
    85   115   114    1
    86    81    80    1
    87    81    82    2
    88    80    83    1
    89    41    42    1
    90    43    42    1
    91   105   104    1
    92    56    57    1
    93   104   100   am
    94    17    18    1
    95    17    16    1
    96   113   114    1
    97    98    99    1
    98    18    23   am
    99    59    57   am
   100    42    45    1
   101    57    58    2
   102   132   134   ar
   103   132   133   ar
   104   109   110    1
   105   114   117    1
   106    83    84    1
   107   100    99    1
   108   100   101    2
   109    26    25    2
   110    23    24    1
   111   134   136   ar
   112   133   135   ar
   113    99   102    1
   114    10     9   ar
   115    10     8   ar
   116   117   118    1
   117   111   110   ar
   118     9     7   ar
   119    24    25    1
   120    24    27    1
   121    45    46    1
   122   110   112   ar
   123     8     6   ar
   124    84    85   ar
   125    84    86   ar
   126   103   102    1
   127     7     6   ar
   128     6     5    1
   129   135   136   ar
   130    12    11    1
   131    12    15    1
   132    12    13    1
   133    85    87   ar
   134    14    13    2
   135     5     2    1
   136    27    28    1
   137    86    89   ar
   138    86    88   ar
   139    89    91   ar
   140    28    29    1
   141     2     3    1
   142     2     1    1
   143     4     3    2
   144    87    88   ar
   145    88    90   ar
   146    91    92   ar
   147    30    29    1
   148    30    31    2
   149    33    31    1
   150    31    32    1
   151    90    92   ar
