@<TRIPOS>MOLECULE
tmp/3sgyA01.pdb
 212 206 0 0 0
SMALL
GASTEIGER

@<TRIPOS>ATOM
      1  N         22.7970  -10.3890   -2.9900 N.3     5  LEU5       -0.1231
      2  CA        23.7240   -9.4800   -3.6710 C.3     5  LEU5        0.1693
      3  C         23.7700   -9.8120   -5.1670 C.2     5  LEU5        0.2592
      4  O         24.1790  -10.9110   -5.5530 O.2     5  LEU5       -0.2718
      5  CB        25.1190   -9.5540   -3.0420 C.3     5  LEU5        0.0284
      6  CG        26.2380   -8.6700   -3.6110 C.3     5  LEU5        0.0019
      7  CD1       25.8840   -7.1920   -3.6340 C.3     5  LEU5        0.0001
      8  CD2       27.5380   -8.8890   -2.8300 C.3     5  LEU5        0.0001
      9  N         23.3430   -8.8680   -6.0020 N.am    6  VAL6       -0.1966
     10  CA        23.1630   -9.1570   -7.4230 C.3     6  VAL6        0.1727
     11  C         23.3880   -7.9440   -8.3460 C.2     6  VAL6        0.2616
     12  O         23.1270   -6.8040   -7.9740 O.2     6  VAL6       -0.2715
     13  CB        21.7720   -9.8220   -7.6750 C.3     6  VAL6        0.0290
     14  CG1       20.6330   -8.8490   -7.3800 C.3     6  VAL6        0.0023
     15  CG2       21.6670  -10.4040   -9.0940 C.3     6  VAL6        0.0023
     16  N         23.9090   -8.2110   -9.5360 N.am    7  ALA7       -0.1977
     17  CA        23.9330   -7.2390  -10.6150 C.3     7  ALA7        0.1597
     18  C         22.9910   -7.7670  -11.7040 C.2     7  ALA7        0.2287
     19  O         23.1530   -8.8890  -12.1860 O.2     7  ALA7       -0.2864
     20  CB        25.3570   -7.0560  -11.1540 C.3     7  ALA7        0.0319
     21  N         28.9650  -16.6350  -17.5960 N.3    19  GLN19      -0.1231
     22  CA        29.7850  -15.4540  -17.4070 C.3    19  GLN19       0.1698
     23  C         28.8630  -14.2830  -17.1480 C.2    19  GLN19       0.2592
     24  O         27.6450  -14.3870  -17.3030 O.2    19  GLN19      -0.2718
     25  CB        30.6330  -15.1750  -18.6460 C.3    19  GLN19       0.0381
     26  CG        31.7080  -16.2060  -18.9130 C.3    19  GLN19       0.0905
     27  CD        32.3300  -16.0400  -20.2890 C.2    19  GLN19       0.2608
     28  OE1       32.8730  -14.9800  -20.6150 O.2    19  GLN19      -0.2717
     29  NE2       32.2500  -17.0900  -21.1090 N.am   19  GLN19      -0.0878
     30  N         29.4560  -13.1720  -16.7370 N.am   20  LEU20      -0.1980
     31  CA        28.7380  -11.9160  -16.6710 C.3    20  LEU20       0.1596
     32  C         28.7460  -11.3220  -18.0730 C.2    20  LEU20       0.2287
     33  O         29.7880  -11.3090  -18.7290 O.2    20  LEU20      -0.2864
     34  CB        29.4170  -10.9660  -15.6860 C.3    20  LEU20       0.0297
     35  CG        29.5710  -11.4770  -14.2550 C.3    20  LEU20       0.0022
     36  CD1       30.7050  -10.7200  -13.5570 C.3    20  LEU20       0.0001
     37  CD2       28.2490  -11.3630  -13.4970 C.3    20  LEU20       0.0001
     38  N         28.6570   -8.3600  -18.8830 N.3    22  TRP22      -0.1227
     39  CA        29.2980   -7.0480  -18.8370 C.3    22  TRP22       0.1737
     40  C         30.5230   -7.0980  -17.9400 C.2    22  TRP22       0.2595
     41  O         30.6450   -7.9860  -17.0910 O.2    22  TRP22      -0.2718
     42  CB        28.3220   -5.9990  -18.2880 C.3    22  TRP22       0.0564
     43  CG        27.6890   -6.4410  -17.0050 C.ar   22  TRP22       0.0003
     44  CD1       28.2570   -6.4240  -15.7570 C.ar   22  TRP22       0.0946
     45  CD2       26.3820   -7.0130  -16.8430 C.ar   22  TRP22       0.0152
     46  NE1       27.3820   -6.9380  -14.8330 N.ar   22  TRP22      -0.2442
     47  CE2       26.2240   -7.3070  -15.4670 C.ar   22  TRP22       0.0810
     48  CE3       25.3270   -7.3000  -17.7250 C.ar   22  TRP22       0.0012
     49  CZ2       25.0540   -7.8720  -14.9520 C.ar   22  TRP22       0.0191
     50  CZ3       24.1630   -7.8530  -17.2120 C.ar   22  TRP22       0.0001
     51  CH2       24.0370   -8.1390  -15.8380 C.ar   22  TRP22       0.0015
     52  N         31.4280   -6.1440  -18.1370 N.am   23  HIS23      -0.1975
     53  CA        32.5340   -5.9190  -17.2070 C.3    23  HIS23       0.1656
     54  C         32.3540   -4.5310  -16.5940 C.2    23  HIS23       0.2291
     55  O         32.2870   -3.5260  -17.3140 O.2    23  HIS23      -0.2864
     56  CB        33.8970   -6.0490  -17.9150 C.3    23  HIS23       0.0771
     57  CG        35.0780   -5.9760  -16.9900 C.ar   23  HIS23       0.0820
     58  ND1       36.0910   -5.0510  -17.1460 N.ar   23  HIS23      -0.2267
     59  CD2       35.4030   -6.7100  -15.8950 C.ar   23  HIS23       0.1154
     60  CE1       36.9920   -5.2230  -16.1930 C.ar   23  HIS23       0.1986
     61  NE2       36.5960   -6.2200  -15.4180 N.ar   23  HIS23      -0.2212
     62  N         31.3830   -2.2200   -9.8310 N.3    27  ASP27      -0.1225
     63  CA        30.5110   -3.1880   -9.2130 C.3    27  ASP27       0.1805
     64  C         31.3270   -4.2380   -8.4710 C.2    27  ASP27       0.2597
     65  O         30.8750   -4.7610   -7.4550 O.2    27  ASP27      -0.2718
     66  CB        29.5750   -3.8270  -10.2300 C.3    27  ASP27       0.1424
     67  CG        28.6930   -4.8860   -9.6070 C.2    27  ASP27       0.3668
     68  OD1       28.9050   -6.0770   -9.9170 O.co2  27  ASP27      -0.2456
     69  OD2       27.8180   -4.5390   -8.7800 O.co2  27  ASP27      -0.2456
     70  N         32.5240   -4.5380   -8.9670 N.am   28  LEU28      -0.1979
     71  CA        33.4150   -5.4450   -8.2400 C.3    28  LEU28       0.1596
     72  C         33.8840   -4.7870   -6.9440 C.2    28  LEU28       0.2287
     73  O         33.9800   -5.4460   -5.9140 O.2    28  LEU28      -0.2864
     74  CB        34.6210   -5.8730   -9.0790 C.3    28  LEU28       0.0297
     75  CG        34.4580   -6.4780  -10.4800 C.3    28  LEU28       0.0022
     76  CD1       35.7720   -7.1480  -10.9240 C.3    28  LEU28       0.0001
     77  CD2       33.2980   -7.4500  -10.5800 C.3    28  LEU28       0.0001
     78  N         32.1540   -2.4370   -5.4010 N.3    30  HIS30      -0.1226
     79  CA        30.9280   -2.4920   -4.6240 C.3    30  HIS30       0.1752
     80  C         30.8180   -3.8060   -3.8370 C.2    30  HIS30       0.2596
     81  O         30.5220   -3.7960   -2.6350 O.2    30  HIS30      -0.2718
     82  CB        29.7390   -2.3280   -5.5630 C.3    30  HIS30       0.0759
     83  CG        28.4100   -2.3290   -4.8780 C.ar   30  HIS30       0.0818
     84  ND1       28.0000   -1.3110   -4.0460 N.ar   30  HIS30      -0.2268
     85  CD2       27.3800   -3.2050   -4.9340 C.ar   30  HIS30       0.1154
     86  CE1       26.7810   -1.5670   -3.6050 C.ar   30  HIS30       0.1986
     87  NE2       26.3810   -2.7080   -4.1330 N.ar   30  HIS30      -0.2212
     88  N         31.0640   -4.9250   -4.5190 N.am   31  VAL31      -0.1966
     89  CA        31.0000   -6.2520   -3.9060 C.3    31  VAL31       0.1727
     90  C         32.0750   -6.4420   -2.8280 C.2    31  VAL31       0.2616
     91  O         31.7700   -6.9450   -1.7420 O.2    31  VAL31      -0.2715
     92  CB        31.0630   -7.3880   -4.9680 C.3    31  VAL31       0.0290
     93  CG1       31.2700   -8.7460   -4.3110 C.3    31  VAL31       0.0023
     94  CG2       29.7930   -7.4070   -5.8060 C.3    31  VAL31       0.0023
     95  N         33.3160   -6.0360   -3.1280 N.am   32  LYS32      -0.1977
     96  CA        34.4340   -6.1150   -2.1680 C.3    32  LYS32       0.1596
     97  C         34.0440   -5.4280   -0.8720 C.2    32  LYS32       0.2287
     98  O         34.0540   -6.0420    0.1900 O.2    32  LYS32      -0.2864
     99  CB        35.7160   -5.4200   -2.6810 C.3    32  LYS32       0.0298
    100  CG        36.3160   -5.8930   -4.0010 C.3    32  LYS32       0.0038
    101  CD        37.1450   -7.1760   -3.8870 C.3    32  LYS32       0.0206
    102  CE        36.2690   -8.4220   -4.0510 C.3    32  LYS32       0.1093
    103  NZ        35.5000   -8.4610   -5.3340 N.3    32  LYS32      -0.1314
    104  N         29.6430  -15.3410    1.6820 N.3    40  LEU40      -0.1245
    105  CA        28.9830  -15.4350    0.3890 C.3    40  LEU40       0.1561
    106  C         28.4990  -16.8500    0.1870 C.2    40  LEU40       0.2260
    107  O         29.2630  -17.8120    0.3660 O.2    40  LEU40      -0.2867
    108  CB        29.9400  -15.0990   -0.7490 C.3    40  LEU40       0.0270
    109  CG        30.5400  -13.7040   -0.8910 C.3    40  LEU40       0.0019
    110  CD1       31.5470  -13.6970   -2.0350 C.3    40  LEU40       0.0001
    111  CD2       29.4570  -12.6820   -1.1230 C.3    40  LEU40       0.0001
    112  N         26.7850  -19.3050   -2.7430 N.3    42  MET42      -0.1245
    113  CA        26.5050  -19.4420   -4.1660 C.3    42  MET42       0.1570
    114  C         26.2120  -20.8850   -4.5910 C.2    42  MET42       0.2261
    115  O         26.6710  -21.8470   -3.9560 O.2    42  MET42      -0.2867
    116  CB        27.6580  -18.8490   -4.9870 C.3    42  MET42       0.0387
    117  CG        28.9400  -19.6650   -4.9550 C.3    42  MET42       0.0595
    118  SD        30.3940  -18.6730   -5.3410 S.3    42  MET42      -0.1393
    119  CE        30.7420  -17.9080   -3.7510 C.3    42  MET42       0.0692
    120  N         27.6470  -20.9990  -10.3730 N.3    46  THR46      -0.1203
    121  CA        28.2160  -19.6810  -10.1000 C.3    46  THR46       0.1994
    122  C         29.6730  -19.8160   -9.6800 C.2    46  THR46       0.2617
    123  O         30.5540  -19.1390  -10.2320 O.2    46  THR46      -0.2717
    124  CB        27.4280  -18.9230   -9.0170 C.3    46  THR46       0.1784
    125  OG1       26.1230  -18.6180   -9.5170 O.3    46  THR46      -0.2211
    126  CG2       28.1230  -17.6220   -8.6400 C.3    46  THR46       0.0376
    127  N         29.9350  -20.7030   -8.7220 N.am   47  PHE47      -0.1975
    128  CA        31.2980  -20.8970   -8.2810 C.3    47  PHE47       0.1639
    129  C         32.1930  -21.3930   -9.4110 C.2    47  PHE47       0.2290
    130  O         33.2860  -20.8630   -9.6320 O.2    47  PHE47      -0.2864
    131  CB        31.4070  -21.8510   -7.0980 C.3    47  PHE47       0.0560
    132  CG        32.8250  -22.1650   -6.7560 C.ar   47  PHE47      -0.0200
    133  CD1       33.4270  -23.3330   -7.2220 C.ar   47  PHE47      -0.0042
    134  CD2       33.5980  -21.2440   -6.0510 C.ar   47  PHE47      -0.0042
    135  CE1       34.7730  -23.6040   -6.9430 C.ar   47  PHE47      -0.0003
    136  CE2       34.9360  -21.5040   -5.7650 C.ar   47  PHE47      -0.0003
    137  CZ        35.5260  -22.6880   -6.2120 C.ar   47  PHE47      -0.0000
    138  N         32.0540  -21.1630  -12.5290 N.3    49  SER49      -0.1202
    139  CA        32.3100  -20.1780  -13.5670 C.3    49  SER49       0.2020
    140  C         33.5170  -19.2870  -13.2500 C.2    49  SER49       0.2618
    141  O         34.0830  -18.6640  -14.1520 O.2    49  SER49      -0.2717
    142  CB        31.0690  -19.3300  -13.8020 C.3    49  SER49       0.2103
    143  OG        30.7960  -18.5140  -12.6820 O.3    49  SER49      -0.2182
    144  N         33.9140  -19.2200  -11.9780 N.am   50  ILE50      -0.1979
    145  CA        35.1530  -18.5190  -11.6140 C.3    50  ILE50       0.1595
    146  C         36.2600  -19.5020  -11.2210 C.2    50  ILE50       0.2287
    147  O         37.3940  -19.3730  -11.6840 O.2    50  ILE50      -0.2864
    148  CB        34.9230  -17.3970  -10.5630 C.3    50  ILE50       0.0276
    149  CG1       34.2670  -16.1880  -11.2260 C.3    50  ILE50       0.0022
    150  CG2       36.2350  -16.9030   -9.9670 C.3    50  ILE50       0.0022
    151  CD1       32.7690  -16.2710  -11.3250 C.3    50  ILE50       0.0001
    152  N         37.6890  -20.1790   -8.3150 N.3    52  LYS52      -0.1231
    153  CA        38.5760  -19.7790   -7.2310 C.3    52  LYS52       0.1678
    154  C         37.7550  -18.9680   -6.2130 C.2    52  LYS52       0.2434
    155  O         36.9660  -18.1150   -6.6080 O.2    52  LYS52      -0.2733
    156  CB        39.7320  -18.9590   -7.8300 C.3    52  LYS52       0.0284
    157  CG        40.5160  -18.0750   -6.8720 C.3    52  LYS52       0.0035
    158  CD        41.1530  -16.8800   -7.5990 C.3    52  LYS52       0.0206
    159  CE        42.3690  -17.2800   -8.4440 C.3    52  LYS52       0.1093
    160  NZ        43.5580  -17.6610   -7.6120 N.3    52  LYS52      -0.1314
    161  N         37.9150  -19.2440   -4.9030 N.am   53  PRO53      -0.2718
    162  CA        37.1790  -18.4540   -3.9000 C.3    53  PRO53       0.1535
    163  C         37.6140  -16.9900   -3.8500 C.2    53  PRO53       0.2598
    164  O         38.7470  -16.6630   -4.2100 O.2    53  PRO53      -0.2715
    165  CB        37.5240  -19.1510   -2.5750 C.3    53  PRO53       0.0310
    166  CG        38.8090  -19.8570   -2.8380 C.3    53  PRO53       0.0237
    167  CD        38.7480  -20.2900   -4.2770 C.3    53  PRO53       0.0939
    168  N         36.7060  -16.1210   -3.4220 N.am   54  LEU54      -0.1978
    169  CA        37.0290  -14.7140   -3.2280 C.3    54  LEU54       0.1596
    170  C         37.7160  -14.5230   -1.8820 C.2    54  LEU54       0.2287
    171  O         37.2070  -14.9760   -0.8530 O.2    54  LEU54      -0.2864
    172  CB        35.7790  -13.8330   -3.3550 C.3    54  LEU54       0.0297
    173  CG        35.5600  -13.1320   -4.7040 C.3    54  LEU54       0.0022
    174  CD1       36.2150  -11.7650   -4.7320 C.3    54  LEU54       0.0001
    175  CD2       36.0880  -13.9680   -5.8630 C.3    54  LEU54       0.0001
    176  N         33.5640  -18.1720    1.7970 N.3    59  ASN59      -0.1240
    177  CA        32.9640  -18.6780    0.5590 C.3    59  ASN59       0.1653
    178  C         32.2700  -20.0110    0.8040 C.2    59  ASN59       0.2266
    179  O         32.9190  -21.0120    1.1150 O.2    59  ASN59      -0.2867
    180  CB        34.0250  -18.8720   -0.5260 C.3    59  ASN59       0.1155
    181  CG        34.5790  -17.5640   -1.0540 C.2    59  ASN59       0.2627
    182  OD1       34.3670  -17.2180   -2.2200 O.2    59  ASN59      -0.2716
    183  ND2       35.3020  -16.8320   -0.2070 N.am   59  ASN59      -0.0877
    184  N         24.5940  -14.9390   -3.1540 N.3    92  PHE92      -0.1241
    185  CA        25.4620  -14.3610   -4.1630 C.3    92  PHE92       0.1605
    186  C         25.1360  -14.8290   -5.5900 C.2    92  PHE92       0.2264
    187  O         25.6490  -14.2680   -6.5590 O.2    92  PHE92      -0.2867
    188  CB        26.9080  -14.6870   -3.7880 C.3    92  PHE92       0.0534
    189  CG        27.9330  -13.7870   -4.4240 C.ar   92  PHE92      -0.0203
    190  CD1       29.0260  -14.3300   -5.0920 C.ar   92  PHE92      -0.0042
    191  CD2       27.8270  -12.4050   -4.3380 C.ar   92  PHE92      -0.0042
    192  CE1       29.9910  -13.5050   -5.6760 C.ar   92  PHE92      -0.0003
    193  CE2       28.7850  -11.5790   -4.9220 C.ar   92  PHE92      -0.0003
    194  CZ        29.8690  -12.1270   -5.5920 C.ar   92  PHE92      -0.0000
    195  N         18.9180  -17.5590   -6.3180 N.3    98  PHE98      -0.1241
    196  CA        18.0840  -16.3600   -6.1940 C.3    98  PHE98       0.1605
    197  C         16.5960  -16.7150   -6.1530 C.2    98  PHE98       0.2264
    198  O         15.8520  -16.1930   -5.3140 O.2    98  PHE98      -0.2867
    199  CB        18.3730  -15.3490   -7.3090 C.3    98  PHE98       0.0534
    200  CG        19.7060  -14.6570   -7.1790 C.ar   98  PHE98      -0.0203
    201  CD1       20.2150  -14.3100   -5.9220 C.ar   98  PHE98      -0.0042
    202  CD2       20.4430  -14.3340   -8.3080 C.ar   98  PHE98      -0.0042
    203  CE1       21.4430  -13.6740   -5.7980 C.ar   98  PHE98      -0.0003
    204  CE2       21.6750  -13.7040   -8.1960 C.ar   98  PHE98      -0.0003
    205  CZ        22.1760  -13.3650   -6.9390 C.ar   98  PHE98      -0.0000
    206  N         22.7610   -4.1320   -7.9590 N.3   111  THR111     -0.1218
    207  CA        23.3200   -3.2390   -8.9660 C.3   111  THR111      0.1862
    208  C         22.4540   -3.3580  -10.2330 C.2   111  THR111      0.2287
    209  O         22.4140   -4.4170  -10.8710 O.2   111  THR111     -0.2866
    210  CB        24.7830   -3.5820   -9.2780 C.3   111  THR111      0.1770
    211  OG1       25.5390   -3.5830   -8.0630 O.3   111  THR111     -0.2211
    212  CG2       25.3900   -2.5710  -10.2520 C.3   111  THR111      0.0375
@<TRIPOS>BOND
     1    29    27   am
     2    28    27    2
     3    27    26    1
     4    26    25    1
     5    38    39    1
     6    39    42    1
     7    39    40    1
     8    33    32    2
     9    25    22    1
    10    42    43    1
    11    52    40   am
    12    52    53    1
    13    32    31    1
    14    40    41    2
    15    56    53    1
    16    56    57    1
    17    48    50   ar
    18    48    45   ar
    19    21    22    1
    20    22    23    1
    21    55    54    2
    22    24    23    2
    23    50    51   ar
    24    53    54    1
    25    23    30   am
    26    58    57   ar
    27    58    60   ar
    28    43    45   ar
    29    43    44   ar
    30    57    59   ar
    31    45    47   ar
    32    30    31    1
    33    31    34    1
    34    60    61   ar
    35    59    61   ar
    36    51    49   ar
    37    44    46   ar
    38    34    35    1
    39    47    49   ar
    40    47    46   ar
    41    35    36    1
    42    35    37    1
    43   141   140    2
    44   142   139    1
    45   142   143    1
    46   139   140    1
    47   139   138    1
    48   140   144   am
    49    19    18    2
    50   144   145    1
    51    18    17    1
    52   147   146    2
    53   145   146    1
    54   145   148    1
    55   151   149    1
    56   149   148    1
    57    20    17    1
    58    76    75    1
    59   209   208    2
    60    17    16    1
    61    77    75    1
    62   148   150    1
    63    75    74    1
    64   120   121    1
    65   212   210    1
    66   208   207    1
    67   123   122    2
    68    66    67    1
    69    66    63    1
    70   121   122    1
    71   121   124    1
    72    68    67   ar
    73    62    63    1
    74   122   127   am
    75   130   129    2
    76    67    69   ar
    77    16    11   am
    78   125   124    1
    79   129   128    1
    80   210   207    1
    81   210   211    1
    82    63    64    1
    83    15    13    1
    84    74    71    1
    85   124   126    1
    86    70    64   am
    87    70    71    1
    88   207   206    1
    89   127   128    1
    90    64    65    2
    91   159   160    1
    92   159   158    1
    93    11    12    2
    94    11    10    1
    95   152   153    1
    96   202   204   ar
    97   202   200   ar
    98   128   131    1
    99    71    72    1
   100   204   205   ar
   101   156   153    1
   102   156   157    1
   103    13    10    1
   104    13    14    1
   105   158   157    1
   106    10     9    1
   107   199   200    1
   108   199   196    1
   109   153   154    1
   110   133   135   ar
   111   133   132   ar
   112   200   201   ar
   113   131   132    1
   114    72    73    2
   115   135   137   ar
   116   205   203   ar
   117   132   134   ar
   118   155   154    2
   119   187   186    2
   120   195   196    1
   121   154   161   am
   122   137   136   ar
   123   196   197    1
   124   197   198    2
   125   134   136   ar
   126     9     3   am
   127   201   203   ar
   128   175   173    1
   129    94    92    1
   130   192   194   ar
   131   192   190   ar
   132   194   193   ar
   133   186   185    1
   134    82    83    1
   135    82    79    1
   136     4     3    2
   137    78    79    1
   138   118   117    1
   139   118   119    1
   140   103   102    1
   141     3     2    1
   142   190   189   ar
   143   116   117    1
   144   116   113    1
   145    92    93    1
   146    92    89    1
   147    85    83   ar
   148    85    87   ar
   149   193   191   ar
   150   161   167    1
   151   161   162    1
   152    83    84   ar
   153   174   173    1
   154   173   172    1
   155    79    80    1
   156   114   113    1
   157   114   115    2
   158    88    89    1
   159    88    80   am
   160   189   191   ar
   161   189   188    1
   162   167   166    1
   163   164   163    2
   164   113   112    1
   165   185   188    1
   166   185   184    1
   167    87    86   ar
   168   102   101    1
   169    84    86   ar
   170   100   101    1
   171   100    99    1
   172    89    90    1
   173   162   163    1
   174   162   165    1
   175   163   168   am
   176    80    81    2
   177     2     5    1
   178     2     1    1
   179     7     6    1
   180     6     5    1
   181     6     8    1
   182   168   169    1
   183   172   169    1
   184   169   170    1
   185    95    90   am
   186    95    96    1
   187   166   165    1
   188    90    91    2
   189    99    96    1
   190   182   181    2
   191    96    97    1
   192   110   109    1
   193   170   171    2
   194   111   109    1
   195   181   180    1
   196   181   183   am
   197   109   108    1
   198    97    98    2
   199   108   105    1
   200   180   177    1
   201   106   107    2
   202   106   105    1
   203   105   104    1
   204   177   178    1
   205   177   176    1
   206   178   179    2
