@<TRIPOS>MOLECULE
tmp/3sgzC00.pdb
 221 213 0 0 0
SMALL
GASTEIGER

@<TRIPOS>ATOM
      1  N        -30.4860  -62.8910  -73.3880 N.3    23  PHE23      -0.1227
      2  CA       -29.5220  -63.1730  -72.3240 C.3    23  PHE23       0.1736
      3  C        -29.4150  -61.9840  -71.3540 C.2    23  PHE23       0.2595
      4  O        -29.3250  -62.1900  -70.1340 O.2    23  PHE23      -0.2718
      5  CB       -28.1350  -63.4690  -72.9160 C.3    23  PHE23       0.0547
      6  CG       -27.0760  -63.6250  -71.8780 C.ar   23  PHE23      -0.0202
      7  CD1      -26.0730  -62.7010  -71.7650 C.ar   23  PHE23      -0.0042
      8  CD2      -27.1330  -64.6730  -70.9620 C.ar   23  PHE23      -0.0042
      9  CE1      -25.1130  -62.8040  -70.7420 C.ar   23  PHE23      -0.0003
     10  CE2      -26.1740  -64.7690  -69.9390 C.ar   23  PHE23      -0.0003
     11  CZ       -25.1830  -63.8340  -69.8470 C.ar   23  PHE23      -0.0000
     12  N        -29.4330  -60.7510  -71.8610 N.am   24  ILE24      -0.1980
     13  CA       -29.3340  -59.5890  -70.9940 C.3    24  ILE24       0.1595
     14  C        -30.5800  -59.4250  -70.1360 C.2    24  ILE24       0.2287
     15  O        -30.4850  -59.0060  -68.9670 O.2    24  ILE24      -0.2864
     16  CB       -28.9660  -58.3390  -71.8020 C.3    24  ILE24       0.0276
     17  CG1      -27.5570  -58.5700  -72.3580 C.3    24  ILE24       0.0022
     18  CG2      -29.0160  -57.0770  -70.9250 C.3    24  ILE24       0.0022
     19  CD1      -27.1460  -57.5570  -73.4380 C.3    24  ILE24       0.0001
     20  N        -38.8300  -56.0550  -58.9990 N.3    37  ASN37      -0.1240
     21  CA       -37.7300  -55.1800  -58.6190 C.3    37  ASN37       0.1653
     22  C        -38.0330  -53.7410  -58.9790 C.2    37  ASN37       0.2266
     23  O        -37.6040  -52.8070  -58.2550 O.2    37  ASN37      -0.2867
     24  CB       -36.4170  -55.5980  -59.2840 C.3    37  ASN37       0.1155
     25  CG       -35.7200  -56.7460  -58.5570 C.2    37  ASN37       0.2627
     26  OD1      -36.1000  -57.0880  -57.4290 O.2    37  ASN37      -0.2716
     27  ND2      -34.7110  -57.3440  -59.1860 N.am   37  ASN37      -0.0877
     28  N        -22.4250  -53.2900  -60.9800 N.3    75  SER75      -0.1203
     29  CA       -22.4890  -54.6650  -60.4830 C.3    75  SER75       0.2005
     30  C        -21.8300  -55.5920  -61.4910 C.2    75  SER75       0.2461
     31  O        -21.7480  -55.2880  -62.6720 O.2    75  SER75      -0.2732
     32  CB       -23.9620  -55.0720  -60.2730 C.3    75  SER75       0.2103
     33  OG       -24.1580  -55.4400  -58.9130 O.3    75  SER75      -0.2182
     34  N        -21.3270  -56.7400  -61.0310 N.am   76  PRO76      -0.2717
     35  CA       -20.6810  -57.6940  -61.9230 C.3    76  PRO76       0.1536
     36  C        -21.6390  -58.2750  -62.9310 C.2    76  PRO76       0.2599
     37  O        -22.6950  -58.8180  -62.5530 O.2    76  PRO76      -0.2715
     38  CB       -20.1300  -58.7640  -60.9640 C.3    76  PRO76       0.0310
     39  CG       -21.0480  -58.6760  -59.7400 C.3    76  PRO76       0.0237
     40  CD       -21.3560  -57.1980  -59.6290 C.3    76  PRO76       0.0939
     41  N        -21.2940  -58.1730  -64.2150 N.am   77  THR77      -0.1937
     42  CA       -22.1200  -58.7400  -65.2700 C.3    77  THR77       0.2028
     43  C        -21.1730  -59.3710  -66.2810 C.2    77  THR77       0.2642
     44  O        -20.2260  -58.7160  -66.7600 O.2    77  THR77      -0.2714
     45  CB       -22.9940  -57.6760  -65.9780 C.3    77  THR77       0.1808
     46  OG1      -22.2180  -56.5040  -66.2170 O.3    77  THR77      -0.2208
     47  CG2      -24.2070  -57.2800  -65.1020 C.3    77  THR77       0.0379
     48  N        -21.4300  -60.6280  -66.6020 N.am   78  ALA78      -0.1977
     49  CA       -20.5770  -61.3790  -67.5180 C.3    78  ALA78       0.1597
     50  C        -20.5930  -60.9010  -68.9600 C.2    78  ALA78       0.2287
     51  O        -21.5510  -60.2930  -69.4320 O.2    78  ALA78      -0.2864
     52  CB       -21.0220  -62.8290  -67.5020 C.3    78  ALA78       0.0319
     53  N        -16.8420  -58.9720  -63.4300 N.3   105  SER105     -0.1217
     54  CA       -17.4010  -60.3220  -63.3080 C.3   105  SER105      0.1889
     55  C        -16.3460  -61.4050  -63.3850 C.2   105  SER105      0.2288
     56  O        -15.2790  -61.2140  -63.9530 O.2   105  SER105     -0.2866
     57  CB       -18.3790  -60.5480  -64.4570 C.3   105  SER105      0.2089
     58  OG       -18.7250  -61.9210  -64.6230 O.3   105  SER105     -0.2183
     59  N        -16.6500  -63.8430  -65.1690 N.3   107  TYR107     -0.1241
     60  CA       -16.7040  -64.3100  -66.5480 C.3   107  TYR107      0.1605
     61  C        -16.6270  -63.1570  -67.5320 C.2   107  TYR107      0.2264
     62  O        -17.5250  -62.9650  -68.3520 O.2   107  TYR107     -0.2867
     63  CB       -17.9860  -65.0800  -66.7850 C.3   107  TYR107      0.0534
     64  CG       -17.9760  -66.4170  -66.1110 C.ar  107  TYR107     -0.0201
     65  CD1      -17.2180  -67.4670  -66.6330 C.ar  107  TYR107     -0.0009
     66  CD2      -18.7080  -66.6360  -64.9560 C.ar  107  TYR107     -0.0009
     67  CE1      -17.1930  -68.7100  -66.0170 C.ar  107  TYR107      0.0417
     68  CE2      -18.6920  -67.8800  -64.3240 C.ar  107  TYR107      0.0417
     69  CZ       -17.9320  -68.9090  -64.8660 C.ar  107  TYR107      0.1957
     70  OH       -17.9270  -70.1570  -64.2730 O.3   107  TYR107     -0.2866
     71  N        -15.3140  -59.9810  -58.8060 N.3   127  GLN127     -0.1245
     72  CA       -16.2410  -61.0280  -58.3820 C.3   127  GLN127      0.1566
     73  C        -15.6530  -62.3180  -58.8490 C.2   127  GLN127      0.2260
     74  O        -15.4580  -62.5180  -60.0540 O.2   127  GLN127     -0.2867
     75  CB       -17.6090  -60.8510  -59.0420 C.3   127  GLN127      0.0367
     76  CG       -18.6610  -61.8800  -58.5520 C.3   127  GLN127      0.0905
     77  CD       -19.0640  -62.8360  -59.6350 C.2   127  GLN127      0.2608
     78  OE1      -19.1910  -62.4570  -60.8080 O.2   127  GLN127     -0.2717
     79  NE2      -19.3260  -64.0770  -59.2500 N.am  127  GLN127     -0.0878
     80  N        -16.0040  -66.5510  -58.7610 N.3   129  TYR129     -0.1241
     81  CA       -16.7550  -67.7540  -58.4400 C.3   129  TYR129      0.1605
     82  C        -15.6580  -68.7480  -58.0350 C.2   129  TYR129      0.2264
     83  O        -14.7910  -69.0850  -58.8450 O.2   129  TYR129     -0.2867
     84  CB       -17.5470  -68.2470  -59.6690 C.3   129  TYR129      0.0534
     85  CG       -18.8860  -67.5540  -59.8490 C.ar  129  TYR129     -0.0201
     86  CD1      -19.1960  -66.8700  -61.0270 C.ar  129  TYR129     -0.0009
     87  CD2      -19.8490  -67.5720  -58.8280 C.ar  129  TYR129     -0.0009
     88  CE1      -20.4350  -66.2060  -61.1860 C.ar  129  TYR129      0.0417
     89  CE2      -21.0870  -66.9180  -58.9810 C.ar  129  TYR129      0.0417
     90  CZ       -21.3740  -66.2300  -60.1600 C.ar  129  TYR129      0.1957
     91  OH       -22.5630  -65.5180  -60.3050 O.3   129  TYR129     -0.2866
     92  N        -20.4940  -63.9550  -54.9750 N.3   155  THR155     -0.1218
     93  CA       -21.9360  -64.0250  -55.2650 C.3   155  THR155      0.1862
     94  C        -22.3880  -65.3750  -54.7620 C.2   155  THR155      0.2287
     95  O        -21.8510  -66.4230  -55.1920 O.2   155  THR155     -0.2866
     96  CB       -22.1350  -63.8720  -56.7450 C.3   155  THR155      0.1770
     97  OG1      -21.7420  -62.5370  -57.0860 O.3   155  THR155     -0.2211
     98  CG2      -23.6090  -64.0700  -57.1430 C.3   155  THR155      0.0375
     99  N        -22.5320  -61.0090  -52.0680 N.3   208  LYS208     -0.1245
    100  CA       -23.6100  -60.5070  -52.9320 C.3   208  LYS208      0.1561
    101  C        -24.7120  -61.5450  -53.0900 C.2   208  LYS208      0.2260
    102  O        -24.4420  -62.7130  -53.4340 O.2   208  LYS208     -0.2867
    103  CB       -23.0070  -60.1490  -54.2980 C.3   208  LYS208      0.0271
    104  CG       -24.0630  -59.7920  -55.3740 C.3   208  LYS208      0.0035
    105  CD       -23.3490  -59.2160  -56.5990 C.3   208  LYS208      0.0206
    106  CE       -24.3070  -58.9300  -57.7600 C.3   208  LYS208      0.1093
    107  NZ       -24.7480  -60.1350  -58.5100 N.3   208  LYS208     -0.1314
    108  N        -29.3880  -58.3720  -53.0080 N.3   230  SER230     -0.1217
    109  CA       -29.6090  -58.5880  -54.4230 C.3   230  SER230      0.1889
    110  C        -30.3180  -59.9000  -54.6240 C.2   230  SER230      0.2288
    111  O        -30.1150  -60.8340  -53.8480 O.2   230  SER230     -0.2866
    112  CB       -28.2290  -58.6970  -55.1130 C.3   230  SER230      0.2089
    113  OG       -28.3280  -59.0850  -56.4790 O.3   230  SER230     -0.2183
    114  N        -30.1040  -61.0530  -57.8100 N.3   232  HIS232     -0.1226
    115  CA       -29.5130  -61.3620  -59.0970 C.3   232  HIS232      0.1752
    116  C        -30.4150  -60.9300  -60.2610 C.2   232  HIS232      0.2596
    117  O        -30.4590  -61.5820  -61.3040 O.2   232  HIS232     -0.2718
    118  CB       -29.1630  -62.8790  -59.1640 C.3   232  HIS232      0.0759
    119  CG       -27.9570  -63.2220  -59.9990 C.ar  232  HIS232      0.0818
    120  ND1      -26.7940  -63.7130  -59.4400 N.ar  232  HIS232     -0.2268
    121  CD2      -27.7590  -63.2320  -61.3410 C.ar  232  HIS232      0.1154
    122  CE1      -25.9310  -64.0050  -60.4000 C.ar  232  HIS232      0.1986
    123  NE2      -26.4940  -63.7300  -61.5670 N.ar  232  HIS232     -0.2212
    124  N        -31.1280  -59.8400  -60.0470 N.am  233  GLY233     -0.1957
    125  CA       -31.9640  -59.3050  -61.1230 C.3   233  GLY233      0.1869
    126  C        -33.1110  -60.2110  -61.4980 C.2   233  GLY233      0.2309
    127  O        -33.6280  -60.0990  -62.6170 O.2   233  GLY233     -0.2863
    128  N        -32.9070  -63.3080  -62.0470 N.3   235  ARG235     -0.1245
    129  CA       -32.3550  -64.2840  -62.9940 C.3   235  ARG235      0.1563
    130  C        -32.0650  -65.6480  -62.3790 C.2   235  ARG235      0.2260
    131  O        -31.6960  -66.5940  -63.0770 O.2   235  ARG235     -0.2867
    132  CB       -31.0380  -63.7650  -63.5720 C.3   235  ARG235      0.0307
    133  CG       -31.1900  -62.4440  -64.3120 C.3   235  ARG235      0.0489
    134  CD       -29.8280  -61.7920  -64.5440 C.3   235  ARG235      0.2205
    135  NE       -28.9250  -62.5020  -65.4650 N.pl3 235  ARG235     -0.0865
    136  CZ       -28.9910  -62.4140  -66.7940 C.cat 235  ARG235      0.5346
    137  NH1      -29.9410  -61.6780  -67.3930 N.pl3 235  ARG235      0.1354
    138  NH2      -28.0200  -62.9490  -67.5230 N.pl3 235  ARG235      0.1354
    139  N        -28.5430  -53.9790  -55.3130 N.3   263  ASP263     -0.1225
    140  CA       -28.7600  -53.8260  -56.7560 C.3   263  ASP263      0.1805
    141  C        -30.1220  -54.4190  -57.0620 C.2   263  ASP263      0.2598
    142  O        -30.7350  -55.0600  -56.2060 O.2   263  ASP263     -0.2718
    143  CB       -27.6500  -54.4400  -57.6470 C.3   263  ASP263      0.1424
    144  CG       -27.6230  -55.9450  -57.6970 C.2   263  ASP263      0.3668
    145  OD1      -26.5800  -56.4520  -58.1810 O.co2 263  ASP263     -0.2456
    146  OD2      -28.6010  -56.6300  -57.3410 O.co2 263  ASP263     -0.2456
    147  N        -30.6180  -54.1590  -58.2740 N.am  264  GLY264     -0.1942
    148  CA       -31.8690  -54.7370  -58.7310 C.3   264  GLY264      0.2014
    149  C        -32.9600  -53.7220  -58.9610 C.2   264  GLY264      0.2639
    150  O        -33.6250  -53.2510  -58.0470 O.2   264  GLY264     -0.2714
    151  N        -33.1260  -53.3540  -60.2360 N.am  265  GLY265     -0.1939
    152  CA       -34.2070  -52.4630  -60.5980 C.3   265  GLY265      0.2014
    153  C        -33.9410  -50.9820  -60.4660 C.2   265  GLY265      0.2639
    154  O        -34.8800  -50.1990  -60.5790 O.2   265  GLY265     -0.2714
    155  N        -32.6920  -50.5750  -60.2130 N.am  266  VAL266     -0.1963
    156  CA       -32.4190  -49.1420  -60.0920 C.3   266  VAL266      0.1727
    157  C        -32.3650  -48.5560  -61.4890 C.2   266  VAL266      0.2616
    158  O        -31.4960  -48.9330  -62.3050 O.2   266  VAL266     -0.2715
    159  CB       -31.0750  -48.8980  -59.3810 C.3   266  VAL266      0.0290
    160  CG1      -30.7860  -47.3780  -59.3120 C.3   266  VAL266      0.0023
    161  CG2      -31.1120  -49.4910  -57.9490 C.3   266  VAL266      0.0023
    162  N        -33.2630  -47.5980  -61.7820 N.am  267  ARG267     -0.1977
    163  CA       -33.3240  -47.0330  -63.1350 C.3   267  ARG267      0.1597
    164  C        -33.4340  -45.5220  -63.1310 C.2   267  ARG267      0.2287
    165  O        -33.1510  -44.9030  -64.1670 O.2   267  ARG267     -0.2864
    166  CB       -34.5390  -47.5840  -63.9000 C.3   267  ARG267      0.0334
    167  CG       -34.6190  -49.1170  -63.9610 C.3   267  ARG267      0.0492
    168  CD       -33.4890  -49.7040  -64.7800 C.3   267  ARG267      0.2205
    169  NE       -33.5490  -51.1770  -64.7970 N.pl3 267  ARG267     -0.0865
    170  CZ       -32.7240  -52.0150  -64.1490 C.cat 267  ARG267      0.5346
    171  NH1      -31.7440  -51.5570  -63.3810 N.pl3 267  ARG267      0.1354
    172  NH2      -32.8780  -53.3200  -64.3210 N.pl3 267  ARG267      0.1354
    173  N        -25.7510  -50.5860  -56.9740 N.3   284  PHE284     -0.1227
    174  CA       -24.9960  -51.0730  -58.1180 C.3   284  PHE284      0.1736
    175  C        -25.9830  -51.3140  -59.2680 C.2   284  PHE284      0.2595
    176  O        -27.1620  -51.6550  -59.0640 O.2   284  PHE284     -0.2718
    177  CB       -24.2690  -52.3920  -57.7870 C.3   284  PHE284      0.0547
    178  CG       -23.1280  -52.2360  -56.8350 C.ar  284  PHE284     -0.0202
    179  CD1      -23.3610  -52.0750  -55.4720 C.ar  284  PHE284     -0.0042
    180  CD2      -21.8250  -52.2180  -57.3000 C.ar  284  PHE284     -0.0042
    181  CE1      -22.2770  -51.8960  -54.5770 C.ar  284  PHE284     -0.0003
    182  CE2      -20.7480  -52.0360  -56.4200 C.ar  284  PHE284     -0.0003
    183  CZ       -20.9650  -51.8770  -55.0710 C.ar  284  PHE284     -0.0000
    184  N        -25.4780  -51.1040  -60.4860 N.am  285  LEU285     -0.1966
    185  CA       -26.2480  -51.2720  -61.7210 C.3   285  LEU285      0.1728
    186  C        -25.7830  -52.4960  -62.4950 C.2   285  LEU285      0.2617
    187  O        -24.5730  -52.6850  -62.6890 O.2   285  LEU285     -0.2715
    188  CB       -26.0530  -50.0560  -62.6380 C.3   285  LEU285      0.0311
    189  CG       -26.5020  -48.7350  -62.0850 C.3   285  LEU285      0.0022
    190  CD1      -26.0820  -47.6220  -63.0560 C.3   285  LEU285      0.0001
    191  CD2      -28.0270  -48.7190  -61.9300 C.3   285  LEU285      0.0001
    192  N        -26.7360  -53.3090  -62.9410 N.am  286  GLY286     -0.1940
    193  CA       -26.4400  -54.4860  -63.7330 C.3   286  GLY286      0.2014
    194  C        -26.7290  -54.1840  -65.2010 C.2   286  GLY286      0.2639
    195  O        -25.8810  -53.6170  -65.9140 O.2   286  GLY286     -0.2714
    196  N        -27.9490  -54.4660  -65.6330 N.am  287  ARG287     -0.1963
    197  CA       -28.3480  -54.2530  -67.0320 C.3   287  ARG287      0.1714
    198  C        -28.1250  -52.8700  -67.6320 C.2   287  ARG287      0.2458
    199  O        -27.6860  -52.7990  -68.7960 O.2   287  ARG287     -0.2730
    200  CB       -29.8170  -54.6350  -67.2350 C.3   287  ARG287      0.0347
    201  CG       -30.0650  -56.1360  -67.0150 C.3   287  ARG287      0.0492
    202  CD       -31.5410  -56.4500  -67.0510 C.3   287  ARG287      0.2205
    203  NE       -31.8880  -57.8260  -66.6600 N.pl3 287  ARG287     -0.0865
    204  CZ       -32.2000  -58.1840  -65.4150 C.cat 287  ARG287      0.5346
    205  NH1      -32.1480  -57.3040  -64.4310 N.pl3 287  ARG287      0.1354
    206  NH2      -32.7130  -59.3870  -65.2120 N.pl3 287  ARG287      0.1354
    207  N        -28.3490  -51.7730  -66.8940 N.am  288  PRO288     -0.2727
    208  CA       -28.1510  -50.4600  -67.5440 C.3   288  PRO288      0.1402
    209  C        -26.7570  -50.2450  -68.1130 C.2   288  PRO288      0.2269
    210  O        -26.5980  -49.5030  -69.0930 O.2   288  PRO288     -0.2865
    211  CB       -28.4820  -49.4620  -66.4380 C.3   288  PRO288      0.0296
    212  CG       -29.5540  -50.2020  -65.6050 C.3   288  PRO288      0.0237
    213  CD       -28.9450  -51.6250  -65.5470 C.3   288  PRO288      0.0939
    214  N        -24.8760  -52.5830  -69.4940 N.3   290  LEU290     -0.1245
    215  CA       -24.8520  -53.3020  -70.7580 C.3   290  LEU290      0.1561
    216  C        -25.6730  -52.5380  -71.8040 C.2   290  LEU290      0.2260
    217  O        -25.3120  -52.5410  -72.9970 O.2   290  LEU290     -0.2867
    218  CB       -25.4240  -54.7100  -70.5710 C.3   290  LEU290      0.0270
    219  CG       -24.6500  -55.5020  -69.5100 C.3   290  LEU290      0.0019
    220  CD1      -25.2860  -56.8460  -69.3010 C.3   290  LEU290      0.0001
    221  CD2      -23.2090  -55.6650  -69.9690 C.3   290  LEU290      0.0001
@<TRIPOS>BOND
     1    19    17    1
     2     1     2    1
     3   217   216    2
     4     5     2    1
     5     5     6    1
     6    17    16    1
     7     2     3    1
     8     6     7   ar
     9     6     8   ar
    10    12     3   am
    11    12    13    1
    12   216   215    1
    13    16    13    1
    14    16    18    1
    15     7     9   ar
    16     3     4    2
    17    13    14    1
    18     8    10   ar
    19   215   218    1
    20   215   214    1
    21     9    11   ar
    22   218   219    1
    23    14    15    2
    24   221   219    1
    25    10    11   ar
    26   219   220    1
    27    51    50    2
    28   210   209    2
    29    50    49    1
    30   199   198    2
    31    62    61    2
    32   209   208    1
    33   198   197    1
    34   198   207   am
    35   208   207    1
    36   208   211    1
    37    61    60    1
    38   138   136    1
    39    49    52    1
    40    49    48    1
    41   137   136    1
    42   200   197    1
    43   200   201    1
    44   202   201    1
    45   202   203    1
    46   197   196    1
    47   207   213    1
    48   136   135    2
    49    63    60    1
    50    63    64    1
    51    44    43    2
    52   203   204    2
    53    65    64   ar
    54    65    67   ar
    55    48    43   am
    56    60    59    1
    57   211   212    1
    58    43    42    1
    59    46    45    1
    60    64    66   ar
    61    67    69   ar
    62    45    42    1
    63    45    47    1
    64   195   194    2
    65   196   194   am
    66   212   213    1
    67   135   134    1
    68   204   206    1
    69   204   205    1
    70    42    41    1
    71   194   193    1
    72    66    68   ar
    73    69    68   ar
    74    69    70    1
    75   169   168    1
    76   169   170    2
    77   168   167    1
    78    58    57    1
    79   134   133    1
    80    57    54    1
    81   172   170    1
    82   133   132    1
    83    41    36   am
    84   165   164    2
    85   170   171    1
    86   167   166    1
    87    56    55    2
    88   166   163    1
    89   193   192    1
    90   132   129    1
    91    53    54    1
    92    55    54    1
    93   163   164    1
    94   163   162    1
    95   131   130    2
    96   190   189    1
    97   129   130    1
    98   129   128    1
    99   192   186   am
   100    36    37    2
   101    36    35    1
   102   187   186    2
   103    31    30    2
   104   188   189    1
   105   188   185    1
   106   127   126    2
   107   186   185    1
   108   158   157    2
   109   189   191    1
   110    35    34    1
   111    35    38    1
   112   162   157   am
   113   185   184    1
   114   123   121   ar
   115   123   122   ar
   116   126   125    1
   117    30    34   am
   118    30    29    1
   119   157   156    1
   120   121   119   ar
   121   117   116    2
   122    88    86   ar
   123    88    90   ar
   124   125   124    1
   125    34    40    1
   126    86    85   ar
   127    28    29    1
   128    38    39    1
   129    78    77    2
   130   152   153    1
   131   152   151    1
   132   154   153    2
   133   184   175   am
   134    29    32    1
   135   153   155   am
   136   122   120   ar
   137    91    90    1
   138    32    33    1
   139   116   124   am
   140   116   115    1
   141   151   149   am
   142   155   156    1
   143    90    89   ar
   144   156   159    1
   145    74    73    2
   146   119   120   ar
   147   119   118    1
   148    85    84    1
   149    85    87   ar
   150    39    40    1
   151    84    81    1
   152    77    79   am
   153    77    76    1
   154   159   160    1
   155   159   161    1
   156    24    21    1
   157    24    25    1
   158   175   176    2
   159   175   174    1
   160    27    25   am
   161   118   115    1
   162   115   114    1
   163    75    76    1
   164    75    72    1
   165    20    21    1
   166    89    87   ar
   167    22    21    1
   168    22    23    2
   169   149   148    1
   170   149   150    2
   171    73    72    1
   172    83    82    2
   173    71    72    1
   174    80    81    1
   175   148   147    1
   176    25    26    2
   177   107   106    1
   178    81    82    1
   179   147   141   am
   180   145   144   ar
   181   174   177    1
   182   174   173    1
   183   177   178    1
   184   106   105    1
   185   144   143    1
   186   144   146   ar
   187   143   140    1
   188   180   178   ar
   189   180   182   ar
   190    98    96    1
   191    97    96    1
   192   141   140    1
   193   141   142    2
   194   178   179   ar
   195   140   139    1
   196    96    93    1
   197   105   104    1
   198   113   112    1
   199   182   183   ar
   200   179   181   ar
   201   104   103    1
   202    93    92    1
   203    93    94    1
   204    95    94    2
   205   112   109    1
   206   183   181   ar
   207   110   109    1
   208   110   111    2
   209   109   108    1
   210   103   100    1
   211   102   101    2
   212   101   100    1
   213   100    99    1
