@<TRIPOS>MOLECULE
tmp/3sgzC01.pdb
 123 118 0 0 0
SMALL
GASTEIGER

@<TRIPOS>ATOM
      1  N        -30.4860  -62.8910  -73.3880 N.3    23  PHE23      -0.1241
      2  CA       -29.5220  -63.1730  -72.3240 C.3    23  PHE23       0.1605
      3  C        -29.4150  -61.9840  -71.3540 C.2    23  PHE23       0.2264
      4  O        -29.3250  -62.1900  -70.1340 O.2    23  PHE23      -0.2867
      5  CB       -28.1350  -63.4690  -72.9160 C.3    23  PHE23       0.0534
      6  CG       -27.0760  -63.6250  -71.8780 C.ar   23  PHE23      -0.0203
      7  CD1      -26.0730  -62.7010  -71.7650 C.ar   23  PHE23      -0.0042
      8  CD2      -27.1330  -64.6730  -70.9620 C.ar   23  PHE23      -0.0042
      9  CE1      -25.1130  -62.8040  -70.7420 C.ar   23  PHE23      -0.0003
     10  CE2      -26.1740  -64.7690  -69.9390 C.ar   23  PHE23      -0.0003
     11  CZ       -25.1830  -63.8340  -69.8470 C.ar   23  PHE23      -0.0000
     12  N        -21.4300  -60.6280  -66.6020 N.3    78  ALA78      -0.1231
     13  CA       -20.5770  -61.3790  -67.5180 C.3    78  ALA78       0.1694
     14  C        -20.5930  -60.9010  -68.9600 C.2    78  ALA78       0.2592
     15  O        -21.5510  -60.2930  -69.4320 O.2    78  ALA78      -0.2718
     16  CB       -21.0220  -62.8290  -67.5020 C.3    78  ALA78       0.0304
     17  N        -19.4870  -61.1830  -69.6460 N.am   79  PHE79      -0.1976
     18  CA       -19.4040  -61.0250  -71.0950 C.3    79  PHE79       0.1639
     19  C        -19.7740  -59.6970  -71.7180 C.2    79  PHE79       0.2290
     20  O        -20.6710  -59.6590  -72.5690 O.2    79  PHE79      -0.2864
     21  CB       -20.2860  -62.1050  -71.7560 C.3    79  PHE79       0.0560
     22  CG       -20.0380  -63.5100  -71.2630 C.ar   79  PHE79      -0.0200
     23  CD1      -21.1070  -64.3310  -70.9050 C.ar   79  PHE79      -0.0042
     24  CD2      -18.7490  -64.0080  -71.1550 C.ar   79  PHE79      -0.0042
     25  CE1      -20.8880  -65.6410  -70.4310 C.ar   79  PHE79      -0.0003
     26  CE2      -18.5150  -65.3220  -70.6840 C.ar   79  PHE79      -0.0003
     27  CZ       -19.5870  -66.1270  -70.3230 C.ar   79  PHE79      -0.0000
     28  N        -16.8420  -58.9720  -63.4300 N.3   105  SER105     -0.1217
     29  CA       -17.4010  -60.3220  -63.3080 C.3   105  SER105      0.1889
     30  C        -16.3460  -61.4050  -63.3850 C.2   105  SER105      0.2288
     31  O        -15.2790  -61.2140  -63.9530 O.2   105  SER105     -0.2866
     32  CB       -18.3790  -60.5480  -64.4570 C.3   105  SER105      0.2089
     33  OG       -18.7250  -61.9210  -64.6230 O.3   105  SER105     -0.2183
     34  N        -16.6500  -63.8430  -65.1690 N.3   107  TYR107     -0.1241
     35  CA       -16.7040  -64.3100  -66.5480 C.3   107  TYR107      0.1605
     36  C        -16.6270  -63.1570  -67.5320 C.2   107  TYR107      0.2264
     37  O        -17.5250  -62.9650  -68.3520 O.2   107  TYR107     -0.2867
     38  CB       -17.9860  -65.0800  -66.7850 C.3   107  TYR107      0.0534
     39  CG       -17.9760  -66.4170  -66.1110 C.ar  107  TYR107     -0.0201
     40  CD1      -17.2180  -67.4670  -66.6330 C.ar  107  TYR107     -0.0009
     41  CD2      -18.7080  -66.6360  -64.9560 C.ar  107  TYR107     -0.0009
     42  CE1      -17.1930  -68.7100  -66.0170 C.ar  107  TYR107      0.0417
     43  CE2      -18.6920  -67.8800  -64.3240 C.ar  107  TYR107      0.0417
     44  CZ       -17.9320  -68.9090  -64.8660 C.ar  107  TYR107      0.1957
     45  OH       -17.9270  -70.1570  -64.2730 O.3   107  TYR107     -0.2866
     46  N        -16.0040  -66.5510  -58.7610 N.3   129  TYR129     -0.1241
     47  CA       -16.7550  -67.7540  -58.4400 C.3   129  TYR129      0.1605
     48  C        -15.6580  -68.7480  -58.0350 C.2   129  TYR129      0.2264
     49  O        -14.7910  -69.0850  -58.8450 O.2   129  TYR129     -0.2867
     50  CB       -17.5470  -68.2470  -59.6690 C.3   129  TYR129      0.0534
     51  CG       -18.8860  -67.5540  -59.8490 C.ar  129  TYR129     -0.0201
     52  CD1      -19.1960  -66.8700  -61.0270 C.ar  129  TYR129     -0.0009
     53  CD2      -19.8490  -67.5720  -58.8280 C.ar  129  TYR129     -0.0009
     54  CE1      -20.4350  -66.2060  -61.1860 C.ar  129  TYR129      0.0417
     55  CE2      -21.0870  -66.9180  -58.9810 C.ar  129  TYR129      0.0417
     56  CZ       -21.3740  -66.2300  -60.1600 C.ar  129  TYR129      0.1957
     57  OH       -22.5630  -65.5180  -60.3050 O.3   129  TYR129     -0.2866
     58  N        -25.9380  -68.2210  -56.7440 N.3   158  THR158     -0.1218
     59  CA       -25.7740  -68.9530  -57.9960 C.3   158  THR158      0.1862
     60  C        -25.0430  -70.3050  -57.8730 C.2   158  THR158      0.2287
     61  O        -24.1100  -70.5720  -58.6130 O.2   158  THR158     -0.2866
     62  CB       -25.0680  -68.0350  -59.0570 C.3   158  THR158      0.1770
     63  OG1      -25.7190  -66.7500  -59.0570 O.3   158  THR158     -0.2211
     64  CG2      -25.1650  -68.6180  -60.4760 C.3   158  THR158      0.0375
     65  N        -27.1700  -72.3770  -62.1490 N.3   161  LEU161     -0.1245
     66  CA       -27.7450  -71.2680  -62.9010 C.3   161  LEU161      0.1561
     67  C        -29.2620  -71.2780  -62.8450 C.2   161  LEU161      0.2260
     68  O        -29.8930  -72.3260  -62.8050 O.2   161  LEU161     -0.2867
     69  CB       -27.3550  -71.3500  -64.3800 C.3   161  LEU161      0.0270
     70  CG       -26.2790  -70.4800  -65.0300 C.3   161  LEU161      0.0019
     71  CD1      -26.6490  -70.4010  -66.5380 C.3   161  LEU161      0.0001
     72  CD2      -26.2330  -69.0610  -64.4460 C.3   161  LEU161      0.0001
     73  N        -33.7610  -69.8210  -67.2210 N.3   164  ARG164     -0.1245
     74  CA       -34.1870  -68.6870  -68.0640 C.3   164  ARG164      0.1563
     75  C        -34.7430  -69.2790  -69.3340 C.2   164  ARG164      0.2260
     76  O        -33.9750  -69.7470  -70.2270 O.2   164  ARG164     -0.2867
     77  CB       -32.9580  -67.7900  -68.2760 C.3   164  ARG164      0.0307
     78  CG       -32.4430  -67.2910  -66.9440 C.3   164  ARG164      0.0489
     79  CD       -31.0440  -66.8490  -67.0460 C.3   164  ARG164      0.2205
     80  NE       -30.3970  -66.7500  -65.7330 N.pl3 164  ARG164     -0.0865
     81  CZ       -29.1670  -66.2990  -65.5960 C.cat 164  ARG164      0.5346
     82  NH1      -28.4840  -65.9100  -66.6890 N.pl3 164  ARG164      0.1354
     83  NH2      -28.6020  -66.2170  -64.3880 N.pl3 164  ARG164      0.1354
     84  N        -19.9060  -74.4080  -69.3900 N.3   183  LEU183     -0.1231
     85  CA       -20.8220  -74.7020  -68.2640 C.3   183  LEU183      0.1693
     86  C        -20.2240  -74.4180  -66.8920 C.2   183  LEU183      0.2592
     87  O        -19.0010  -74.3020  -66.7070 O.2   183  LEU183     -0.2718
     88  CB       -21.3340  -76.1310  -68.3410 C.3   183  LEU183      0.0284
     89  CG       -22.3230  -76.4390  -69.4650 C.3   183  LEU183      0.0019
     90  CD1      -22.6020  -77.9240  -69.4690 C.3   183  LEU183      0.0001
     91  CD2      -23.6210  -75.6930  -69.2970 C.3   183  LEU183      0.0001
     92  N        -21.1530  -74.3360  -65.9260 N.am  184  PHE184     -0.1976
     93  CA       -20.9910  -73.9290  -64.5150 C.3   184  PHE184      0.1639
     94  C        -20.2570  -74.8660  -63.5830 C.2   184  PHE184      0.2290
     95  O        -19.0740  -75.0300  -63.7320 O.2   184  PHE184     -0.2864
     96  CB       -22.3300  -73.4870  -63.8830 C.3   184  PHE184      0.0560
     97  CG       -22.2250  -72.1890  -63.1930 C.ar  184  PHE184     -0.0200
     98  CD1      -21.6250  -71.1400  -63.8050 C.ar  184  PHE184     -0.0042
     99  CD2      -22.6830  -72.0190  -61.9300 C.ar  184  PHE184     -0.0042
    100  CE1      -21.4870  -69.9910  -63.1770 C.ar  184  PHE184     -0.0003
    101  CE2      -22.5000  -70.8570  -61.3170 C.ar  184  PHE184     -0.0003
    102  CZ       -21.9030  -69.8520  -61.9440 C.ar  184  PHE184     -0.0000
    103  N        -30.1040  -61.0530  -57.8100 N.3   232  HIS232     -0.1241
    104  CA       -29.5130  -61.3620  -59.0970 C.3   232  HIS232      0.1621
    105  C        -30.4150  -60.9300  -60.2610 C.2   232  HIS232      0.2264
    106  O        -30.4590  -61.5820  -61.3040 O.2   232  HIS232     -0.2867
    107  CB       -29.1630  -62.8790  -59.1640 C.3   232  HIS232      0.0745
    108  CG       -27.9570  -63.2220  -59.9990 C.ar  232  HIS232      0.0817
    109  ND1      -26.7940  -63.7130  -59.4400 N.ar  232  HIS232     -0.2268
    110  CD2      -27.7590  -63.2320  -61.3410 C.ar  232  HIS232      0.1154
    111  CE1      -25.9310  -64.0050  -60.4000 C.ar  232  HIS232      0.1986
    112  NE2      -26.4940  -63.7300  -61.5670 N.ar  232  HIS232     -0.2212
    113  N        -32.9070  -63.3080  -62.0470 N.3   235  ARG235     -0.1245
    114  CA       -32.3550  -64.2840  -62.9940 C.3   235  ARG235      0.1563
    115  C        -32.0650  -65.6480  -62.3790 C.2   235  ARG235      0.2260
    116  O        -31.6960  -66.5940  -63.0770 O.2   235  ARG235     -0.2867
    117  CB       -31.0380  -63.7650  -63.5720 C.3   235  ARG235      0.0307
    118  CG       -31.1900  -62.4440  -64.3120 C.3   235  ARG235      0.0489
    119  CD       -29.8280  -61.7920  -64.5440 C.3   235  ARG235      0.2205
    120  NE       -28.9250  -62.5020  -65.4650 N.pl3 235  ARG235     -0.0865
    121  CZ       -28.9910  -62.4140  -66.7940 C.cat 235  ARG235      0.5346
    122  NH1      -29.9410  -61.6780  -67.3930 N.pl3 235  ARG235      0.1354
    123  NH2      -28.0200  -62.9490  -67.5230 N.pl3 235  ARG235      0.1354
@<TRIPOS>BOND
     1     1     2    1
     2     5     2    1
     3     5     6    1
     4    20    19    2
     5     2     3    1
     6     6     7   ar
     7     6     8   ar
     8     7     9   ar
     9    21    22    1
    10    21    18    1
    11    19    18    1
    12     3     4    2
    13    22    24   ar
    14    22    23   ar
    15    24    26   ar
    16    18    17    1
    17     8    10   ar
    18    23    25   ar
    19     9    11   ar
    20    26    27   ar
    21    25    27   ar
    22    76    75    2
    23    10    11   ar
    24    17    14   am
    25    90    89    1
    26    89    91    1
    27    89    88    1
    28    15    14    2
    29    84    85    1
    30    75    74    1
    31    14    13    1
    32    37    36    2
    33    88    85    1
    34    77    74    1
    35    77    78    1
    36    85    86    1
    37    74    73    1
    38    36    35    1
    39   123   121    1
    40    13    16    1
    41    13    12    1
    42   122   121    1
    43    79    78    1
    44    79    80    1
    45    86    87    2
    46    86    92   am
    47   121   120    2
    48    38    35    1
    49    38    39    1
    50    82    81    1
    51    40    39   ar
    52    40    42   ar
    53    35    34    1
    54    71    70    1
    55    39    41   ar
    56    42    44   ar
    57    92    93    1
    58    80    81    2
    59    81    83    1
    60   120   119    1
    61    70    72    1
    62    70    69    1
    63    41    43   ar
    64    44    43   ar
    65    44    45    1
    66    33    32    1
    67   119   118    1
    68    93    96    1
    69    93    94    1
    70    32    29    1
    71    69    66    1
    72   118   117    1
    73    31    30    2
    74    96    97    1
    75    98    97   ar
    76    98   100   ar
    77    95    94    2
    78   117   114    1
    79    28    29    1
    80    30    29    1
    81    97    99   ar
    82   100   102   ar
    83   116   115    2
    84   114   115    1
    85   114   113    1
    86    66    67    1
    87    66    65    1
    88    67    68    2
    89   102   101   ar
    90    99   101   ar
    91   112   110   ar
    92   112   111   ar
    93   110   108   ar
    94   106   105    2
    95    54    52   ar
    96    54    56   ar
    97    52    51   ar
    98    64    62    1
    99   111   109   ar
   100    57    56    1
   101   105   104    1
   102    56    55   ar
   103   108   109   ar
   104   108   107    1
   105    51    50    1
   106    51    53   ar
   107    50    47    1
   108   107   104    1
   109   104   103    1
   110    62    63    1
   111    62    59    1
   112    55    53   ar
   113    49    48    2
   114    46    47    1
   115    61    60    2
   116    47    48    1
   117    59    60    1
   118    59    58    1
