@<TRIPOS>MOLECULE
tmp/3sh0A00.pdb
 175 170 0 0 0
SMALL
GASTEIGER

@<TRIPOS>ATOM
      1  N         -2.3620    1.7460    2.1830 N.3    13  MET13      -0.1245
      2  CA        -2.3920    1.8720    0.7270 C.3    13  MET13       0.1570
      3  C         -2.3240    3.3880    0.4400 C.2    13  MET13       0.2261
      4  O         -3.2690    4.1030    0.7760 O.2    13  MET13      -0.2867
      5  CB        -3.7110    1.2520    0.1670 C.3    13  MET13       0.0387
      6  CG        -3.8680   -0.2250    0.5650 C.3    13  MET13       0.0595
      7  SD        -5.5170   -0.8160   -0.0180 S.3    13  MET13      -0.1393
      8  CE        -6.6890    0.1480    0.9480 C.3    13  MET13       0.0692
      9  N         -8.4710    0.8130   -6.7630 N.3    35  ALA35      -0.1245
     10  CA        -9.4070   -0.2670   -6.5230 C.3    35  ALA35       0.1562
     11  C         -8.9590   -1.5210   -7.2530 C.2    35  ALA35       0.2260
     12  O         -9.1200   -2.6390   -6.7500 O.2    35  ALA35      -0.2867
     13  CB       -10.8720    0.1610   -7.0040 C.3    35  ALA35       0.0290
     14  N         -6.3450   -2.9910   -5.1550 N.3    38  VAL38      -0.1231
     15  CA        -6.9650   -3.7650   -4.0330 C.3    38  VAL38       0.1692
     16  C         -7.3730   -5.1980   -4.4400 C.2    38  VAL38       0.2591
     17  O         -7.0130   -6.1660   -3.7420 O.2    38  VAL38      -0.2718
     18  CB        -8.1820   -3.0260   -3.3990 C.3    38  VAL38       0.0266
     19  CG1       -8.9040   -3.9560   -2.3490 C.3    38  VAL38       0.0020
     20  CG2       -7.7040   -1.6150   -2.7690 C.3    38  VAL38       0.0020
     21  N         -8.1070   -5.3400   -5.5390 N.am   39  ARG39      -0.1980
     22  CA        -8.5880   -6.6700   -5.9570 C.3    39  ARG39       0.1597
     23  C         -7.4150   -7.5750   -6.2120 C.2    39  ARG39       0.2287
     24  O         -7.4640   -8.7560   -5.8900 O.2    39  ARG39      -0.2864
     25  CB        -9.4010   -6.5630   -7.2670 C.3    39  ARG39       0.0334
     26  CG       -10.6570   -5.7000   -7.0620 C.3    39  ARG39       0.0492
     27  CD       -11.7010   -5.8460   -8.2590 C.3    39  ARG39       0.2205
     28  NE       -12.6610   -4.7460   -8.0830 N.pl3  39  ARG39      -0.0865
     29  CZ       -12.4930   -3.5140   -8.5860 C.cat  39  ARG39       0.5346
     30  NH1      -11.5250   -3.2540   -9.4840 N.pl3  39  ARG39       0.1354
     31  NH2      -13.3620   -2.5590   -8.2830 N.pl3  39  ARG39       0.1354
     32  N         -6.5470   -3.8730    5.4880 N.3    55  LEU55      -0.1231
     33  CA        -6.2240   -2.7680    4.5340 C.3    55  LEU55       0.1693
     34  C         -6.6770   -1.4740    5.0700 C.2    55  LEU55       0.2592
     35  O         -7.8510   -1.3520    5.5450 O.2    55  LEU55      -0.2718
     36  CB        -6.9520   -2.9980    3.1920 C.3    55  LEU55       0.0284
     37  CG        -6.6020   -4.3340    2.4760 C.3    55  LEU55       0.0019
     38  CD1       -7.3420   -4.3290    1.1150 C.3    55  LEU55       0.0001
     39  CD2       -5.0650   -4.4920    2.2180 C.3    55  LEU55       0.0001
     40  N         -5.8270   -0.4610    4.9050 N.am   56  TYR56      -0.1962
     41  CA        -6.1390    0.8690    5.4070 C.3    56  TYR56       0.1771
     42  C         -5.9050    1.8350    4.2330 C.2    56  TYR56       0.2619
     43  O         -4.7980    1.8910    3.6590 O.2    56  TYR56      -0.2715
     44  CB        -5.2090    1.1960    6.5690 C.3    56  TYR56       0.0574
     45  CG        -5.3580    2.5810    7.1410 C.ar   56  TYR56      -0.0198
     46  CD1       -4.4720    3.5790    6.7700 C.ar   56  TYR56      -0.0009
     47  CD2       -6.2740    2.8700    8.1510 C.ar   56  TYR56      -0.0009
     48  CE1       -4.5420    4.8600    7.3420 C.ar   56  TYR56       0.0417
     49  CE2       -6.3580    4.1470    8.7160 C.ar   56  TYR56       0.0417
     50  CZ        -5.4870    5.1370    8.2930 C.ar   56  TYR56       0.1957
     51  OH        -5.5120    6.4240    8.7880 O.3    56  TYR56      -0.2866
     52  N         -6.9500    2.5340    3.8460 N.am   57  ALA57      -0.1977
     53  CA        -6.8390    3.5690    2.7480 C.3    57  ALA57       0.1597
     54  C         -6.4170    4.8560    3.3750 C.2    57  ALA57       0.2287
     55  O         -7.1900    5.4710    4.1240 O.2    57  ALA57      -0.2864
     56  CB        -8.1840    3.7780    2.0860 C.3    57  ALA57       0.0319
     57  N        -14.3570   13.1770    5.0600 N.3    64  VAL64      -0.1245
     58  CA       -15.3350   12.2260    5.5680 C.3    64  VAL64       0.1561
     59  C        -16.2510   11.7460    4.4450 C.2    64  VAL64       0.2260
     60  O        -16.3730   10.5290    4.2140 O.2    64  VAL64      -0.2867
     61  CB       -16.1690   12.8310    6.7640 C.3    64  VAL64       0.0252
     62  CG1      -17.3750   11.9220    7.1360 C.3    64  VAL64       0.0019
     63  CG2      -15.2760   13.0420    7.9740 C.3    64  VAL64       0.0019
     64  N        -14.6860    9.5660    1.8150 N.3    67  LEU67      -0.1231
     65  CA       -14.3270    8.2770    2.4060 C.3    67  LEU67       0.1693
     66  C        -15.5790    7.4000    2.5600 C.2    67  LEU67       0.2591
     67  O        -15.5360    6.1630    2.4010 O.2    67  LEU67      -0.2718
     68  CB       -13.5720    8.4360    3.7510 C.3    67  LEU67       0.0284
     69  CG       -12.0570    8.7830    3.6880 C.3    67  LEU67       0.0019
     70  CD1      -11.4900    9.3130    5.0270 C.3    67  LEU67       0.0001
     71  CD2      -11.2050    7.6010    3.1230 C.3    67  LEU67       0.0001
     72  N        -16.6850    8.0350    2.9040 N.am   68  MET68      -0.1979
     73  CA       -17.9560    7.3500    2.9920 C.3    68  MET68       0.1605
     74  C        -18.3670    6.8240    1.6060 C.2    68  MET68       0.2287
     75  O        -18.8780    5.7040    1.4790 O.2    68  MET68      -0.2864
     76  CB       -19.0210    8.3110    3.5610 C.3    68  MET68       0.0413
     77  CG       -20.3560    7.6630    3.8190 C.3    68  MET68       0.0598
     78  SD       -20.2280    6.3810    5.0760 S.3    68  MET68      -0.1393
     79  CE       -20.3820    7.3160    6.6220 C.3    68  MET68       0.0692
     80  N        -16.4890    6.0490   -0.9790 N.3    70  LEU70      -0.1231
     81  CA       -15.6130    4.9120   -1.2960 C.3    70  LEU70       0.1693
     82  C        -16.0930    3.6170   -0.6060 C.2    70  LEU70       0.2592
     83  O        -16.2220    2.5610   -1.2450 O.2    70  LEU70      -0.2718
     84  CB       -14.1540    5.2120   -0.8980 C.3    70  LEU70       0.0284
     85  CG       -13.0700    4.1320   -1.0560 C.3    70  LEU70       0.0019
     86  CD1      -12.5860    4.0040   -2.5480 C.3    70  LEU70       0.0001
     87  CD2      -11.8930    4.4120   -0.1340 C.3    70  LEU70       0.0001
     88  N        -16.3470    3.7170    0.6950 N.am   71  PHE71      -0.1976
     89  CA       -16.8080    2.5850    1.5000 C.3    71  PHE71       0.1639
     90  C        -18.1740    2.0280    1.0300 C.2    71  PHE71       0.2290
     91  O        -18.3330    0.8230    0.8070 O.2    71  PHE71      -0.2864
     92  CB       -16.9330    3.0670    2.9510 C.3    71  PHE71       0.0560
     93  CG       -17.2160    1.9820    3.9270 C.ar   71  PHE71      -0.0200
     94  CD1      -16.4730    0.8000    3.9170 C.ar   71  PHE71      -0.0042
     95  CD2      -18.2130    2.1540    4.8710 C.ar   71  PHE71      -0.0042
     96  CE1      -16.7460   -0.2130    4.8220 C.ar   71  PHE71      -0.0003
     97  CE2      -18.4700    1.1660    5.7850 C.ar   71  PHE71      -0.0003
     98  CZ       -17.7320   -0.0220    5.7710 C.ar   71  PHE71      -0.0000
     99  N        -19.7520    2.3960   -1.7560 N.3    73  TRP73      -0.1227
    100  CA       -19.7610    1.8680   -3.1030 C.3    73  TRP73       0.1737
    101  C        -19.0410    0.5040   -3.1130 C.2    73  TRP73       0.2595
    102  O        -19.4840   -0.4380   -3.7780 O.2    73  TRP73      -0.2718
    103  CB       -19.1050    2.8520   -4.0700 C.3    73  TRP73       0.0564
    104  CG       -18.6060    2.1420   -5.2610 C.ar   73  TRP73       0.0003
    105  CD1      -19.3410    1.6960   -6.3320 C.ar   73  TRP73       0.0946
    106  CD2      -17.2610    1.6940   -5.4760 C.ar   73  TRP73       0.0152
    107  NE1      -18.5220    1.0260   -7.2300 N.ar   73  TRP73      -0.2442
    108  CE2      -17.2420    1.0090   -6.7280 C.ar   73  TRP73       0.0810
    109  CE3      -16.0610    1.8290   -4.7500 C.ar   73  TRP73       0.0012
    110  CZ2      -16.0600    0.4590   -7.2670 C.ar   73  TRP73       0.0191
    111  CZ3      -14.8970    1.2760   -5.2710 C.ar   73  TRP73       0.0001
    112  CH2      -14.9020    0.6030   -6.5340 C.ar   73  TRP73       0.0015
    113  N        -17.9200    0.4090   -2.3920 N.am   74  ALA74      -0.1980
    114  CA       -17.2190   -0.8790   -2.2530 C.3    74  ALA74       0.1597
    115  C        -18.1230   -1.9810   -1.6220 C.2    74  ALA74       0.2287
    116  O        -18.2080   -3.0970   -2.1080 O.2    74  ALA74      -0.2864
    117  CB       -15.9540   -0.6950   -1.4340 C.3    74  ALA74       0.0319
    118  N        -18.5310   -5.0350   -4.1270 N.3    78  GLU78      -0.1245
    119  CA       -17.4910   -6.0650   -4.0490 C.3    78  GLU78       0.1567
    120  C        -17.7950   -7.2630   -3.1790 C.2    78  GLU78       0.2260
    121  O        -17.0230   -8.2210   -3.2070 O.2    78  GLU78      -0.2867
    122  CB       -16.1760   -5.4400   -3.5400 C.3    78  GLU78       0.0388
    123  CG       -15.8140   -4.1700   -4.3670 C.3    78  GLU78       0.1160
    124  CD       -15.3780   -4.4680   -5.7900 C.2    78  GLU78       0.3649
    125  OE1      -14.8510   -5.5680   -6.0560 O.co2  78  GLU78      -0.2457
    126  OE2      -15.5750   -3.5770   -6.6530 O.co2  78  GLU78      -0.2457
    127  N        -22.1200    5.6420   11.8320 N.3    98  PHE98      -0.1241
    128  CA       -22.7740    5.4100   10.5510 C.3    98  PHE98       0.1605
    129  C        -24.2840    5.3180   10.7700 C.2    98  PHE98       0.2264
    130  O        -24.7410    4.8120   11.8180 O.2    98  PHE98      -0.2867
    131  CB       -22.2160    4.1630    9.8470 C.3    98  PHE98       0.0534
    132  CG       -20.7180    4.2380    9.5400 C.ar   98  PHE98      -0.0203
    133  CD1      -19.9820    5.3990    9.7580 C.ar   98  PHE98      -0.0042
    134  CD2      -20.0560    3.1380    9.0110 C.ar   98  PHE98      -0.0042
    135  CE1      -18.6020    5.4580    9.4570 C.ar   98  PHE98      -0.0003
    136  CE2      -18.6920    3.1870    8.7120 C.ar   98  PHE98      -0.0003
    137  CZ       -17.9620    4.3560    8.9260 C.ar   98  PHE98      -0.0000
    138  N        -11.2060   -4.5830    6.6070 N.3   123  ILE123     -0.1231
    139  CA       -11.1740   -3.3100    5.9130 C.3   123  ILE123      0.1692
    140  C        -11.3870   -2.2480    6.9910 C.2   123  ILE123      0.2592
    141  O        -12.3830   -2.2960    7.7210 O.2   123  ILE123     -0.2718
    142  CB       -12.3130   -3.1880    4.8560 C.3   123  ILE123      0.0266
    143  CG1      -12.1530   -4.2510    3.7350 C.3   123  ILE123      0.0019
    144  CG2      -12.3820   -1.7550    4.1930 C.3   123  ILE123      0.0020
    145  CD1      -10.8530   -4.1390    2.9260 C.3   123  ILE123      0.0001
    146  N        -10.4040   -1.3510    7.1360 N.am  124  ALA124     -0.1966
    147  CA       -10.4740   -0.2590    8.1270 C.3   124  ALA124      0.1728
    148  C        -11.4110    0.8330    7.5750 C.2   124  ALA124      0.2616
    149  O        -11.2840    1.2790    6.3800 O.2   124  ALA124     -0.2715
    150  CB        -8.9960    0.3400    8.3790 C.3   124  ALA124      0.0334
    151  N        -12.4080    1.2180    8.3670 N.am  125  ALA125     -0.1963
    152  CA       -13.3280    2.2840    7.9950 C.3   125  ALA125      0.1728
    153  C        -13.5710    3.1030    9.2480 C.2   125  ALA125      0.2616
    154  O        -13.9700    2.5860   10.2280 O.2   125  ALA125     -0.2715
    155  CB       -14.6990    1.6470    7.4800 C.3   125  ALA125      0.0334
    156  N        -13.2550    4.3880    9.1990 N.am  126  ASN126     -0.1958
    157  CA       -13.2470    5.2020   10.3830 C.3   126  ASN126      0.1819
    158  C        -12.4600    4.5580   11.5380 C.2   126  ASN126      0.2621
    159  O        -12.9170    4.5560   12.6850 O.2   126  ASN126     -0.2715
    160  CB       -14.7040    5.5770   10.7660 C.3   126  ASN126      0.1195
    161  CG       -14.7670    6.7790   11.6810 C.2   126  ASN126      0.2630
    162  OD1      -13.9430    7.6980   11.5850 O.2   126  ASN126     -0.2716
    163  ND2      -15.6900    6.7400   12.6430 N.am  126  ASN126     -0.0877
    164  N        -11.2750    4.0320   11.1700 N.am  127  TYR127     -0.1974
    165  CA       -10.3750    3.3530   12.0550 C.3   127  TYR127      0.1639
    166  C         -9.2040    4.2550   12.4840 C.2   127  TYR127      0.2290
    167  O         -8.5760    4.9690   11.6440 O.2   127  TYR127     -0.2864
    168  CB        -9.7850    2.0450   11.3920 C.3   127  TYR127      0.0560
    169  CG        -8.8790    1.3510   12.3610 C.ar  127  TYR127     -0.0198
    170  CD1       -7.5100    1.6770   12.3700 C.ar  127  TYR127     -0.0009
    171  CD2       -9.4020    0.4360   13.3090 C.ar  127  TYR127     -0.0009
    172  CE1       -6.6420    1.1340   13.3190 C.ar  127  TYR127      0.0417
    173  CE2       -8.5480   -0.1520   14.2910 C.ar  127  TYR127      0.0417
    174  CZ        -7.1400    0.2120   14.2120 C.ar  127  TYR127      0.1957
    175  OH        -6.2710   -0.2550   15.1540 O.3   127  TYR127     -0.2866
@<TRIPOS>BOND
     1    30    29    1
     2    29    31    1
     3    29    28    2
     4    27    28    1
     5    27    26    1
     6    25    26    1
     7    25    22    1
     8   110   108   ar
     9   110   112   ar
    10    11    12    2
    11    11    10    1
    12   107   108   ar
    13   107   105   ar
    14    13    10    1
    15     9    10    1
    16   108   106   ar
    17   126   124   ar
    18   112   111   ar
    19   105   104   ar
    20    23    22    1
    21    23    24    2
    22   125   124   ar
    23    22    21    1
    24   124   123    1
    25    21    16   am
    26   106   104   ar
    27   106   109   ar
    28   111   109   ar
    29   104   103    1
    30    14    15    1
    31    16    15    1
    32    16    17    2
    33   123   122    1
    34   118   119    1
    35   103   100    1
    36   119   122    1
    37   119   120    1
    38    15    18    1
    39   102   101    2
    40    18    20    1
    41    18    19    1
    42   121   120    2
    43   101   100    1
    44   101   113   am
    45   100    99    1
    46    86    85    1
    47   113   114    1
    48   114   115    1
    49   114   117    1
    50   116   115    2
    51    81    80    1
    52    81    84    1
    53    81    82    1
    54    83    82    2
    55    85    84    1
    56    85    87    1
    57    82    88   am
    58     7     6    1
    59     7     8    1
    60     5     6    1
    61     5     2    1
    62     3     2    1
    63     3     4    2
    64    88    89    1
    65     2     1    1
    66    91    90    2
    67    90    89    1
    68    38    37    1
    69    75    74    2
    70    89    92    1
    71    74    73    1
    72    64    65    1
    73    56    53    1
    74    39    37    1
    75    67    66    2
    76    65    66    1
    77    65    68    1
    78    37    36    1
    79    66    72   am
    80    53    54    1
    81    53    52    1
    82    72    73    1
    83   145   143    1
    84    92    93    1
    85    73    76    1
    86    71    69    1
    87    36    33    1
    88    54    55    2
    89    76    77    1
    90    43    42    2
    91    69    68    1
    92    69    70    1
    93   143   142    1
    94    77    78    1
    95    52    42   am
    96    94    93   ar
    97    94    96   ar
    98    93    95   ar
    99   144   142    1
   100    60    59    2
   101    42    41    1
   102    59    58    1
   103    33    34    1
   104    33    32    1
   105    96    98   ar
   106   142   139    1
   107    95    97   ar
   108    40    34   am
   109    40    41    1
   110    57    58    1
   111    34    35    2
   112    78    79    1
   113    41    44    1
   114    58    61    1
   115    98    97   ar
   116   139   138    1
   117   139   140    1
   118   149   148    2
   119    44    45    1
   120    61    62    1
   121    61    63    1
   122    46    45   ar
   123    46    48   ar
   124   140   146   am
   125   140   141    2
   126   146   147    1
   127    45    47   ar
   128    48    50   ar
   129   155   152    1
   130   148   147    1
   131   148   151   am
   132   152   151    1
   133   152   153    1
   134   147   150    1
   135    47    49   ar
   136    50    49   ar
   137    50    51    1
   138   136   137   ar
   139   136   134   ar
   140   137   135   ar
   141   134   132   ar
   142   156   153   am
   143   156   157    1
   144   153   154    2
   145   135   133   ar
   146   132   133   ar
   147   132   131    1
   148   131   128    1
   149   157   160    1
   150   157   158    1
   151   128   129    1
   152   128   127    1
   153   160   161    1
   154   129   130    2
   155   164   158   am
   156   164   165    1
   157   168   165    1
   158   168   169    1
   159   158   159    2
   160   162   161    2
   161   167   166    2
   162   161   163   am
   163   165   166    1
   164   169   170   ar
   165   169   171   ar
   166   170   172   ar
   167   171   173   ar
   168   172   174   ar
   169   174   173   ar
   170   174   175    1
