@<TRIPOS>MOLECULE
tmp/3sh0A01.pdb
 147 136 0 0 0
SMALL
GASTEIGER

@<TRIPOS>ATOM
      1  N         -6.3450   -2.9910   -5.1550 N.3    38  VAL38      -0.1231
      2  CA        -6.9650   -3.7650   -4.0330 C.3    38  VAL38       0.1692
      3  C         -7.3730   -5.1980   -4.4400 C.2    38  VAL38       0.2591
      4  O         -7.0130   -6.1660   -3.7420 O.2    38  VAL38      -0.2718
      5  CB        -8.1820   -3.0260   -3.3990 C.3    38  VAL38       0.0266
      6  CG1       -8.9040   -3.9560   -2.3490 C.3    38  VAL38       0.0020
      7  CG2       -7.7040   -1.6150   -2.7690 C.3    38  VAL38       0.0020
      8  N         -8.1070   -5.3400   -5.5390 N.am   39  ARG39      -0.1980
      9  CA        -8.5880   -6.6700   -5.9570 C.3    39  ARG39       0.1597
     10  C         -7.4150   -7.5750   -6.2120 C.2    39  ARG39       0.2287
     11  O         -7.4640   -8.7560   -5.8900 O.2    39  ARG39      -0.2864
     12  CB        -9.4010   -6.5630   -7.2670 C.3    39  ARG39       0.0334
     13  CG       -10.6570   -5.7000   -7.0620 C.3    39  ARG39       0.0492
     14  CD       -11.7010   -5.8460   -8.2590 C.3    39  ARG39       0.2205
     15  NE       -12.6610   -4.7460   -8.0830 N.pl3  39  ARG39      -0.0865
     16  CZ       -12.4930   -3.5140   -8.5860 C.cat  39  ARG39       0.5346
     17  NH1      -11.5250   -3.2540   -9.4840 N.pl3  39  ARG39       0.1354
     18  NH2      -13.3620   -2.5590   -8.2830 N.pl3  39  ARG39       0.1354
     19  N         -5.7860   -8.6020   -2.8240 N.3    42  VAL42      -0.1231
     20  CA        -6.6620   -9.5560   -2.1290 C.3    42  VAL42       0.1692
     21  C         -6.4930  -10.9790   -2.7410 C.2    42  VAL42       0.2592
     22  O         -6.2750  -11.9600   -2.0200 O.2    42  VAL42      -0.2718
     23  CB        -8.1710   -9.1100   -2.1640 C.3    42  VAL42       0.0266
     24  CG1       -9.0110  -10.2230   -1.5330 C.3    42  VAL42       0.0020
     25  CG2       -8.3430   -7.8520   -1.2300 C.3    42  VAL42       0.0020
     26  N         -6.5640  -11.0440   -4.0520 N.am   43  SER43      -0.1952
     27  CA        -6.3700  -12.3040   -4.8160 C.3    43  SER43       0.1924
     28  C         -4.9950  -12.8700   -4.5030 C.2    43  SER43       0.2314
     29  O         -4.8570  -14.0810   -4.1910 O.2    43  SER43      -0.2863
     30  CB        -6.5040  -12.0530   -6.3310 C.3    43  SER43       0.2116
     31  OG        -6.3770  -13.3020   -7.0290 O.3    43  SER43      -0.2180
     32  N         -4.8700  -14.2960   -0.8920 N.3    46  ALA46      -0.1231
     33  CA        -5.6920  -15.5050   -0.8120 C.3    46  ALA46       0.1694
     34  C         -5.0500  -16.7240   -1.4540 C.2    46  ALA46       0.2592
     35  O         -5.2440  -17.8480   -0.9640 O.2    46  ALA46      -0.2718
     36  CB        -7.0620  -15.2410   -1.4130 C.3    46  ALA46       0.0304
     37  N         -4.2850  -16.5060   -2.5150 N.am   47  ASN47      -0.1974
     38  CA        -3.6090  -17.5720   -3.2120 C.3    47  ASN47       0.1688
     39  C         -2.1990  -17.9370   -2.7390 C.2    47  ASN47       0.2292
     40  O         -1.5810  -18.8840   -3.2730 O.2    47  ASN47      -0.2864
     41  CB        -3.6270  -17.2840   -4.7260 C.3    47  ASN47       0.1181
     42  CG        -5.0370  -17.3790   -5.3070 C.2    47  ASN47       0.2629
     43  OD1       -5.6290  -16.3890   -5.6950 O.2    47  ASN47      -0.2716
     44  ND2       -5.5850  -18.5730   -5.3310 N.am   47  ASN47      -0.0877
     45  N        -16.3470    3.7170    0.6950 N.3    71  PHE71      -0.1241
     46  CA       -16.8080    2.5850    1.5000 C.3    71  PHE71       0.1605
     47  C        -18.1740    2.0280    1.0300 C.2    71  PHE71       0.2264
     48  O        -18.3330    0.8230    0.8070 O.2    71  PHE71      -0.2867
     49  CB       -16.9330    3.0670    2.9510 C.3    71  PHE71       0.0534
     50  CG       -17.2160    1.9820    3.9270 C.ar   71  PHE71      -0.0203
     51  CD1      -16.4730    0.8000    3.9170 C.ar   71  PHE71      -0.0042
     52  CD2      -18.2130    2.1540    4.8710 C.ar   71  PHE71      -0.0042
     53  CE1      -16.7460   -0.2130    4.8220 C.ar   71  PHE71      -0.0003
     54  CE2      -18.4700    1.1660    5.7850 C.ar   71  PHE71      -0.0003
     55  CZ       -17.7320   -0.0220    5.7710 C.ar   71  PHE71      -0.0000
     56  N        -17.9200    0.4090   -2.3920 N.3    74  ALA74      -0.1231
     57  CA       -17.2190   -0.8790   -2.2530 C.3    74  ALA74       0.1694
     58  C        -18.1230   -1.9810   -1.6220 C.2    74  ALA74       0.2591
     59  O        -18.2080   -3.0970   -2.1080 O.2    74  ALA74      -0.2718
     60  CB       -15.9540   -0.6950   -1.4340 C.3    74  ALA74       0.0304
     61  N        -18.8160   -1.6390   -0.5480 N.am   75  LEU75      -0.1980
     62  CA       -19.6480   -2.6200    0.1350 C.3    75  LEU75       0.1596
     63  C        -20.7380   -3.0640   -0.8520 C.2    75  LEU75       0.2287
     64  O        -21.0540   -4.2450   -0.9890 O.2    75  LEU75      -0.2864
     65  CB       -20.2310   -1.9780    1.4030 C.3    75  LEU75       0.0297
     66  CG       -20.8260   -2.7670    2.5580 C.3    75  LEU75       0.0022
     67  CD1      -19.8550   -3.7620    3.1810 C.3    75  LEU75       0.0001
     68  CD2      -21.2680   -1.7020    3.5730 C.3    75  LEU75       0.0001
     69  N        -18.5310   -5.0350   -4.1270 N.3    78  GLU78      -0.1231
     70  CA       -17.4910   -6.0650   -4.0490 C.3    78  GLU78       0.1699
     71  C        -17.7950   -7.2630   -3.1790 C.2    78  GLU78       0.2592
     72  O        -17.0230   -8.2210   -3.2070 O.2    78  GLU78      -0.2718
     73  CB       -16.1760   -5.4400   -3.5400 C.3    78  GLU78       0.0402
     74  CG       -15.8140   -4.1700   -4.3670 C.3    78  GLU78       0.1161
     75  CD       -15.3780   -4.4680   -5.7900 C.2    78  GLU78       0.3649
     76  OE1      -14.8510   -5.5680   -6.0560 O.co2  78  GLU78      -0.2457
     77  OE2      -15.5750   -3.5770   -6.6530 O.co2  78  GLU78      -0.2457
     78  N        -18.8590   -7.1850   -2.3820 N.am   79  VAL79      -0.1980
     79  CA       -19.1000   -8.2280   -1.3460 C.3    79  VAL79       0.1595
     80  C        -19.4470   -9.5690   -1.9900 C.2    79  VAL79       0.2287
     81  O        -19.0120  -10.6480   -1.5250 O.2    79  VAL79      -0.2864
     82  CB       -20.1540   -7.7210   -0.3460 C.3    79  VAL79       0.0276
     83  CG1      -20.7230   -8.8630    0.5270 C.3    79  VAL79       0.0022
     84  CG2      -19.4910   -6.6870    0.5430 C.3    79  VAL79       0.0022
     85  N        -18.4250  -10.7150   -4.9100 N.3    81  SER81      -0.1202
     86  CA       -17.1990  -11.2940   -5.4220 C.3    81  SER81       0.2020
     87  C        -16.3360  -11.8870   -4.2940 C.2    81  SER81       0.2618
     88  O        -15.7390  -12.9560   -4.4470 O.2    81  SER81      -0.2717
     89  CB       -16.4280  -10.1850   -6.1670 C.3    81  SER81       0.2103
     90  OG       -15.2130  -10.7210   -6.6570 O.3    81  SER81      -0.2182
     91  N        -16.2620  -11.1890   -3.1510 N.am   82  LEU82      -0.1979
     92  CA       -15.5000  -11.7480   -1.9850 C.3    82  LEU82       0.1596
     93  C        -16.0740  -13.0980   -1.6220 C.2    82  LEU82       0.2287
     94  O        -15.3290  -14.0660   -1.3770 O.2    82  LEU82      -0.2864
     95  CB       -15.6320  -10.8190   -0.7690 C.3    82  LEU82       0.0297
     96  CG       -14.7870   -9.5570   -0.9350 C.3    82  LEU82       0.0022
     97  CD1      -14.9910   -8.6100    0.2980 C.3    82  LEU82       0.0001
     98  CD2      -13.1990   -9.8500   -1.0280 C.3    82  LEU82       0.0001
     99  N        -15.1950  -15.9600   -3.7130 N.3    85  HIS85      -0.1241
    100  CA       -13.7940  -16.3660   -3.5710 C.3    85  HIS85       0.1621
    101  C        -13.4710  -16.8770   -2.1720 C.2    85  HIS85       0.2264
    102  O        -12.3110  -17.0200   -1.7720 O.2    85  HIS85      -0.2867
    103  CB       -12.9090  -15.1750   -3.9480 C.3    85  HIS85       0.0745
    104  CG       -12.9080  -14.9200   -5.4230 C.ar   85  HIS85       0.0817
    105  ND1      -13.6140  -13.8880   -6.0030 N.ar   85  HIS85      -0.2268
    106  CD2      -12.3870  -15.6390   -6.4420 C.ar   85  HIS85       0.1154
    107  CE1      -13.4560  -13.9280   -7.3120 C.ar   85  HIS85       0.1986
    108  NE2      -12.7250  -14.9880   -7.6050 N.ar   85  HIS85      -0.2212
    109  N        -13.8010  -15.5400    0.7240 N.3    87  VAL87      -0.1245
    110  CA       -13.1950  -14.5550    1.6560 C.3    87  VAL87       0.1561
    111  C        -14.1820  -14.1530    2.7490 C.2    87  VAL87       0.2260
    112  O        -15.3820  -13.9680    2.4690 O.2    87  VAL87      -0.2867
    113  CB       -12.7840  -13.2890    0.8740 C.3    87  VAL87       0.0252
    114  CG1      -12.1740  -12.1400    1.8430 C.3    87  VAL87       0.0019
    115  CG2      -11.7740  -13.6860   -0.2090 C.3    87  VAL87       0.0019
    116  N        -15.1940  -11.4150    5.2460 N.3    89  LEU89      -0.1245
    117  CA       -15.0410   -9.9590    5.3450 C.3    89  LEU89       0.1561
    118  C        -15.3880   -9.4150    6.7560 C.2    89  LEU89       0.2260
    119  O        -16.3980   -9.8160    7.3540 O.2    89  LEU89      -0.2867
    120  CB       -15.9590   -9.2850    4.3290 C.3    89  LEU89       0.0270
    121  CG       -15.9680   -7.7500    4.3960 C.3    89  LEU89       0.0019
    122  CD1      -14.6490   -7.0600    3.9090 C.3    89  LEU89       0.0001
    123  CD2      -17.1180   -7.1980    3.5540 C.3    89  LEU89       0.0001
    124  N        -15.2700   -5.5300    8.9510 N.3    91  ILE91      -0.1245
    125  CA       -14.9330   -4.1040    9.0030 C.3    91  ILE91       0.1561
    126  C        -14.3970   -3.7550   10.3610 C.2    91  ILE91       0.2260
    127  O        -14.9890   -4.1460   11.3520 O.2    91  ILE91      -0.2867
    128  CB       -16.2010   -3.2020    8.7210 C.3    91  ILE91       0.0252
    129  CG1      -16.9090   -3.6160    7.4330 C.3    91  ILE91       0.0019
    130  CG2      -15.8250   -1.7550    8.6580 C.3    91  ILE91       0.0019
    131  CD1      -16.0460   -3.9250    6.2590 C.3    91  ILE91       0.0001
    132  N        -10.4290  -10.9120    5.3950 N.3   121  LEU121     -0.1245
    133  CA       -10.0650   -9.5790    4.8610 C.3   121  LEU121      0.1561
    134  C        -10.6960   -8.5820    5.8110 C.2   121  LEU121      0.2260
    135  O        -11.9280   -8.4870    5.8790 O.2   121  LEU121     -0.2867
    136  CB       -10.6260   -9.3660    3.4320 C.3   121  LEU121      0.0270
    137  CG       -10.4210   -7.9730    2.8200 C.3   121  LEU121      0.0019
    138  CD1       -8.8520   -7.7700    2.5740 C.3   121  LEU121      0.0001
    139  CD2      -11.1820   -7.9530    1.4740 C.3   121  LEU121      0.0001
    140  N        -11.2060   -4.5830    6.6070 N.3   123  ILE123     -0.1245
    141  CA       -11.1740   -3.3100    5.9130 C.3   123  ILE123      0.1561
    142  C        -11.3870   -2.2480    6.9910 C.2   123  ILE123      0.2260
    143  O        -12.3830   -2.2960    7.7210 O.2   123  ILE123     -0.2867
    144  CB       -12.3130   -3.1880    4.8560 C.3   123  ILE123      0.0252
    145  CG1      -12.1530   -4.2510    3.7350 C.3   123  ILE123      0.0019
    146  CG2      -12.3820   -1.7550    4.1930 C.3   123  ILE123      0.0019
    147  CD1      -10.8530   -4.1390    2.9260 C.3   123  ILE123      0.0001
@<TRIPOS>BOND
     1    17    16    1
     2    16    18    1
     3    16    15    2
     4    14    15    1
     5    14    13    1
     6   108   107   ar
     7   108   106   ar
     8   107   105   ar
     9    12    13    1
    10    12     9    1
    11    31    30    1
    12    90    89    1
    13    77    75   ar
    14   106   104   ar
    15    30    27    1
    16    10     9    1
    17    10    11    2
    18    89    86    1
    19    76    75   ar
    20   105   104   ar
    21     9     8    1
    22    75    74    1
    23    43    42    2
    24     8     3   am
    25   104   103    1
    26    86    85    1
    27    86    87    1
    28    44    42   am
    29    42    41    1
    30     1     2    1
    31    27    28    1
    32    27    26    1
    33    41    38    1
    34    28    29    2
    35    88    87    2
    36     3     2    1
    37     3     4    2
    38    74    73    1
    39    87    91   am
    40    69    70    1
    41    26    21   am
    42    70    73    1
    43    70    71    1
    44     2     5    1
    45   103   100    1
    46    99   100    1
    47   100   101    1
    48     5     7    1
    49     5     6    1
    50    40    39    2
    51    38    39    1
    52    38    37    1
    53    72    71    2
    54    71    78   am
    55    91    92    1
    56    19    20    1
    57    21    20    1
    58    21    22    2
    59    37    34   am
    60    56    57    1
    61    78    79    1
    62    57    58    1
    63    57    60    1
    64   101   102    2
    65    23    20    1
    66    23    24    1
    67    23    25    1
    68    59    58    2
    69    80    81    2
    70    80    79    1
    71    92    93    1
    72    92    95    1
    73    93    94    2
    74    58    61   am
    75    34    35    2
    76    34    33    1
    77    36    33    1
    78    79    82    1
    79    98    96    1
    80    64    63    2
    81    96    95    1
    82    96    97    1
    83    32    33    1
    84    63    62    1
    85    61    62    1
    86    82    83    1
    87    82    84    1
    88   115   113    1
    89    62    65    1
    90    45    46    1
    91   109   110    1
    92    48    47    2
    93   113   110    1
    94   113   114    1
    95    47    46    1
    96    65    66    1
    97   139   137    1
    98    46    49    1
    99   110   111    1
   100   112   111    2
   101    66    67    1
   102    66    68    1
   103   138   137    1
   104   137   136    1
   105   147   145    1
   106    49    50    1
   107   136   133    1
   108   123   121    1
   109   145   144    1
   110   122   121    1
   111    51    50   ar
   112    51    53   ar
   113    50    52   ar
   114   146   144    1
   115   120   121    1
   116   120   117    1
   117    53    55   ar
   118   144   141    1
   119   133   132    1
   120   133   134    1
   121    52    54   ar
   122   116   117    1
   123   117   118    1
   124    55    54   ar
   125   134   135    2
   126   141   140    1
   127   141   142    1
   128   131   129    1
   129   118   119    2
   130   142   143    2
   131   129   128    1
   132   130   128    1
   133   128   125    1
   134   124   125    1
   135   125   126    1
   136   126   127    2
