@<TRIPOS>MOLECULE
tmp/3sh1E02.pdb
 80 75 0 0 0
SMALL
GASTEIGER

@<TRIPOS>ATOM
      1  N         10.3180  -22.4300    4.9240 N.3    39  TYR39      -0.1241
      2  CA        11.0310  -23.5940    4.4040 C.3    39  TYR39       0.1605
      3  C         11.1760  -24.6720    5.4750 C.2    39  TYR39       0.2264
      4  O         11.7290  -24.4140    6.5300 O.2    39  TYR39      -0.2867
      5  CB        12.4090  -23.1860    3.8730 C.3    39  TYR39       0.0534
      6  CG        12.3580  -22.3460    2.6050 C.ar   39  TYR39      -0.0201
      7  CD1       12.4140  -22.9580    1.3460 C.ar   39  TYR39      -0.0009
      8  CD2       12.2450  -20.9450    2.6590 C.ar   39  TYR39      -0.0009
      9  CE1       12.3590  -22.2090    0.1740 C.ar   39  TYR39       0.0417
     10  CE2       12.1930  -20.1820    1.4960 C.ar   39  TYR39       0.0417
     11  CZ        12.2500  -20.8250    0.2510 C.ar   39  TYR39       0.1957
     12  OH        12.1980  -20.1110   -0.9320 O.3    39  TYR39      -0.2866
     13  N         12.6200  -22.3240    8.4540 N.3    66  SER66      -0.1217
     14  CA        13.2360  -21.0490    8.0940 C.3    66  SER66       0.1889
     15  C         12.1860  -20.1470    7.4780 C.2    66  SER66       0.2288
     16  O         11.2270  -20.6210    6.8720 O.2    66  SER66      -0.2866
     17  CB        14.3760  -21.2380    7.0970 C.3    66  SER66       0.2089
     18  OG        14.9730  -22.5130    7.2430 O.3    66  SER66      -0.2183
     19  N         26.2690   -9.7210   12.4720 N.3    83  THR83      -0.1203
     20  CA        25.5220  -10.2860   11.3690 C.3    83  THR83       0.1994
     21  C         24.4220  -11.2750   11.7850 C.2    83  THR83       0.2617
     22  O         23.5510  -11.6070   10.9860 O.2    83  THR83      -0.2717
     23  CB        26.4980  -10.9350   10.3730 C.3    83  THR83       0.1784
     24  OG1       27.4300  -11.7510   11.0930 O.3    83  THR83      -0.2211
     25  CG2       27.2740   -9.8540    9.6250 C.3    83  THR83       0.0376
     26  N         24.4680  -11.7400   13.0330 N.am   84  ASP84      -0.1973
     27  CA        23.4890  -12.7060   13.5470 C.3    84  ASP84       0.1709
     28  C         23.4630  -12.7580   15.0890 C.2    84  ASP84       0.2293
     29  O         24.4410  -12.3880   15.7480 O.2    84  ASP84      -0.2864
     30  CB        23.7830  -14.0970   12.9740 C.3    84  ASP84       0.1436
     31  CG        25.2140  -14.5380   13.2300 C.2    84  ASP84       0.3671
     32  OD1       25.5660  -14.7410   14.4130 O.co2  84  ASP84      -0.2456
     33  OD2       25.9870  -14.6740   12.2580 O.co2  84  ASP84      -0.2456
     34  N         19.3900  -13.4470   11.6070 N.3   117  ASN117     -0.1225
     35  CA        20.4040  -12.5050   11.1220 C.3   117  ASN117      0.1785
     36  C         19.9800  -11.2750   10.3310 C.2   117  ASN117      0.2598
     37  O         18.7960  -11.0370   10.1250 O.2   117  ASN117     -0.2718
     38  CB        21.5400  -13.2230   10.4180 C.3   117  ASN117      0.1169
     39  CG        21.1180  -13.8340    9.1220 C.2   117  ASN117      0.2627
     40  OD1       20.0960  -13.5180    8.5920 O.2   117  ASN117     -0.2716
     41  ND2       21.9330  -14.6900    8.5920 N.am  117  ASN117     -0.0877
     42  N         20.9810  -10.4980    9.9140 N.am  118  SER118     -0.1938
     43  CA        20.7920   -9.1120    9.4740 C.3   118  SER118      0.2055
     44  C         19.6830   -8.9240    8.4300 C.2   118  SER118      0.2643
     45  O         18.9360   -7.9530    8.4930 O.2   118  SER118     -0.2714
     46  CB        22.1160   -8.5210    8.9800 C.3   118  SER118      0.2130
     47  OG        22.5540   -9.1610    7.7950 O.3   118  SER118     -0.2179
     48  N         19.5370   -9.8740    7.5120 N.am  119  SER119     -0.1949
     49  CA        18.5220   -9.7800    6.4620 C.3   119  SER119      0.1924
     50  C         17.1540  -10.2690    6.9460 C.2   119  SER119      0.2314
     51  O         16.1950  -10.3470    6.1790 O.2   119  SER119     -0.2863
     52  CB        18.9630  -10.5240    5.1930 C.3   119  SER119      0.2116
     53  OG        19.5910  -11.7550    5.5030 O.3   119  SER119     -0.2180
     54  N         16.3990  -13.2890    8.3470 N.3   121  HIS121     -0.1241
     55  CA        16.1420  -14.7270    8.2590 C.3   121  HIS121      0.1621
     56  C         16.1850  -15.4070    9.6190 C.2   121  HIS121      0.2264
     57  O         17.1260  -15.2230   10.3950 O.2   121  HIS121     -0.2867
     58  CB        17.1420  -15.4060    7.3360 C.3   121  HIS121      0.0745
     59  CG        16.8200  -15.2430    5.8840 C.ar  121  HIS121      0.0817
     60  ND1       17.3880  -14.2590    5.1030 N.ar  121  HIS121     -0.2268
     61  CD2       15.9840  -15.9320    5.0740 C.ar  121  HIS121      0.1154
     62  CE1       16.9140  -14.3450    3.8760 C.ar  121  HIS121      0.1986
     63  NE2       16.0610  -15.3530    3.8320 N.ar  121  HIS121     -0.2212
     64  N         16.2070  -18.9950   11.6830 N.3   123  GLN123     -0.1245
     65  CA        16.4610  -20.4130   11.5100 C.3   123  GLN123      0.1566
     66  C         16.1700  -21.1360   12.8120 C.2   123  GLN123      0.2260
     67  O         16.7990  -20.8720   13.8220 O.2   123  GLN123     -0.2867
     68  CB        17.9040  -20.6260   11.0900 C.3   123  GLN123      0.0367
     69  CG        18.1420  -21.8980   10.3370 C.3   123  GLN123      0.0905
     70  CD        19.5430  -21.9460    9.7860 C.2   123  GLN123      0.2608
     71  OE1       20.1170  -20.9070    9.4470 O.2   123  GLN123     -0.2717
     72  NE2       20.1150  -23.1450    9.7060 N.am  123  GLN123     -0.0878
     73  N         13.7900  -27.4540    0.5710 N.3   166  ASP166     -0.1239
     74  CA        15.0870  -27.4630   -0.1090 C.3   166  ASP166      0.1674
     75  C         15.1720  -28.5840   -1.1450 C.2   166  ASP166      0.2266
     76  O         15.4350  -28.3190   -2.3190 O.2   166  ASP166     -0.2867
     77  CB        16.2320  -27.6240    0.9040 C.3   166  ASP166      0.1410
     78  CG        16.5060  -26.3510    1.7000 C.2   166  ASP166      0.3668
     79  OD1       16.0300  -25.2710    1.2830 O.co2 166  ASP166     -0.2456
     80  OD2       17.2140  -26.4320    2.7350 O.co2 166  ASP166     -0.2456
@<TRIPOS>BOND
     1    76    75    2
     2    75    74    1
     3    12    11    1
     4    74    73    1
     5    74    77    1
     6     9    11   ar
     7     9     7   ar
     8    11    10   ar
     9    77    78    1
    10    79    78   ar
    11     7     6   ar
    12    10     8   ar
    13    78    80   ar
    14     6     8   ar
    15     6     5    1
    16    63    62   ar
    17    63    61   ar
    18     5     2    1
    19    62    60   ar
    20     2     1    1
    21     2     3    1
    22    61    59   ar
    23    60    59   ar
    24    52    53    1
    25    52    49    1
    26     3     4    2
    27    59    58    1
    28    51    50    2
    29    49    50    1
    30    49    48    1
    31    16    15    2
    32    17    18    1
    33    17    14    1
    34    58    55    1
    35    15    14    1
    36    48    44   am
    37    47    46    1
    38    14    13    1
    39    55    54    1
    40    55    56    1
    41    44    45    2
    42    44    43    1
    43    40    39    2
    44    41    39   am
    45    46    43    1
    46    39    38    1
    47    71    70    2
    48    43    42    1
    49    56    57    2
    50    25    23    1
    51    72    70   am
    52    70    69    1
    53    42    36   am
    54    37    36    2
    55    36    35    1
    56    69    68    1
    57    23    24    1
    58    23    20    1
    59    38    35    1
    60    22    21    2
    61    68    65    1
    62    35    34    1
    63    20    21    1
    64    20    19    1
    65    65    64    1
    66    65    66    1
    67    21    26   am
    68    33    31   ar
    69    66    67    2
    70    30    31    1
    71    30    27    1
    72    26    27    1
    73    31    32   ar
    74    27    28    1
    75    28    29    2
