@<TRIPOS>MOLECULE
tmp/3sh1C03.pdb
 106 103 0 0 0
SMALL
GASTEIGER

@<TRIPOS>ATOM
      1  N        -19.6950   -5.9400   38.2380 N.3    16  LEU16      -0.1245
      2  CA       -19.8030   -6.7530   39.4450 C.3    16  LEU16       0.1561
      3  C        -18.4830   -7.4470   39.7450 C.2    16  LEU16       0.2260
      4  O        -18.0100   -7.4290   40.8700 O.2    16  LEU16      -0.2867
      5  CB       -20.9090   -7.8040   39.3030 C.3    16  LEU16       0.0270
      6  CG       -21.1040   -8.7440   40.5050 C.3    16  LEU16       0.0019
      7  CD1      -21.4220   -7.9700   41.7830 C.3    16  LEU16       0.0001
      8  CD2      -22.1830   -9.7800   40.2110 C.3    16  LEU16       0.0001
      9  N        -15.8580   -5.0390   41.0920 N.3    19  ASP19      -0.1225
     10  CA       -16.0090   -4.6470   42.4960 C.3    19  ASP19       0.1805
     11  C        -15.5180   -5.7150   43.4750 C.2    19  ASP19       0.2597
     12  O        -14.9500   -5.3990   44.5180 O.2    19  ASP19      -0.2718
     13  CB       -17.4690   -4.3200   42.8210 C.3    19  ASP19       0.1424
     14  CG       -17.9190   -2.9980   42.2340 C.2    19  ASP19       0.3668
     15  OD1      -17.5060   -2.6700   41.1160 O.co2  19  ASP19      -0.2456
     16  OD2      -18.6840   -2.2720   42.8930 O.co2  19  ASP19      -0.2456
     17  N        -15.7590   -6.9770   43.1410 N.am   20  LEU20      -0.1979
     18  CA       -15.3890   -8.0970   43.9940 C.3    20  LEU20       0.1596
     19  C        -13.8970   -8.4480   43.9080 C.2    20  LEU20       0.2287
     20  O        -13.2680   -8.7360   44.9230 O.2    20  LEU20      -0.2864
     21  CB       -16.2420   -9.3140   43.6360 C.3    20  LEU20       0.0297
     22  CG       -17.7500   -9.1660   43.8230 C.3    20  LEU20       0.0022
     23  CD1      -18.4810  -10.3560   43.2520 C.3    20  LEU20       0.0001
     24  CD2      -18.0860   -8.9990   45.2710 C.3    20  LEU20       0.0001
     25  N        -11.3900   -4.4960   42.5000 N.3    23  ARG23      -0.1231
     26  CA       -11.5610   -3.4950   43.5630 C.3    23  ARG23       0.1694
     27  C        -11.2540   -4.0190   44.9710 C.2    23  ARG23       0.2592
     28  O        -10.7430   -3.2810   45.8170 O.2    23  ARG23      -0.2718
     29  CB       -12.9690   -2.8760   43.5630 C.3    23  ARG23       0.0321
     30  CG       -13.3910   -2.3700   44.9620 C.3    23  ARG23       0.0489
     31  CD       -14.5220   -1.3300   44.9610 C.3    23  ARG23       0.2205
     32  NE       -15.8640   -1.9060   45.0700 N.pl3  23  ARG23      -0.0865
     33  CZ       -16.5810   -1.9590   46.1950 C.cat  23  ARG23       0.5346
     34  NH1      -16.0940   -1.4630   47.3330 N.pl3  23  ARG23       0.1354
     35  NH2      -17.7950   -2.5060   46.1800 N.pl3  23  ARG23       0.1354
     36  N        -11.5680   -5.2840   45.2280 N.am   24  SER24      -0.1952
     37  CA       -11.2940   -5.8500   46.5430 C.3    24  SER24       0.1924
     38  C        -10.2440   -6.9560   46.4180 C.2    24  SER24       0.2314
     39  O        -10.1710   -7.6320   45.3930 O.2    24  SER24      -0.2863
     40  CB       -12.5770   -6.3860   47.1980 C.3    24  SER24       0.2116
     41  OG       -13.3890   -5.3420   47.7120 O.3    24  SER24      -0.2180
     42  N        -18.9630  -14.0340   53.0450 N.3    70  ASN70      -0.1225
     43  CA       -19.6780  -12.7660   53.0920 C.3    70  ASN70       0.1785
     44  C        -19.1120  -11.8220   52.0320 C.2    70  ASN70       0.2597
     45  O        -19.8570  -11.0810   51.3870 O.2    70  ASN70      -0.2718
     46  CB       -19.6160  -12.1530   54.4960 C.3    70  ASN70       0.1169
     47  CG       -20.3430  -12.9970   55.5210 C.2    70  ASN70       0.2627
     48  OD1      -21.4700  -13.4430   55.2830 O.2    70  ASN70      -0.2716
     49  ND2      -19.6930  -13.2530   56.6530 N.am   70  ASN70      -0.0877
     50  N        -17.7950  -11.8830   51.8330 N.am   71  SER71      -0.1952
     51  CA       -17.1140  -10.9830   50.9020 C.3    71  SER71       0.1924
     52  C        -17.5370  -11.1570   49.4650 C.2    71  SER71       0.2314
     53  O        -17.2420  -10.3000   48.6400 O.2    71  SER71      -0.2863
     54  CB       -15.5850  -11.0690   51.0150 C.3    71  SER71       0.2116
     55  OG       -15.1280  -12.3850   51.2290 O.3    71  SER71      -0.2180
     56  N        -20.8940  -11.6020   48.5780 N.3    73  MET73      -0.1230
     57  CA       -22.2790  -11.1540   48.4030 C.3    73  MET73       0.1702
     58  C        -22.4210   -9.8700   47.5910 C.2    73  MET73       0.2592
     59  O        -21.4810   -9.0710   47.4570 O.2    73  MET73      -0.2718
     60  CB       -22.9590  -10.9350   49.7440 C.3    73  MET73       0.0401
     61  CG       -22.7430  -12.0520   50.7240 C.3    73  MET73       0.0596
     62  SD       -23.5800  -11.7440   52.2820 S.3    73  MET73      -0.1393
     63  CE       -25.3090  -12.0060   51.8160 C.3    73  MET73       0.0692
     64  N        -23.6100   -9.6940   47.0290 N.am   74  TRP74      -0.1962
     65  CA       -24.0010   -8.4250   46.4530 C.3    74  TRP74       0.1771
     66  C        -25.5190   -8.3380   46.3820 C.2    74  TRP74       0.2619
     67  O        -26.2180   -9.3480   46.4910 O.2    74  TRP74      -0.2715
     68  CB       -23.4050   -8.2610   45.0690 C.3    74  TRP74       0.0590
     69  CG       -24.0300   -9.1530   44.0460 C.ar   74  TRP74       0.0006
     70  CD1      -25.1110   -8.8730   43.2730 C.ar   74  TRP74       0.0946
     71  CD2      -23.6100  -10.4750   43.6890 C.ar   74  TRP74       0.0152
     72  NE1      -25.3900   -9.9330   42.4480 N.ar   74  TRP74      -0.2442
     73  CE2      -24.4820  -10.9280   42.6830 C.ar   74  TRP74       0.0810
     74  CE3      -22.5780  -11.3150   44.1190 C.ar   74  TRP74       0.0012
     75  CZ2      -24.3550  -12.1770   42.1010 C.ar   74  TRP74       0.0191
     76  CZ3      -22.4580  -12.5520   43.5430 C.ar   74  TRP74       0.0001
     77  CH2      -23.3400  -12.9730   42.5430 C.ar   74  TRP74       0.0015
     78  N        -26.0200   -7.1190   46.2120 N.am   75  ASP75      -0.1971
     79  CA       -27.4400   -6.8850   46.0200 C.3    75  ASP75       0.1709
     80  C        -27.6950   -6.9460   44.5180 C.2    75  ASP75       0.2293
     81  O        -27.1730   -6.1290   43.7650 O.2    75  ASP75      -0.2864
     82  CB       -27.8110   -5.5110   46.5880 C.3    75  ASP75       0.1436
     83  CG       -29.3020   -5.3480   46.8350 C.2    75  ASP75       0.3671
     84  OD1      -30.1060   -5.9380   46.0780 O.co2  75  ASP75      -0.2456
     85  OD2      -29.6640   -4.6130   47.7850 O.co2  75  ASP75      -0.2456
     86  N        -28.5070   -3.5960   42.5230 N.3    78  GLU78      -0.1231
     87  CA       -27.4960   -2.6100   42.1620 C.3    78  GLU78       0.1699
     88  C        -26.7720   -3.0060   40.8800 C.2    78  GLU78       0.2592
     89  O        -25.8750   -2.3000   40.4190 O.2    78  GLU78      -0.2718
     90  CB       -26.4900   -2.4320   43.3000 C.3    78  GLU78       0.0402
     91  CG       -27.1260   -2.2460   44.6680 C.3    78  GLU78       0.1161
     92  CD       -26.1060   -1.9420   45.7470 C.2    78  GLU78       0.3649
     93  OE1      -26.5100   -1.7640   46.9160 O.co2  78  GLU78      -0.2457
     94  OE2      -24.9000   -1.8820   45.4280 O.co2  78  GLU78      -0.2457
     95  N        -27.1670   -4.1390   40.3080 N.am   79  TYR79      -0.1976
     96  CA       -26.2840   -4.9030   39.4340 C.3    79  TYR79       0.1639
     97  C        -27.0710   -5.6190   38.3410 C.2    79  TYR79       0.2290
     98  O        -26.6120   -6.6170   37.7860 O.2    79  TYR79      -0.2864
     99  CB       -25.4710   -5.9140   40.2450 C.3    79  TYR79       0.0560
    100  CG       -24.2020   -5.3440   40.8380 C.ar   79  TYR79      -0.0198
    101  CD1      -23.1550   -4.9360   40.0230 C.ar   79  TYR79      -0.0009
    102  CD2      -24.0510   -5.2150   42.2120 C.ar   79  TYR79      -0.0009
    103  CE1      -21.9940   -4.4150   40.5600 C.ar   79  TYR79       0.0417
    104  CE2      -22.8930   -4.6950   42.7580 C.ar   79  TYR79       0.0417
    105  CZ       -21.8680   -4.2960   41.9270 C.ar   79  TYR79       0.1957
    106  OH       -20.7130   -3.7780   42.4660 O.3    79  TYR79      -0.2866
@<TRIPOS>BOND
     1    98    97    2
     2     1     2    1
     3    97    96    1
     4     5     2    1
     5     5     6    1
     6    96    99    1
     7    96    95    1
     8     2     3    1
     9     3     4    2
    10   101   103   ar
    11   101   100   ar
    12     8     6    1
    13    99   100    1
    14    95    88   am
    15    89    88    2
    16     6     7    1
    17   103   105   ar
    18   100   102   ar
    19    88    87    1
    20     9    10    1
    21    15    14   ar
    22   105   106    1
    23   105   104   ar
    24    75    77   ar
    25    75    73   ar
    26    87    86    1
    27    87    90    1
    28   102   104   ar
    29    14    13    1
    30    14    16   ar
    31    72    73   ar
    32    72    70   ar
    33    10    13    1
    34    10    11    1
    35    25    26    1
    36    77    76   ar
    37    73    71   ar
    38    17    11   am
    39    17    18    1
    40    23    22    1
    41    70    69   ar
    42    90    91    1
    43    11    12    2
    44    76    74   ar
    45    29    26    1
    46    29    30    1
    47    26    27    1
    48    21    22    1
    49    21    18    1
    50    71    69   ar
    51    71    74   ar
    52    81    80    2
    53    22    24    1
    54    19    18    1
    55    19    20    2
    56    69    68    1
    57    80    79    1
    58    91    92    1
    59    31    30    1
    60    31    32    1
    61    27    36   am
    62    27    28    2
    63    68    65    1
    64    32    33    2
    65    36    37    1
    66    39    38    2
    67    94    92   ar
    68    92    93   ar
    69    79    78    1
    70    79    82    1
    71    84    83   ar
    72    35    33    1
    73    33    34    1
    74    78    66   am
    75    66    65    1
    76    66    67    2
    77    38    37    1
    78    65    64    1
    79    37    40    1
    80    82    83    1
    81    83    85   ar
    82    64    58   am
    83    40    41    1
    84    59    58    2
    85    58    57    1
    86    57    56    1
    87    57    60    1
    88    53    52    2
    89    52    51    1
    90    60    61    1
    91    61    62    1
    92    51    54    1
    93    51    50    1
    94    54    55    1
    95    45    44    2
    96    63    62    1
    97    50    44   am
    98    44    43    1
    99    42    43    1
   100    43    46    1
   101    46    47    1
   102    48    47    2
   103    47    49   am
