@<TRIPOS>MOLECULE
tmp/3sh2B01.pdb
 160 155 0 0 0
SMALL
GASTEIGER

@<TRIPOS>ATOM
      1  N        -22.2320  -12.0210   38.1140 N.3     5  LEU5       -0.1231
      2  CA       -22.2270  -13.2930   37.3980 C.3     5  LEU5        0.1693
      3  C        -22.5880  -13.0460   35.9360 C.2     5  LEU5        0.2592
      4  O        -23.7230  -12.6780   35.6200 O.2     5  LEU5       -0.2718
      5  CB       -23.1870  -14.2990   38.0480 C.3     5  LEU5        0.0284
      6  CG       -23.2750  -15.7200   37.4700 C.3     5  LEU5        0.0019
      7  CD1      -21.9290  -16.4450   37.4950 C.3     5  LEU5        0.0001
      8  CD2      -24.3270  -16.5320   38.2080 C.3     5  LEU5        0.0001
      9  N        -21.6130  -13.2440   35.0520 N.am    6  VAL6       -0.1966
     10  CA       -21.7690  -12.9080   33.6370 C.3     6  VAL6        0.1727
     11  C        -21.0410  -13.8870   32.7080 C.2     6  VAL6        0.2616
     12  O        -20.0460  -14.5050   33.0910 O.2     6  VAL6       -0.2715
     13  CB       -21.3120  -11.4470   33.3560 C.3     6  VAL6        0.0290
     14  CG1      -19.8100  -11.2800   33.5890 C.3     6  VAL6        0.0023
     15  CG2      -21.6960  -11.0120   31.9470 C.3     6  VAL6        0.0023
     16  N        -21.5650  -14.0250   31.4930 N.am    7  ALA7       -0.1977
     17  CA       -20.8940  -14.7410   30.4170 C.3     7  ALA7        0.1597
     18  C        -20.8210  -13.8510   29.1760 C.2     7  ALA7        0.2287
     19  O        -21.8450  -13.5760   28.5440 O.2     7  ALA7       -0.2864
     20  CB       -21.6200  -16.0420   30.1060 C.3     7  ALA7        0.0319
     21  N        -32.6970   -9.7600   22.9700 N.3    18  ASN18      -0.1225
     22  CA       -33.2670  -10.2020   24.2510 C.3    18  ASN18       0.1785
     23  C        -32.9010  -11.6300   24.6740 C.2    18  ASN18       0.2597
     24  O        -33.5910  -12.2290   25.4990 O.2    18  ASN18      -0.2718
     25  CB       -34.7950  -10.0170   24.2600 C.3    18  ASN18       0.1169
     26  CG       -35.2130   -8.5590   24.1840 C.2    18  ASN18       0.2627
     27  OD1      -34.8840   -7.7580   25.0600 O.2    18  ASN18      -0.2716
     28  ND2      -35.9570   -8.2120   23.1410 N.am   18  ASN18      -0.0877
     29  N        -31.8110  -12.1660   24.1270 N.am   19  GLN19      -0.1965
     30  CA       -31.4480  -13.5640   24.3630 C.3    19  GLN19       0.1733
     31  C        -29.9460  -13.8150   24.2560 C.2    19  GLN19       0.2616
     32  O        -29.2260  -13.0520   23.6120 O.2    19  GLN19      -0.2715
     33  CB       -32.1690  -14.4580   23.3510 C.3    19  GLN19       0.0408
     34  CG       -32.8410  -15.6710   23.9620 C.3    19  GLN19       0.0908
     35  CD       -34.1980  -15.3350   24.5550 C.2    19  GLN19       0.2608
     36  OE1      -34.4320  -15.5270   25.7480 O.2    19  GLN19      -0.2717
     37  NE2      -35.0990  -14.8180   23.7210 N.am   19  GLN19      -0.0878
     38  N        -29.4910  -14.9040   24.8740 N.am   20  LEU20      -0.1977
     39  CA       -28.0940  -15.3310   24.8050 C.3    20  LEU20       0.1596
     40  C        -27.7500  -15.8230   23.3980 C.2    20  LEU20       0.2287
     41  O        -28.4980  -16.6170   22.8230 O.2    20  LEU20      -0.2864
     42  CB       -27.8230  -16.4440   25.8230 C.3    20  LEU20       0.0297
     43  CG       -28.2620  -16.2180   27.2740 C.3    20  LEU20       0.0022
     44  CD1      -28.5550  -17.5500   27.9570 C.3    20  LEU20       0.0001
     45  CD2      -27.2310  -15.4090   28.0580 C.3    20  LEU20       0.0001
     46  N        -25.5520  -17.8420   22.4930 N.3    22  TRP22      -0.1227
     47  CA       -24.9530  -19.1760   22.5420 C.3    22  TRP22       0.1737
     48  C        -25.6450  -20.0630   23.5690 C.2    22  TRP22       0.2595
     49  O        -26.1850  -19.5700   24.5620 O.2    22  TRP22      -0.2718
     50  CB       -23.4600  -19.0780   22.8800 C.3    22  TRP22       0.0564
     51  CG       -23.1800  -18.2590   24.1110 C.ar   22  TRP22       0.0003
     52  CD1      -23.3020  -18.6620   25.4100 C.ar   22  TRP22       0.0946
     53  CD2      -22.7390  -16.8950   24.1540 C.ar   22  TRP22       0.0152
     54  NE1      -22.9650  -17.6360   26.2580 N.ar   22  TRP22      -0.2442
     55  CE2      -22.6150  -16.5400   25.5150 C.ar   22  TRP22       0.0810
     56  CE3      -22.4320  -15.9400   23.1750 C.ar   22  TRP22       0.0012
     57  CZ2      -22.2010  -15.2700   25.9240 C.ar   22  TRP22       0.0191
     58  CZ3      -22.0180  -14.6760   23.5840 C.ar   22  TRP22       0.0001
     59  CH2      -21.9070  -14.3550   24.9470 C.ar   22  TRP22       0.0015
     60  N        -25.6290  -21.3700   23.3250 N.am   23  HIS23      -0.1975
     61  CA       -26.0430  -22.3370   24.3370 C.3    23  HIS23       0.1656
     62  C        -24.8390  -23.1540   24.7940 C.2    23  HIS23       0.2291
     63  O        -24.1960  -23.8400   23.9960 O.2    23  HIS23      -0.2864
     64  CB       -27.1650  -23.2470   23.8320 C.3    23  HIS23       0.0771
     65  CG       -27.5930  -24.2780   24.8320 C.ar   23  HIS23       0.0820
     66  ND1      -27.4240  -25.6320   24.6260 N.ar   23  HIS23      -0.2267
     67  CD2      -28.1620  -24.1520   26.0550 C.ar   23  HIS23       0.1154
     68  CE1      -27.8820  -26.2940   25.6740 C.ar   23  HIS23       0.1986
     69  NE2      -28.3330  -25.4200   26.5570 N.ar   23  HIS23      -0.2212
     70  N        -21.7380  -23.6740   31.2030 N.3    27  ASP27      -0.1225
     71  CA       -21.9690  -22.3740   31.8210 C.3    27  ASP27       0.1805
     72  C        -23.2260  -22.3970   32.6890 C.2    27  ASP27       0.2597
     73  O        -23.2670  -21.7600   33.7410 O.2    27  ASP27      -0.2718
     74  CB       -22.0670  -21.2820   30.7520 C.3    27  ASP27       0.1424
     75  CG       -22.2800  -19.8930   31.3400 C.2    27  ASP27       0.3668
     76  OD1      -23.0640  -19.1220   30.7470 O.co2  27  ASP27      -0.2456
     77  OD2      -21.6680  -19.5710   32.3830 O.co2  27  ASP27      -0.2456
     78  N        -24.2430  -23.1340   32.2380 N.am   28  LEU28      -0.1979
     79  CA       -25.4710  -23.3410   33.0110 C.3    28  LEU28       0.1596
     80  C        -25.1800  -24.1140   34.2960 C.2    28  LEU28       0.2287
     81  O        -25.6800  -23.7600   35.3660 O.2    28  LEU28      -0.2864
     82  CB       -26.5210  -24.0920   32.1830 C.3    28  LEU28       0.0297
     83  CG       -27.0190  -23.4970   30.8610 C.3    28  LEU28       0.0022
     84  CD1      -27.7860  -24.5420   30.0610 C.3    28  LEU28       0.0001
     85  CD2      -27.8800  -22.2710   31.0900 C.3    28  LEU28       0.0001
     86  N        -22.2900  -24.1680   35.7270 N.3    30  HIS30      -0.1226
     87  CA       -21.4980  -23.2090   36.4890 C.3    30  HIS30       0.1752
     88  C        -22.3860  -22.2340   37.2630 C.2    30  HIS30       0.2595
     89  O        -22.1110  -21.9320   38.4240 O.2    30  HIS30      -0.2718
     90  CB       -20.5480  -22.4580   35.5510 C.3    30  HIS30       0.0759
     91  CG       -19.7450  -21.3890   36.2240 C.ar   30  HIS30       0.0818
     92  ND1      -18.7030  -21.6690   37.0810 N.ar   30  HIS30      -0.2268
     93  CD2      -19.8240  -20.0390   36.1530 C.ar   30  HIS30       0.1154
     94  CE1      -18.1790  -20.5370   37.5160 C.ar   30  HIS30       0.1986
     95  NE2      -18.8410  -19.5330   36.9680 N.ar   30  HIS30      -0.2212
     96  N        -23.4490  -21.7560   36.6160 N.am   31  VAL31      -0.1980
     97  CA       -24.4080  -20.8450   37.2460 C.3    31  VAL31       0.1595
     98  C        -25.1570  -21.5370   38.3890 C.2    31  VAL31       0.2287
     99  O        -25.2290  -21.0060   39.4990 O.2    31  VAL31      -0.2864
    100  CB       -25.4040  -20.2420   36.2100 C.3    31  VAL31       0.0276
    101  CG1      -26.5600  -19.5250   36.9030 C.3    31  VAL31       0.0022
    102  CG2      -24.6860  -19.2840   35.2730 C.3    31  VAL31       0.0022
    103  N        -34.3040   -8.6570   31.6250 N.3    46  THR46      -0.1218
    104  CA       -33.6830   -9.9840   31.6780 C.3    46  THR46       0.1862
    105  C        -34.6770  -11.0400   32.1590 C.2    46  THR46       0.2287
    106  O        -34.7280  -12.1420   31.6080 O.2    46  THR46      -0.2866
    107  CB       -32.4110  -10.0020   32.5720 C.3    46  THR46       0.1770
    108  OG1      -31.4280   -9.1180   32.0270 O.3    46  THR46      -0.2211
    109  CG2      -31.8070  -11.3990   32.6520 C.3    46  THR46       0.0375
    110  N        -37.1190  -12.2440   29.5630 N.3    49  SER49      -0.1202
    111  CA       -36.4630  -13.1830   28.6570 C.3    49  SER49       0.2020
    112  C        -36.4580  -14.6010   29.2190 C.2    49  SER49       0.2618
    113  O        -36.5790  -15.5700   28.4670 O.2    49  SER49      -0.2717
    114  CB       -35.0270  -12.7420   28.3710 C.3    49  SER49       0.2103
    115  OG       -34.9960  -11.5010   27.6930 O.3    49  SER49      -0.2182
    116  N        -36.3130  -14.7130   30.5380 N.am   50  ILE50      -0.1979
    117  CA       -36.3030  -16.0100   31.2140 C.3    50  ILE50       0.1595
    118  C        -37.7300  -16.5470   31.3830 C.2    50  ILE50       0.2287
    119  O        -37.9810  -17.7340   31.1620 O.2    50  ILE50      -0.2864
    120  CB       -35.5670  -15.9430   32.5790 C.3    50  ILE50       0.0276
    121  CG1      -34.1830  -15.3050   32.4100 C.3    50  ILE50       0.0022
    122  CG2      -35.4260  -17.3420   33.1880 C.3    50  ILE50       0.0022
    123  CD1      -33.6050  -14.7010   33.6790 C.3    50  ILE50       0.0001
    124  N        -35.8490  -18.7210   38.6300 N.3    54  LEU54      -0.1245
    125  CA       -34.9680  -19.8830   38.7030 C.3    54  LEU54       0.1561
    126  C        -35.1290  -20.6040   40.0430 C.2    54  LEU54       0.2260
    127  O        -35.0760  -19.9680   41.1010 O.2    54  LEU54      -0.2867
    128  CB       -33.5050  -19.4890   38.4470 C.3    54  LEU54       0.0270
    129  CG       -33.1570  -18.8770   37.0820 C.3    54  LEU54       0.0019
    130  CD1      -31.6530  -18.7190   36.9340 C.3    54  LEU54       0.0001
    131  CD2      -33.7160  -19.6940   35.9190 C.3    54  LEU54       0.0001
    132  N        -27.0070  -10.5660   38.1820 N.3    92  PHE92      -0.1241
    133  CA       -27.2700  -11.5300   37.1150 C.3    92  PHE92       0.1605
    134  C        -27.4140  -10.8990   35.7250 C.2    92  PHE92       0.2264
    135  O        -27.3510  -11.6020   34.7130 O.2    92  PHE92      -0.2867
    136  CB       -28.5150  -12.3550   37.4680 C.3    92  PHE92       0.0534
    137  CG       -28.5580  -13.7130   36.8220 C.ar   92  PHE92      -0.0203
    138  CD1      -29.6070  -14.0590   35.9750 C.ar   92  PHE92      -0.0042
    139  CD2      -27.5570  -14.6500   37.0660 C.ar   92  PHE92      -0.0042
    140  CE1      -29.6580  -15.3190   35.3770 C.ar   92  PHE92      -0.0003
    141  CE2      -27.5970  -15.9110   36.4720 C.ar   92  PHE92      -0.0003
    142  CZ       -28.6500  -16.2450   35.6250 C.ar   92  PHE92      -0.0000
    143  N        -25.5030   -4.4000   34.8330 N.3    98  PHE98      -0.1241
    144  CA       -24.0550   -4.6170   34.8760 C.3    98  PHE98       0.1605
    145  C        -23.2780   -3.3000   34.8600 C.2    98  PHE98       0.2264
    146  O        -22.2710   -3.1620   35.5560 O.2    98  PHE98      -0.2867
    147  CB       -23.5890   -5.5080   33.7170 C.3    98  PHE98       0.0534
    148  CG       -23.8700   -6.9760   33.9140 C.ar   98  PHE98      -0.0203
    149  CD1      -23.7070   -7.5780   35.1610 C.ar   98  PHE98      -0.0042
    150  CD2      -24.2630   -7.7660   32.8380 C.ar   98  PHE98      -0.0042
    151  CE1      -23.9590   -8.9380   35.3380 C.ar   98  PHE98      -0.0003
    152  CE2      -24.5140   -9.1270   33.0020 C.ar   98  PHE98      -0.0003
    153  CZ       -24.3600   -9.7140   34.2550 C.ar   98  PHE98      -0.0000
    154  N        -17.5690  -15.9180   32.8000 N.3   111  THR111     -0.1218
    155  CA       -17.3210  -16.9560   31.8130 C.3   111  THR111      0.1862
    156  C        -16.9500  -16.2590   30.5060 C.2   111  THR111      0.2287
    157  O        -17.7870  -15.6060   29.8800 O.2   111  THR111     -0.2866
    158  CB       -18.5600  -17.8600   31.6080 C.3   111  THR111      0.1770
    159  OG1      -19.0490  -18.3030   32.8790 O.3   111  THR111     -0.2211
    160  CG2      -18.2140  -19.0760   30.7560 C.3   111  THR111      0.0375
@<TRIPOS>BOND
     1    46    47    1
     2    47    50    1
     3    47    48    1
     4    41    40    2
     5    50    51    1
     6    21    22    1
     7    28    26   am
     8    56    58   ar
     9    56    53   ar
    10    60    48   am
    11    60    61    1
    12    33    34    1
    13    33    30    1
    14    40    39    1
    15    48    49    2
    16    58    59   ar
    17    32    31    2
    18    37    35   am
    19    64    61    1
    20    64    65    1
    21    34    35    1
    22    63    62    2
    23    51    53   ar
    24    51    52   ar
    25    29    30    1
    26    29    23   am
    27    53    55   ar
    28    26    25    1
    29    26    27    2
    30    22    25    1
    31    22    23    1
    32    31    30    1
    33    31    38   am
    34    61    62    1
    35    35    36    2
    36    66    65   ar
    37    66    68   ar
    38    23    24    2
    39    39    38    1
    40    39    42    1
    41    65    67   ar
    42    59    57   ar
    43    52    54   ar
    44    55    57   ar
    45    55    54   ar
    46    68    69   ar
    47    42    43    1
    48    67    69   ar
    49    43    44    1
    50    43    45    1
    51   115   114    1
    52   114   111    1
    53   113   112    2
    54    19    18    2
    55   111   112    1
    56   111   110    1
    57    18    17    1
    58   112   116   am
    59   157   156    2
    60    84    83    1
    61    20    17    1
    62    17    16    1
    63   156   155    1
    64   116   117    1
    65    76    75   ar
    66    74    75    1
    67    74    71    1
    68   160   158    1
    69    83    85    1
    70    83    82    1
    71   119   118    2
    72    70    71    1
    73   117   118    1
    74   117   120    1
    75    75    77   ar
    76    16    11   am
    77   106   105    2
    78   158   155    1
    79   158   159    1
    80   103   104    1
    81   104   105    1
    82   104   107    1
    83   155   154    1
    84    71    72    1
    85    15    13    1
    86   108   107    1
    87    82    79    1
    88    78    72   am
    89    78    79    1
    90   121   120    1
    91   121   123    1
    92   107   109    1
    93   120   122    1
    94    72    73    2
    95    11    12    2
    96    11    10    1
    97   150   152   ar
    98   150   148   ar
    99   152   153   ar
   100    79    80    1
   101    13    14    1
   102    13    10    1
   103    10     9    1
   104   147   148    1
   105   147   144    1
   106   148   149   ar
   107   153   151   ar
   108    80    81    2
   109   135   134    2
   110   143   144    1
   111   145   144    1
   112   145   146    2
   113     9     3   am
   114   149   151   ar
   115   102   100    1
   116   140   142   ar
   117   140   138   ar
   118    90    91    1
   119    90    87    1
   120     4     3    2
   121   142   141   ar
   122   134   133    1
   123    86    87    1
   124   131   129    1
   125     3     2    1
   126   138   137   ar
   127    93    91   ar
   128    93    95   ar
   129   100   101    1
   130   100    97    1
   131    91    92   ar
   132   141   139   ar
   133    87    88    1
   134    96    97    1
   135    96    88   am
   136   137   139   ar
   137   137   136    1
   138   130   129    1
   139    95    94   ar
   140    92    94   ar
   141   129   128    1
   142   133   136    1
   143   133   132    1
   144    97    98    1
   145    88    89    2
   146     2     5    1
   147     2     1    1
   148     6     7    1
   149     6     5    1
   150     6     8    1
   151    98    99    2
   152   128   125    1
   153   124   125    1
   154   125   126    1
   155   126   127    2
