@<TRIPOS>MOLECULE
tmp/3shbA00.pdb
 129 126 0 0 0
SMALL
GASTEIGER

@<TRIPOS>ATOM
      1  N        -14.8140   -0.5140    5.5830 N.3    19  CYS19      -0.1221
      2  CA       -15.3600    0.4680    6.5190 C.3    19  CYS19       0.1808
      3  C        -14.6650    0.4990    7.8840 C.2    19  CYS19       0.2601
      4  O        -14.9180    1.4040    8.6810 O.2    19  CYS19      -0.2717
      5  CB       -16.8680    0.2890    6.6890 C.3    19  CYS19       0.0970
      6  SG       -17.3280   -1.2630    7.5300 S.3    19  CYS19      -0.0800
      7  N        -13.8010   -0.4720    8.1650 N.am   20  ALA20      -0.1979
      8  CA       -13.0290   -0.4430    9.4040 C.3    20  ALA20       0.1597
      9  C        -11.5450   -0.3460    9.0820 C.2    20  ALA20       0.2287
     10  O        -11.1940    0.1560    8.0050 O.2    20  ALA20      -0.2864
     11  CB       -13.3640   -1.6680   10.2860 C.3    20  ALA20       0.0319
     12  N        -11.9150    2.9470   17.7290 N.pl3  30  PRO30      -0.2287
     13  CA       -12.2580    3.9330   16.6860 C.3    30  PRO30       0.1743
     14  C        -11.5390    5.2750   16.9080 C.2    30  PRO30       0.2618
     15  O        -11.1920    5.9870   15.9690 O.2    30  PRO30      -0.2715
     16  CB       -13.7650    4.1260   16.8430 C.3    30  PRO30       0.0584
     17  CG       -14.1940    3.3410   18.0340 C.2    30  PRO30      -0.0065
     18  CD       -13.0570    2.5950   18.5970 C.2    30  PRO30       0.0761
     19  N        -11.2930    5.6070   18.1700 N.am   31  ASP31      -0.1971
     20  CA       -10.5690    6.8210   18.5200 C.3    31  ASP31       0.1709
     21  C         -9.0920    6.7830   18.0960 C.2    31  ASP31       0.2293
     22  O         -8.4040    7.8010   18.1410 O.2    31  ASP31      -0.2864
     23  CB       -10.6650    7.0240   20.0280 C.3    31  ASP31       0.1436
     24  CG       -10.1320    5.8160   20.8060 C.2    31  ASP31       0.3671
     25  OD1      -10.6320    4.6860   20.6000 O.co2  31  ASP31      -0.2456
     26  OD2       -9.2130    5.9860   21.6310 O.co2  31  ASP31      -0.2456
     27  N         -8.3700    5.1250   15.0580 N.3    33  GLN33      -0.1231
     28  CA        -8.4330    4.8590   13.6150 C.3    33  GLN33       0.1698
     29  C         -8.4550    6.1770   12.8620 C.2    33  GLN33       0.2592
     30  O         -9.4970    6.8480   12.8280 O.2    33  GLN33      -0.2718
     31  CB        -9.6940    4.0880   13.2720 C.3    33  GLN33       0.0381
     32  CG        -9.7670    2.6730   13.7950 C.3    33  GLN33       0.0905
     33  CD       -11.0900    2.0170   13.4280 C.2    33  GLN33       0.2608
     34  OE1      -11.5830    2.1850   12.3160 O.2    33  GLN33      -0.2717
     35  NE2      -11.6820    1.2860   14.3670 N.am   33  GLN33      -0.0878
     36  N         -7.3210    6.5460   12.2710 N.am   34  LEU34      -0.1966
     37  CA        -7.1940    7.8110   11.5200 C.3    34  LEU34       0.1728
     38  C         -7.9220    7.6900   10.2110 C.2    34  LEU34       0.2616
     39  O         -7.8150    6.6630    9.5690 O.2    34  LEU34      -0.2715
     40  CB        -5.7400    8.0980   11.1820 C.3    34  LEU34       0.0311
     41  CG        -4.7400    8.0840   12.3200 C.3    34  LEU34       0.0022
     42  CD1       -3.3560    8.4930   11.8010 C.3    34  LEU34       0.0001
     43  CD2       -5.2580    9.0180   13.4290 C.3    34  LEU34       0.0001
     44  N         -8.6320    8.7380    9.8010 N.am   35  MET35      -0.1963
     45  CA        -9.3280    8.7120    8.5160 C.3    35  MET35       0.1736
     46  C         -8.5410    9.5220    7.4970 C.2    35  MET35       0.2617
     47  O         -8.2320   10.6760    7.7410 O.2    35  MET35      -0.2715
     48  CB       -10.7220    9.3170    8.6040 C.3    35  MET35       0.0427
     49  CG       -11.5880    8.8370    9.7460 C.3    35  MET35       0.0599
     50  SD       -12.0150    7.1530    9.4270 S.3    35  MET35      -0.1393
     51  CE       -12.9210    7.2680    7.8910 C.3    35  MET35       0.0692
     52  N         -8.2270    8.9110    6.3630 N.am   36  CYS36      -0.1954
     53  CA        -7.4920    9.5740    5.3000 C.3    36  CYS36       0.1843
     54  C         -8.3390   10.6700    4.6500 C.2    36  CYS36       0.2625
     55  O         -9.4980   10.4440    4.2680 O.2    36  CYS36      -0.2714
     56  CB        -7.0690    8.5680    4.2310 C.3    36  CYS36       0.0997
     57  SG        -6.1310    9.3290    2.8650 S.3    36  CYS36      -0.0797
     58  N         -7.7460   11.8450    4.5100 N.am   37  ASP37      -0.1971
     59  CA        -8.4620   12.9900    3.9560 C.3    37  ASP37       0.1709
     60  C         -8.5880   12.9660    2.4460 C.2    37  ASP37       0.2293
     61  O         -9.2680   13.8070    1.8670 O.2    37  ASP37      -0.2864
     62  CB        -7.8540   14.2860    4.4770 C.3    37  ASP37       0.1436
     63  CG        -8.2510   14.5280    5.9130 C.2    37  ASP37       0.3671
     64  OD1       -9.4680   14.5560    6.1720 O.co2  37  ASP37      -0.2456
     65  OD2       -7.3700   14.6460    6.7960 O.co2  37  ASP37      -0.2456
     66  N        -10.5370    8.4410    2.4420 N.3    40  ASP40      -0.1239
     67  CA       -11.4650    8.2000    3.5400 C.3    40  ASP40       0.1674
     68  C        -11.4410    6.7740    4.1160 C.2    40  ASP40       0.2266
     69  O        -12.3720    6.3730    4.8290 O.2    40  ASP40      -0.2867
     70  CB       -12.8910    8.6050    3.1610 C.3    40  ASP40       0.1410
     71  CG       -13.6360    9.2440    4.3170 C.2    40  ASP40       0.3668
     72  OD1      -12.9720    9.7310    5.2610 O.co2  40  ASP40      -0.2456
     73  OD2      -14.8930    9.2660    4.2950 O.co2  40  ASP40      -0.2456
     74  N         -9.8050    4.1300    6.8740 N.3    42  ALA42      -0.1245
     75  CA        -9.4430    4.2630    8.2770 C.3    42  ALA42       0.1562
     76  C         -8.2440    3.3840    8.5290 C.2    42  ALA42       0.2260
     77  O         -8.1110    2.3410    7.9140 O.2    42  ALA42      -0.2867
     78  CB       -10.6010    3.8030    9.1710 C.3    42  ALA42       0.0290
     79  N         -2.3930    9.7800   17.8060 N.3    55  VAL55      -0.1231
     80  CA        -3.1290   10.4250   16.7260 C.3    55  VAL55       0.1678
     81  C         -2.4870   11.7910   16.4300 C.2    55  VAL55       0.2434
     82  O         -2.2700   12.5860   17.3440 O.2    55  VAL55      -0.2733
     83  CB        -4.6000   10.6180   17.1400 C.3    55  VAL55       0.0265
     84  CG1       -5.3340   11.5150   16.1540 C.3    55  VAL55       0.0020
     85  CG2       -5.3100    9.2680   17.2530 C.3    55  VAL55       0.0020
     86  N         -2.1480   12.0550   15.1600 N.am   56  PRO56      -0.2718
     87  CA        -1.4810   13.3130   14.7930 C.3    56  PRO56       0.1535
     88  C         -2.2990   14.5430   15.1580 C.2    56  PRO56       0.2599
     89  O         -3.5170   14.4910   15.1180 O.2    56  PRO56      -0.2715
     90  CB        -1.3850   13.2250   13.2750 C.3    56  PRO56       0.0310
     91  CG        -1.4050   11.7470   12.9890 C.3    56  PRO56       0.0237
     92  CD        -2.2500   11.1200   14.0270 C.3    56  PRO56       0.0939
     93  N         -1.6290   15.6470   15.4600 N.am   57  SER57      -0.1936
     94  CA        -2.3170   16.8830   15.8180 C.3    57  SER57       0.2055
     95  C         -2.7280   17.7070   14.5980 C.2    57  SER57       0.2643
     96  O         -3.6200   18.5610   14.6830 O.2    57  SER57      -0.2714
     97  CB        -1.4140   17.7270   16.7070 C.3    57  SER57       0.2130
     98  OG        -1.2670   17.0940   17.9630 O.3    57  SER57      -0.2179
     99  N         -2.0610   17.4700   13.4740 N.am   58  GLU58      -0.1963
    100  CA        -2.3800   18.2060   12.2480 C.3    58  GLU58       0.1733
    101  C         -3.8160   17.9240   11.8630 C.2    58  GLU58       0.2616
    102  O         -4.2770   16.7840   11.9790 O.2    58  GLU58      -0.2715
    103  CB        -1.4600   17.7980   11.0930 C.3    58  GLU58       0.0429
    104  CG        -0.0460   18.2960   11.2130 C.3    58  GLU58       0.1163
    105  CD         0.8880   17.2820   11.8740 C.2    58  GLU58       0.3649
    106  OE1        0.4070   16.4390   12.6770 O.co2  58  GLU58      -0.2457
    107  OE2        2.1130   17.3300   11.5890 O.co2  58  GLU58      -0.2457
    108  N         -4.5100   18.9590   11.3930 N.am   59  ASP59      -0.1971
    109  CA        -5.8930   18.8430   10.9250 C.3    59  ASP59       0.1709
    110  C         -6.1020   17.7910    9.8540 C.2    59  ASP59       0.2293
    111  O         -7.0650   17.0370    9.9120 O.2    59  ASP59      -0.2864
    112  CB        -6.3860   20.1740   10.3630 C.3    59  ASP59       0.1436
    113  CG        -6.9030   21.0930   11.4270 C.2    59  ASP59       0.3671
    114  OD1       -6.9370   20.6920   12.6230 O.co2  59  ASP59      -0.2456
    115  OD2       -7.2800   22.2330   11.0610 O.co2  59  ASP59      -0.2456
    116  N         -4.6240   14.5710    7.3380 N.3    61  TRP61      -0.1241
    117  CA        -3.6970   13.4560    7.3470 C.3    61  TRP61       0.1605
    118  C         -3.9580   12.5970    6.1240 C.2    61  TRP61       0.2264
    119  O         -5.1120   12.3140    5.8160 O.2    61  TRP61      -0.2867
    120  CB        -3.8960   12.6130    8.6180 C.3    61  TRP61       0.0550
    121  CG        -3.0840   11.3560    8.6520 C.ar   61  TRP61       0.0003
    122  CD1       -1.7980   11.2240    9.0680 C.ar   61  TRP61       0.0946
    123  CD2       -3.5160   10.0360    8.2630 C.ar   61  TRP61       0.0152
    124  NE1       -1.3890    9.9150    8.9580 N.ar   61  TRP61      -0.2442
    125  CE2       -2.4290    9.1620    8.4830 C.ar   61  TRP61       0.0810
    126  CE3       -4.7110    9.5150    7.7580 C.ar   61  TRP61       0.0012
    127  CZ2       -2.4990    7.8000    8.2050 C.ar   61  TRP61       0.0191
    128  CZ3       -4.7830    8.1550    7.4860 C.ar   61  TRP61       0.0001
    129  CH2       -3.6810    7.3190    7.7100 C.ar   61  TRP61       0.0015
@<TRIPOS>BOND
     1    61    60    2
     2    66    67    1
     3    60    59    1
     4    57    56    1
     5    70    67    1
     6    70    71    1
     7    67    68    1
     8    59    62    1
     9    59    58    1
    10    68    69    2
    11    56    53    1
    12    55    54    2
    13    73    71   ar
    14    71    72   ar
    15    62    63    1
    16    58    54   am
    17    54    53    1
    18    53    52    1
    19     1     2    1
    20   119   118    2
    21    63    64   ar
    22    63    65   ar
    23   118   117    1
    24    52    46   am
    25     2     5    1
    26     2     3    1
    27     5     6    1
    28    74    75    1
    29   116   117    1
    30   117   120    1
    31   128   129   ar
    32   128   126   ar
    33    46    47    2
    34    46    45    1
    35   129   127   ar
    36   126   123   ar
    37     3     7   am
    38     3     4    2
    39    51    50    1
    40    77    76    2
    41    10     9    2
    42     7     8    1
    43   127   125   ar
    44   123   125   ar
    45   123   121   ar
    46    75    76    1
    47    75    78    1
    48   125   124   ar
    49    45    48    1
    50    45    44    1
    51    48    49    1
    52   120   121    1
    53   121   122   ar
    54   124   122   ar
    55     9     8    1
    56     8    11    1
    57    50    49    1
    58    39    38    2
    59    44    38   am
    60   110   111    2
    61   110   109    1
    62    38    37    1
    63   112   109    1
    64   112   113    1
    65   109   108    1
    66   115   113   ar
    67   103   104    1
    68   103   100    1
    69    40    37    1
    70    40    41    1
    71   104   105    1
    72   108   101   am
    73   113   114   ar
    74    37    36    1
    75   107   105   ar
    76    42    41    1
    77   101   102    2
    78   101   100    1
    79   105   106   ar
    80   100    99    1
    81    36    29   am
    82    34    33    2
    83    41    43    1
    84    30    29    2
    85    29    28    1
    86    91    90    1
    87    91    92    1
    88    31    28    1
    89    31    32    1
    90    90    87    1
    91    33    32    1
    92    33    35   am
    93    99    95   am
    94    28    27    1
    95    92    86    1
    96    95    96    2
    97    95    94    1
    98    87    88    1
    99    87    86    1
   100    89    88    2
   101    88    93   am
   102    86    81   am
   103    93    94    1
   104    94    97    1
   105    15    14    2
   106    84    83    1
   107    81    80    1
   108    81    82    2
   109    13    16    1
   110    13    14    1
   111    13    12    1
   112    97    98    1
   113    80    83    1
   114    80    79    1
   115    16    17    1
   116    14    19   am
   117    83    85    1
   118    12    18    1
   119    17    18    2
   120    21    22    2
   121    21    20    1
   122    19    20    1
   123    20    23    1
   124    23    24    1
   125    25    24   ar
   126    24    26   ar
