@<TRIPOS>MOLECULE
tmp/3sheA00.pdb
 191 177 0 0 0
SMALL
GASTEIGER

@<TRIPOS>ATOM
      1  N         17.7630   15.8330   13.2230 N.3    18  LEU18      -0.1231
      2  CA        17.3240   14.8460   14.2070 C.3    18  LEU18       0.1696
      3  C         18.2700   13.6420   14.2340 C.2    18  LEU18       0.2632
      4  O         18.5980   13.1370   15.3110 O.2    18  LEU18      -0.2714
      5  CB        15.8880   14.3920   13.9320 C.3    18  LEU18       0.0284
      6  CG        14.7800   15.4570   13.9370 C.3    18  LEU18       0.0019
      7  CD1       15.0390   16.5520   14.9720 C.3    18  LEU18       0.0001
      8  CD2       14.6120   16.0670   12.5610 C.3    18  LEU18       0.0001
      9  N         18.7080   13.1860   13.0590 N.am   19  GLY19      -0.1718
     10  CA        19.7120   12.1210   12.9900 C.2    19  GLY19       0.1480
     11  C         19.9280   11.4620   11.6340 C.2    19  GLY19       0.2820
     12  O         19.2080   11.7370   10.6700 O.2    19  GLY19      -0.2669
     13  N         20.9130   10.5630   11.5880 N.am   20  LEU20      -0.1929
     14  CA        21.3720    9.9330   10.3420 C.3    20  LEU20       0.1731
     15  C         20.7520    8.5520   10.1030 C.2    20  LEU20       0.2616
     16  O         20.9610    7.6200   10.8890 O.2    20  LEU20      -0.2715
     17  CB        22.9020    9.7990   10.3510 C.3    20  LEU20       0.0311
     18  CG        23.7170   11.0780   10.1310 C.3    20  LEU20       0.0022
     19  CD1       25.2080   10.7930   10.2790 C.3    20  LEU20       0.0001
     20  CD2       23.4240   11.6970    8.7670 C.3    20  LEU20       0.0001
     21  N         20.0220    8.4250    8.9950 N.am   21  GLY21      -0.1955
     22  CA        19.3510    7.1800    8.6370 C.3    21  GLY21       0.1869
     23  C         19.9390    6.4570    7.4460 C.2    21  GLY21       0.2309
     24  O         19.2400    6.2190    6.4590 O.2    21  GLY21      -0.2863
     25  N         17.9630   13.3900    8.7380 N.3    26  VAL26      -0.1245
     26  CA        16.5930   13.7410    9.0900 C.3    26  VAL26       0.1561
     27  C         16.5630   15.1640    9.6380 C.2    26  VAL26       0.2260
     28  O         17.2590   15.4710   10.6000 O.2    26  VAL26      -0.2867
     29  CB        16.0080   12.7640   10.1310 C.3    26  VAL26       0.0252
     30  CG1       14.5630   13.1290   10.4600 C.3    26  VAL26       0.0019
     31  CG2       16.0890   11.3290    9.6190 C.3    26  VAL26       0.0019
     32  N         14.1970   18.8060   10.7370 N.3    28  GLU28      -0.1245
     33  CA        12.9200   19.3980   11.1200 C.3    28  GLU28       0.1567
     34  C         12.4110   20.2680    9.9760 C.2    28  GLU28       0.2260
     35  O         13.1970   20.8550    9.2370 O.2    28  GLU28      -0.2867
     36  CB        13.0490   20.2460   12.3920 C.3    28  GLU28       0.0388
     37  CG        13.0090   19.4410   13.6890 C.3    28  GLU28       0.1160
     38  CD        13.1930   20.2950   14.9410 C.2    28  GLU28       0.3649
     39  OE1       12.9600   21.5260   14.8870 O.co2  28  GLU28      -0.2457
     40  OE2       13.5630   19.7220   15.9890 O.co2  28  GLU28      -0.2457
     41  N          4.9460   20.9720   12.9890 N.3    37  LYS37      -0.1245
     42  CA         6.3280   20.5580   12.7980 C.3    37  LYS37       0.1561
     43  C          6.3470   19.1220   12.3060 C.2    37  LYS37       0.2260
     44  O          5.5950   18.2800   12.7990 O.2    37  LYS37      -0.2867
     45  CB         7.1410   20.6740   14.0880 C.3    37  LYS37       0.0271
     46  CG         8.5650   20.1330   13.9540 C.3    37  LYS37       0.0035
     47  CD         9.5510   20.8300   14.8870 C.3    37  LYS37       0.0206
     48  CE         9.2960   20.5230   16.3480 C.3    37  LYS37       0.1093
     49  NZ         9.8980   21.5760   17.2270 N.3    37  LYS37      -0.1314
     50  N          9.0630   15.9230   10.2620 N.3    39  ALA39      -0.1245
     51  CA        10.4270   15.4510   10.0390 C.3    39  ALA39       0.1562
     52  C         10.6040   15.1430    8.5600 C.2    39  ALA39       0.2260
     53  O          9.7180   14.5800    7.9400 O.2    39  ALA39      -0.2867
     54  CB        10.7120   14.2120   10.8860 C.3    39  ALA39       0.0290
     55  N         13.1090   13.3570    5.6740 N.3    41  LYS41      -0.1245
     56  CA        14.2210   12.4490    5.4050 C.3    41  LYS41       0.1561
     57  C         14.6050   12.5540    3.9360 C.2    41  LYS41       0.2260
     58  O         13.8020   12.2460    3.0600 O.2    41  LYS41      -0.2867
     59  CB        13.8570   11.0020    5.7650 C.3    41  LYS41       0.0271
     60  CG        15.0540   10.0640    5.7530 C.3    41  LYS41       0.0035
     61  CD        14.6880    8.6250    6.0870 C.3    41  LYS41       0.0206
     62  CE        15.9410    7.7510    6.1340 C.3    41  LYS41       0.1093
     63  NZ        15.6760    6.4010    6.7000 N.3    41  LYS41      -0.1314
     64  N          7.8720    1.9030    3.3780 N.3    56  HIS56      -0.1241
     65  CA         7.3620    2.8340    4.3790 C.3    56  HIS56       0.1621
     66  C          5.9200    3.2660    4.0840 C.2    56  HIS56       0.2264
     67  O          5.1010    3.2880    5.0030 O.2    56  HIS56      -0.2867
     68  CB         8.2760    4.0610    4.5130 C.3    56  HIS56       0.0745
     69  CG         8.1980    4.7320    5.8500 C.ar   56  HIS56       0.0817
     70  ND1        9.2160    5.5220    6.3450 N.ar   56  HIS56      -0.2268
     71  CD2        7.2360    4.7180    6.8040 C.ar   56  HIS56       0.1154
     72  CE1        8.8740    5.9780    7.5370 C.ar   56  HIS56       0.1986
     73  NE2        7.6750    5.5100    7.8370 N.ar   56  HIS56      -0.2212
     74  N          5.6350    5.0200   12.4880 N.3    66  VAL66      -0.1245
     75  CA         5.7310    6.4410   12.1810 C.3    66  VAL66       0.1561
     76  C          5.1230    6.6870   10.8000 C.2    66  VAL66       0.2260
     77  O          5.5080    6.0470    9.8190 O.2    66  VAL66      -0.2867
     78  CB         7.2100    6.9170   12.2400 C.3    66  VAL66       0.0252
     79  CG1        7.3650    8.3570   11.7660 C.3    66  VAL66       0.0019
     80  CG2        7.7540    6.7760   13.6610 C.3    66  VAL66       0.0019
     81  N          7.6360   12.9410    7.2990 N.3    86  MET86      -0.1230
     82  CA         7.0180   12.1210    8.3400 C.3    86  MET86       0.1702
     83  C          6.4630   12.9950    9.4470 C.2    86  MET86       0.2592
     84  O          6.8480   14.1500    9.5910 O.2    86  MET86      -0.2718
     85  CB         8.0580   11.2010    8.9710 C.3    86  MET86       0.0401
     86  CG         8.5510   10.0940    8.0960 C.3    86  MET86       0.0596
     87  SD        10.0170    9.3510    8.8370 S.3    86  MET86      -0.1393
     88  CE        11.2760   10.5000    8.2980 C.3    86  MET86       0.0692
     89  N          5.5800   12.4210   10.2540 N.am   87  GLU87      -0.1966
     90  CA         5.1560   13.0690   11.4870 C.3    87  GLU87       0.1733
     91  C          6.3840   13.2300   12.3820 C.2    87  GLU87       0.2616
     92  O          7.2500   12.3570   12.4070 O.2    87  GLU87      -0.2715
     93  CB         4.0680   12.2480   12.2020 C.3    87  GLU87       0.0429
     94  CG         4.5150   10.8520   12.6880 C.3    87  GLU87       0.1163
     95  CD         3.4580   10.1480   13.5270 C.2    87  GLU87       0.3649
     96  OE1        3.1420    8.9770   13.2410 O.co2  87  GLU87      -0.2457
     97  OE2        2.9390   10.7660   14.4750 O.co2  87  GLU87      -0.2457
     98  N          6.4670   14.3460   13.1000 N.am   88  CYS88      -0.1954
     99  CA         7.6060   14.5990   13.9720 C.3    88  CYS88       0.1843
    100  C          7.4210   13.8730   15.2990 C.2    88  CYS88       0.2625
    101  O          6.4300   14.0790   15.9990 O.2    88  CYS88      -0.2714
    102  CB         7.8010   16.0950   14.2150 C.3    88  CYS88       0.0997
    103  SG         9.3760   16.4820   15.0240 S.3    88  CYS88      -0.0797
    104  N          8.3820   13.0120   15.6190 N.am   89  MET89      -0.1963
    105  CA         8.3750   12.2600   16.8660 C.3    89  MET89       0.1736
    106  C          9.2460   13.0020   17.8780 C.2    89  MET89       0.2616
    107  O         10.4450   12.7510   17.9820 O.2    89  MET89      -0.2715
    108  CB         8.8990   10.8450   16.6180 C.3    89  MET89       0.0427
    109  CG         8.1500   10.0990   15.5170 C.3    89  MET89       0.0599
    110  SD         6.5040    9.5900   16.0350 S.3    89  MET89      -0.1393
    111  CE         6.9260    8.3980   17.3020 C.3    89  MET89       0.0692
    112  N          8.6400   13.9180   18.6250 N.am   90  GLU90      -0.1977
    113  CA         9.4140   14.7930   19.5230 C.3    90  GLU90       0.1602
    114  C          9.5140   14.2700   20.9550 C.2    90  GLU90       0.2287
    115  O         10.0510   14.9470   21.8290 O.2    90  GLU90      -0.2864
    116  CB         8.9210   16.2580   19.4840 C.3    90  GLU90       0.0415
    117  CG         7.4960   16.4910   18.9820 C.3    90  GLU90       0.1163
    118  CD         7.2030   17.9540   18.6790 C.2    90  GLU90       0.3649
    119  OE1        7.8470   18.8430   19.2780 O.co2  90  GLU90      -0.2457
    120  OE2        6.3260   18.2100   17.8290 O.co2  90  GLU90      -0.2457
    121  N         11.2850   11.5620   21.5480 N.3    92  GLY92      -0.1210
    122  CA        12.6210   10.9810   21.6200 C.3    92  GLY92       0.1956
    123  C         12.6270    9.4620   21.6720 C.2    92  GLY92       0.2611
    124  O         11.6140    8.8130   21.4190 O.2    92  GLY92      -0.2717
    125  N         13.7830    8.9040   22.0170 N.am   93  GLU93      -0.1979
    126  CA        14.0100    7.4690   21.9270 C.3    93  GLU93       0.1602
    127  C         13.4860    6.7260   23.1520 C.2    93  GLU93       0.2287
    128  O         13.5550    7.2290   24.2730 O.2    93  GLU93      -0.2864
    129  CB        15.5010    7.1820   21.7350 C.3    93  GLU93       0.0415
    130  CG        16.0610    7.7430   20.4330 C.3    93  GLU93       0.1163
    131  CD        17.5500    7.4830   20.2590 C.2    93  GLU93       0.3649
    132  OE1       18.1200    7.9910   19.2730 O.co2  93  GLU93      -0.2457
    133  OE2       18.1530    6.7770   21.0990 O.co2  93  GLU93      -0.2457
    134  N         15.8770   -1.6670   16.4880 N.3   132  LYS132     -0.1245
    135  CA        16.8930   -1.3610   17.4810 C.3   132  LYS132      0.1561
    136  C         16.5320   -0.0570   18.2030 C.2   132  LYS132      0.2260
    137  O         15.7650    0.7400   17.6700 O.2   132  LYS132     -0.2867
    138  CB        18.2690   -1.2670   16.8000 C.3   132  LYS132      0.0271
    139  CG        18.3970   -0.1720   15.7540 C.3   132  LYS132      0.0035
    140  CD        19.7580   -0.2370   15.0840 C.3   132  LYS132      0.0206
    141  CE        19.9250    0.8200   14.0110 C.3   132  LYS132      0.1093
    142  NZ        21.2010    0.6000   13.2560 N.3   132  LYS132     -0.1314
    143  N         17.3830    3.0480   18.7180 N.3   134  GLU134     -0.1231
    144  CA        17.2890    4.3720   18.0790 C.3   134  GLU134      0.1699
    145  C         16.2340    4.4730   16.9610 C.2   134  GLU134      0.2592
    146  O         16.0600    5.5420   16.3750 O.2   134  GLU134     -0.2718
    147  CB        18.6620    4.8610   17.5730 C.3   134  GLU134      0.0402
    148  CG        19.3400    4.0030   16.5030 C.3   134  GLU134      0.1161
    149  CD        20.4770    3.1660   17.0630 C.2   134  GLU134      0.3649
    150  OE1       21.6450    3.4490   16.7210 O.co2 134  GLU134     -0.2457
    151  OE2       20.2040    2.2400   17.8610 O.co2 134  GLU134     -0.2457
    152  N         15.5360    3.3720   16.6790 N.am  135  ASN135     -0.1974
    153  CA        14.4260    3.3530   15.7290 C.3   135  ASN135      0.1688
    154  C         13.0810    3.2030   16.4140 C.2   135  ASN135      0.2292
    155  O         12.0810    2.9290   15.7570 O.2   135  ASN135     -0.2864
    156  CB        14.5880    2.1890   14.7470 C.3   135  ASN135      0.1181
    157  CG        15.7010    2.4100   13.7740 C.2   135  ASN135      0.2629
    158  OD1       15.9590    3.5420   13.3590 O.2   135  ASN135     -0.2716
    159  ND2       16.3670    1.3290   13.3830 N.am  135  ASN135     -0.0877
    160  N         10.6930    5.3940   18.7730 N.3   137  LEU137     -0.1245
    161  CA        10.5420    6.7900   19.1670 C.3   137  LEU137      0.1561
    162  C          9.1710    7.0500   19.7680 C.2   137  LEU137      0.2260
    163  O          8.2220    6.3210   19.4930 O.2   137  LEU137     -0.2867
    164  CB        10.7130    7.6930   17.9450 C.3   137  LEU137      0.0270
    165  CG        12.0470    7.5790   17.2080 C.3   137  LEU137      0.0019
    166  CD1       11.9500    8.2070   15.8270 C.3   137  LEU137      0.0001
    167  CD2       13.1480    8.2290   18.0330 C.3   137  LEU137      0.0001
    168  N          6.6750   14.2040   24.6010 N.3   141  LYS141     -0.1245
    169  CA         7.2570   14.0480   25.9290 C.3   141  LYS141      0.1561
    170  C          6.1640   13.9040   26.9940 C.2   141  LYS141      0.2260
    171  O          6.4630   13.6490   28.1630 O.2   141  LYS141     -0.2867
    172  CB         8.1420   15.2530   26.2640 C.3   141  LYS141      0.0271
    173  CG         9.3340   15.4480   25.3330 C.3   141  LYS141      0.0035
    174  CD        10.4520   14.4500   25.6200 C.3   141  LYS141      0.0206
    175  CE        11.7320   14.8240   24.8740 C.3   141  LYS141      0.1093
    176  NZ        12.9040   14.0160   25.3170 N.3   141  LYS141     -0.1314
    177  N         10.3040    3.4880   13.1990 N.3   150  THR150     -0.1203
    178  CA        10.7150    4.1140   11.9210 C.3   150  THR150      0.1994
    179  C         11.8470    3.3560   11.2200 C.2   150  THR150      0.2617
    180  O         12.3470    2.3460   11.7200 O.2   150  THR150     -0.2717
    181  CB        11.2960    5.5640   12.1010 C.3   150  THR150      0.1784
    182  OG1       12.0890    5.6440   13.2950 O.3   150  THR150     -0.2211
    183  CG2       10.2190    6.6000   12.1300 C.3   150  THR150      0.0376
    184  N         12.2350    3.8780   10.0540 N.am  151  ASP151     -0.1973
    185  CA        13.4590    3.4990    9.3530 C.3   151  ASP151      0.1709
    186  C         13.3040    2.1800    8.6050 C.2   151  ASP151      0.2293
    187  O         13.6460    1.1080    9.1170 O.2   151  ASP151     -0.2864
    188  CB        14.6630    3.4560   10.3070 C.3   151  ASP151      0.1436
    189  CG        15.9760    3.6620    9.5920 C.2   151  ASP151      0.3671
    190  OD1       16.9720    3.9800   10.2710 O.co2 151  ASP151     -0.2456
    191  OD2       16.0150    3.5300    8.3530 O.co2 151  ASP151     -0.2456
@<TRIPOS>BOND
     1    58    57    2
     2    64    65    1
     3    57    56    1
     4    66    65    1
     5    66    67    2
     6    65    68    1
     7    68    69    1
     8    56    55    1
     9    56    59    1
    10    60    59    1
    11    60    61    1
    12    69    70   ar
    13    69    71   ar
    14    61    62    1
    15    62    63    1
    16    70    72   ar
    17    24    23    2
    18    71    73   ar
    19    81    82    1
    20    23    22    1
    21    72    73   ar
    22    53    52    2
    23    86    87    1
    24    86    85    1
    25    88    87    1
    26    82    85    1
    27    82    83    1
    28   191   189   ar
    29    52    51    1
    30   186   187    2
    31   186   185    1
    32    22    21    1
    33    25    26    1
    34    20    18    1
    35    21    15   am
    36    26    27    1
    37    26    29    1
    38    35    34    2
    39   185   184    1
    40   185   188    1
    41    83    84    2
    42    83    89   am
    43   189   190   ar
    44   189   188    1
    45    31    29    1
    46    27    28    2
    47    77    76    2
    48    34    33    1
    49    51    50    1
    50    51    54    1
    51   184   179   am
    52    15    14    1
    53    15    16    2
    54    29    30    1
    55    18    19    1
    56    18    17    1
    57    89    90    1
    58    14    17    1
    59    14    13    1
    60    12    11    2
    61    32    33    1
    62    76    75    1
    63    33    36    1
    64   179   180    2
    65   179   178    1
    66    90    93    1
    67    90    91    1
    68    13    11   am
    69    11    10    1
    70    79    78    1
    71   178   181    1
    72   178   177    1
    73   181   183    1
    74   181   182    1
    75    75    78    1
    76    75    74    1
    77    93    94    1
    78    78    80    1
    79    43    42    1
    80    43    44    2
    81    91    92    2
    82    91    98   am
    83    36    37    1
    84     8     6    1
    85    94    95    1
    86    42    41    1
    87    42    45    1
    88    10     9    2
    89     9     3    1
    90    98    99    1
    91     1     2    1
    92    96    95   ar
    93   142   141    1
    94   158   157    2
    95   159   157   am
    96    95    97   ar
    97    37    38    1
    98   157   156    1
    99     5     6    1
   100     5     2    1
   101     6     7    1
   102    46    45    1
   103    46    47    1
   104    99   102    1
   105    99   100    1
   106   141   140    1
   107     2     3    1
   108   102   103    1
   109     3     4    2
   110   156   153    1
   111    47    48    1
   112    39    38   ar
   113    38    40   ar
   114   140   139    1
   115   100   104   am
   116   100   101    2
   117   109   110    1
   118   109   108    1
   119   104   105    1
   120   153   154    1
   121   153   152    1
   122   139   138    1
   123   155   154    2
   124   166   165    1
   125   110   111    1
   126    48    49    1
   127   146   145    2
   128   134   135    1
   129   148   149    1
   130   148   147    1
   131   108   105    1
   132   152   145   am
   133   150   149   ar
   134   138   135    1
   135   105   106    1
   136   145   144    1
   137   149   151   ar
   138   165   164    1
   139   165   167    1
   140   135   136    1
   141   147   144    1
   142   137   136    2
   143   120   118   ar
   144   106   107    2
   145   106   112   am
   146   164   161    1
   147   144   143    1
   148   112   113    1
   149   118   117    1
   150   118   119   ar
   151   160   161    1
   152   117   116    1
   153   161   162    1
   154   132   131   ar
   155   116   113    1
   156   163   162    2
   157   113   114    1
   158   131   130    1
   159   131   133   ar
   160   130   129    1
   161   114   115    2
   162   124   123    2
   163   121   122    1
   164   122   123    1
   165   123   125   am
   166   129   126    1
   167   126   125    1
   168   126   127    1
   169   127   128    2
   170   168   169    1
   171   175   176    1
   172   175   174    1
   173   173   174    1
   174   173   172    1
   175   169   172    1
   176   169   170    1
   177   170   171    2
