@<TRIPOS>MOLECULE
tmp/3shjY00.pdb
 61 57 0 0 0
SMALL
GASTEIGER

@<TRIPOS>ATOM
      1  N         56.6560 -151.8890    7.8540 N.3     1  THR1       -0.1218
      2  CA        57.1010 -152.9820    6.9520 C.3     1  THR1        0.1862
      3  C         56.4470 -152.8790    5.5940 C.2     1  THR1        0.2287
      4  O         55.2750 -152.5390    5.4920 O.2     1  THR1       -0.2866
      5  CB        56.7370 -154.3380    7.5330 C.3     1  THR1        0.1770
      6  OG1       57.4210 -154.5080    8.7750 O.3     1  THR1       -0.2211
      7  CG2       57.1270 -155.4490    6.5860 C.3     1  THR1        0.0375
      8  N         60.4620 -152.8720   13.8340 N.3    21  THR21      -0.1203
      9  CA        60.1520 -151.8750   14.8490 C.3    21  THR21       0.1994
     10  C         59.1480 -152.2780   15.9220 C.2    21  THR21       0.2618
     11  O         58.1550 -152.9460   15.6530 O.2    21  THR21      -0.2717
     12  CB        59.6050 -150.6060   14.2080 C.3    21  THR21       0.1784
     13  OG1       58.3620 -150.9060   13.5630 O.3    21  THR21      -0.2211
     14  CG2       60.5820 -150.0660   13.1900 C.3    21  THR21       0.0376
     15  N         59.4270 -151.8470   17.1460 N.am   22  ALA22      -0.1965
     16  CA        58.5560 -152.0730   18.2900 C.3    22  ALA22       0.1728
     17  C         58.2100 -150.6370   18.6580 C.2    22  ALA22       0.2616
     18  O         58.8500 -150.0290   19.5250 O.2    22  ALA22      -0.2715
     19  CB        59.3190 -152.7350   19.4060 C.3    22  ALA22       0.0334
     20  N         57.2170 -150.0870   17.9640 N.am   23  GLY23      -0.1955
     21  CA        56.8280 -148.7080   18.1970 C.3    23  GLY23       0.1869
     22  C         57.7470 -147.8410   17.3640 C.2    23  GLY23       0.2309
     23  O         57.9370 -148.1170   16.1820 O.2    23  GLY23      -0.2863
     24  N         54.8830 -160.2030    7.2170 N.3    46  ALA46      -0.1231
     25  CA        54.2550 -158.9200    7.5300 C.3    46  ALA46       0.1694
     26  C         53.2930 -159.1500    8.6880 C.2    46  ALA46       0.2592
     27  O         52.5320 -160.1200    8.6790 O.2    46  ALA46      -0.2718
     28  CB        53.5070 -158.4040    6.3270 C.3    46  ALA46       0.0304
     29  N         53.3170 -158.2700    9.6840 N.am   47  GLY47      -0.1957
     30  CA        52.4430 -158.4480   10.8340 C.3    47  GLY47       0.1869
     31  C         53.2640 -159.0010   11.9770 C.2    47  GLY47       0.2309
     32  O         54.2810 -158.4180   12.3500 O.2    47  GLY47      -0.2863
     33  N         51.7900 -155.8660    1.0650 N.3   129  VAL129     -0.1231
     34  CA        51.3390 -156.0110    2.4280 C.3   129  VAL129      0.1692
     35  C         52.3130 -155.3260    3.3560 C.2   129  VAL129      0.2593
     36  O         53.5300 -155.4530    3.2070 O.2   129  VAL129     -0.2718
     37  CB        51.2300 -157.4880    2.8080 C.3   129  VAL129      0.0266
     38  CG1       50.8350 -157.6180    4.2590 C.3   129  VAL129      0.0020
     39  CG2       50.2130 -158.1750    1.9150 C.3   129  VAL129      0.0020
     40  N         51.7660 -154.5840    4.3100 N.am  130  GLY130     -0.1942
     41  CA        52.6000 -153.8870    5.2670 C.3   130  GLY130      0.2014
     42  C         52.1730 -152.4490    5.4820 C.2   130  GLY130      0.2639
     43  O         51.3680 -151.8950    4.7300 O.2   130  GLY130     -0.2714
     44  N         52.7300 -151.8440    6.5200 N.am  131  SER131     -0.1949
     45  CA        52.4370 -150.4690    6.8660 C.3   131  SER131      0.1924
     46  C         52.9130 -149.5290    5.7790 C.2   131  SER131      0.2314
     47  O         52.7020 -148.3210    5.8690 O.2   131  SER131     -0.2863
     48  CB        53.1390 -150.1110    8.1640 C.3   131  SER131      0.2116
     49  OG        54.5370 -150.2450    8.0040 O.3   131  SER131     -0.2180
     50  N         58.0490 -146.9040    9.3800 N.3   170  TYR170     -0.1241
     51  CA        58.2010 -148.2740    9.8390 C.3   170  TYR170      0.1605
     52  C         58.8130 -149.2020    8.7980 C.2   170  TYR170      0.2264
     53  O         58.8910 -150.4130    8.9970 O.2   170  TYR170     -0.2867
     54  CB        56.8460 -148.8070   10.3160 C.3   170  TYR170      0.0534
     55  CG        56.2630 -147.9690   11.4280 C.ar  170  TYR170     -0.0201
     56  CD1       57.0520 -147.5800   12.5020 C.ar  170  TYR170     -0.0009
     57  CD2       54.9430 -147.5360   11.3920 C.ar  170  TYR170     -0.0009
     58  CE1       56.5490 -146.7780   13.5110 C.ar  170  TYR170      0.0417
     59  CE2       54.4220 -146.7310   12.3970 C.ar  170  TYR170      0.0417
     60  CZ        55.2320 -146.3510   13.4590 C.ar  170  TYR170      0.1957
     61  OH        54.7430 -145.5440   14.4770 O.3   170  TYR170     -0.2866
@<TRIPOS>BOND
     1    33    34    1
     2    39    37    1
     3    34    37    1
     4    34    35    1
     5    37    38    1
     6    36    35    2
     7    35    40   am
     8    40    41    1
     9    43    42    2
    10    41    42    1
    11    42    44   am
    12     4     3    2
    13     3     2    1
    14    46    47    2
    15    46    45    1
    16    28    25    1
    17    44    45    1
    18     7     5    1
    19    45    48    1
    20     2     5    1
    21     2     1    1
    22    24    25    1
    23    25    26    1
    24     5     6    1
    25    49    48    1
    26    27    26    2
    27    26    29   am
    28    52    53    2
    29    52    51    1
    30    50    51    1
    31    29    30    1
    32    51    54    1
    33    54    55    1
    34    30    31    1
    35    57    55   ar
    36    57    59   ar
    37    55    56   ar
    38    31    32    2
    39    59    60   ar
    40    56    58   ar
    41    14    12    1
    42    60    58   ar
    43    60    61    1
    44    13    12    1
    45     8     9    1
    46    12     9    1
    47     9    10    1
    48    11    10    2
    49    10    15   am
    50    23    22    2
    51    15    16    1
    52    22    21    1
    53    20    21    1
    54    20    17   am
    55    16    17    1
    56    16    19    1
    57    17    18    2
