@<TRIPOS>MOLECULE
tmp/3shjY01.pdb
 109 102 0 0 0
SMALL
GASTEIGER

@<TRIPOS>ATOM
      1  N         56.6560 -151.8890    7.8540 N.3     1  THR1       -0.1218
      2  CA        57.1010 -152.9820    6.9520 C.3     1  THR1        0.1862
      3  C         56.4470 -152.8790    5.5940 C.2     1  THR1        0.2287
      4  O         55.2750 -152.5390    5.4920 O.2     1  THR1       -0.2866
      5  CB        56.7370 -154.3380    7.5330 C.3     1  THR1        0.1770
      6  OG1       57.4210 -154.5080    8.7750 O.3     1  THR1       -0.2211
      7  CG2       57.1270 -155.4490    6.5860 C.3     1  THR1        0.0375
      8  N         63.2790 -153.5560    8.0270 N.3    19  ARG19      -0.1231
      9  CA        63.2600 -152.8660    9.3150 C.3    19  ARG19       0.1694
     10  C         62.3050 -153.5450   10.2950 C.2    19  ARG19       0.2592
     11  O         61.1940 -153.9300    9.9380 O.2    19  ARG19      -0.2718
     12  CB        62.8590 -151.4020    9.1160 C.3    19  ARG19       0.0321
     13  CG        62.6800 -150.6220   10.4040 C.3    19  ARG19       0.0489
     14  CD        62.5130 -149.1390   10.1220 C.3    19  ARG19       0.2205
     15  NE        63.7170 -148.6040    9.4940 N.pl3  19  ARG19      -0.0865
     16  CZ        63.8250 -147.3900    8.9630 C.cat  19  ARG19       0.5346
     17  NH1       62.7940 -146.5560    8.9740 N.pl3  19  ARG19       0.1354
     18  NH2       64.9750 -147.0110    8.4230 N.pl3  19  ARG19       0.1354
     19  N         62.7520 -153.6970   11.5330 N.am   20  ALA20      -0.1966
     20  CA        61.9350 -154.3160   12.5620 C.3    20  ALA20       0.1728
     21  C         61.7070 -153.2960   13.6650 C.2    20  ALA20       0.2616
     22  O         62.6430 -152.9070   14.3640 O.2    20  ALA20      -0.2715
     23  CB        62.6390 -155.5230   13.1120 C.3    20  ALA20       0.0334
     24  N         60.4620 -152.8720   13.8340 N.am   21  THR21      -0.1951
     25  CA        60.1520 -151.8750   14.8490 C.3    21  THR21       0.1897
     26  C         59.1480 -152.2780   15.9220 C.2    21  THR21       0.2313
     27  O         58.1550 -152.9460   15.6530 O.2    21  THR21      -0.2863
     28  CB        59.6050 -150.6060   14.2080 C.3    21  THR21       0.1794
     29  OG1       58.3620 -150.9060   13.5630 O.3    21  THR21      -0.2208
     30  CG2       60.5820 -150.0660   13.1900 C.3    21  THR21       0.0378
     31  N         64.2500 -151.8960   16.0940 N.3    27  ALA27      -0.1231
     32  CA        64.9360 -153.0600   16.6430 C.3    27  ALA27       0.1694
     33  C         66.0650 -153.5440   15.7450 C.2    27  ALA27       0.2592
     34  O         67.1370 -153.9140   16.2260 O.2    27  ALA27      -0.2718
     35  CB        63.9490 -154.1710   16.8670 C.3    27  ALA27       0.0304
     36  N         65.8170 -153.5530   14.4400 N.am   28  SER28      -0.1952
     37  CA        66.8220 -153.9820   13.4800 C.3    28  SER28       0.1924
     38  C         66.5140 -153.4270   12.1070 C.2    28  SER28       0.2314
     39  O         65.3670 -153.1050   11.7920 O.2    28  SER28      -0.2863
     40  CB        66.8790 -155.5080   13.4070 C.3    28  SER28       0.2116
     41  OG        67.7410 -155.9300   12.3640 O.3    28  SER28      -0.2180
     42  N         66.8280 -157.3100    8.9570 N.3    31  VAL31      -0.1231
     43  CA        65.9760 -158.4660    9.1290 C.3    31  VAL31       0.1692
     44  C         65.4980 -159.1420    7.8380 C.2    31  VAL31       0.2592
     45  O         65.3140 -158.4770    6.8160 O.2    31  VAL31      -0.2718
     46  CB        64.7920 -158.0400    9.9950 C.3    31  VAL31       0.0266
     47  CG1       63.6870 -158.9760    9.8370 C.3    31  VAL31       0.0020
     48  CG2       65.2260 -157.9610   11.4500 C.3    31  VAL31       0.0020
     49  N         65.3070 -160.4670    7.8910 N.am   32  LYS32      -0.1966
     50  CA        64.8360 -161.2440    6.7300 C.3    32  LYS32       0.1728
     51  C         63.3260 -161.4190    6.7550 C.2    32  LYS32       0.2616
     52  O         62.7930 -162.1870    7.5590 O.2    32  LYS32      -0.2715
     53  CB        65.4720 -162.6420    6.6770 C.3    32  LYS32       0.0311
     54  CG        66.9190 -162.6900    6.2350 C.3    32  LYS32       0.0038
     55  CD        67.8030 -162.0910    7.3020 C.3    32  LYS32       0.0206
     56  CE        69.2800 -162.1790    6.9680 C.3    32  LYS32       0.1093
     57  NZ        70.0850 -161.5560    8.0650 N.3    32  LYS32      -0.1314
     58  N         62.6410 -160.7210    5.8600 N.am   33  LYS33      -0.1977
     59  CA        61.1940 -160.8010    5.8080 C.3    33  LYS33       0.1596
     60  C         60.6710 -161.7360    4.7260 C.2    33  LYS33       0.2287
     61  O         59.4770 -161.7430    4.4180 O.2    33  LYS33      -0.2864
     62  CB        60.6050 -159.3980    5.6380 C.3    33  LYS33       0.0298
     63  CG        60.8710 -158.4950    6.8320 C.3    33  LYS33       0.0038
     64  CD        60.2120 -157.1380    6.6930 C.3    33  LYS33       0.0206
     65  CE        60.6460 -156.2370    7.8400 C.3    33  LYS33       0.1093
     66  NZ        60.1480 -154.8400    7.6910 N.3    33  LYS33      -0.1314
     67  N         56.8940 -161.9610    4.9620 N.3    45  MET45      -0.1230
     68  CA        56.6120 -161.6940    6.3690 C.3    45  MET45       0.1702
     69  C         56.0710 -160.2830    6.6330 C.2    45  MET45       0.2592
     70  O         56.7130 -159.2870    6.3130 O.2    45  MET45      -0.2718
     71  CB        57.9000 -161.9220    7.1490 C.3    45  MET45       0.0401
     72  CG        57.7750 -161.8470    8.6450 C.3    45  MET45       0.0596
     73  SD        59.3960 -162.0720    9.4480 S.3    45  MET45      -0.1393
     74  CE        59.7070 -163.8310    9.1380 C.3    45  MET45       0.0692
     75  N         54.8830 -160.2030    7.2170 N.am   46  ALA46      -0.1966
     76  CA        54.2550 -158.9200    7.5300 C.3    46  ALA46       0.1728
     77  C         53.2930 -159.1500    8.6880 C.2    46  ALA46       0.2616
     78  O         52.5320 -160.1200    8.6790 O.2    46  ALA46      -0.2715
     79  CB        53.5070 -158.4040    6.3270 C.3    46  ALA46       0.0334
     80  N         53.3170 -158.2700    9.6840 N.am   47  GLY47      -0.1955
     81  CA        52.4430 -158.4480   10.8340 C.3    47  GLY47       0.1869
     82  C         53.2640 -159.0010   11.9770 C.2    47  GLY47       0.2309
     83  O         54.2810 -158.4180   12.3500 O.2    47  GLY47      -0.2863
     84  N         56.0020 -161.1430   13.4890 N.3    49  ALA49      -0.1245
     85  CA        57.1890 -161.8910   13.0730 C.3    49  ALA49       0.1562
     86  C         57.0810 -163.3670   13.4620 C.2    49  ALA49       0.2260
     87  O         57.0940 -164.2570   12.6060 O.2    49  ALA49      -0.2867
     88  CB        58.4170 -161.2920   13.7030 C.3    49  ALA49       0.0290
     89  N         57.0180 -166.2550   10.6680 N.3    53  GLN53      -0.1245
     90  CA        58.2070 -167.0780   10.7020 C.3    53  GLN53       0.1566
     91  C         57.9000 -168.5170   11.1140 C.2    53  GLN53       0.2260
     92  O         58.1380 -169.4570   10.3580 O.2    53  GLN53      -0.2867
     93  CB        59.2110 -166.4550   11.6590 C.3    53  GLN53       0.0367
     94  CG        60.6300 -166.8120   11.3350 C.3    53  GLN53       0.0905
     95  CD        61.6100 -166.0400   12.1750 C.2    53  GLN53       0.2608
     96  OE1       61.7060 -166.2470   13.3920 O.2    53  GLN53      -0.2717
     97  NE2       62.3480 -165.1310   11.5340 N.am   53  GLN53      -0.0878
     98  N         58.0490 -146.9040    9.3800 N.3   170  TYR170     -0.1241
     99  CA        58.2010 -148.2740    9.8390 C.3   170  TYR170      0.1605
    100  C         58.8130 -149.2020    8.7980 C.2   170  TYR170      0.2264
    101  O         58.8910 -150.4130    8.9970 O.2   170  TYR170     -0.2867
    102  CB        56.8460 -148.8070   10.3160 C.3   170  TYR170      0.0534
    103  CG        56.2630 -147.9690   11.4280 C.ar  170  TYR170     -0.0201
    104  CD1       57.0520 -147.5800   12.5020 C.ar  170  TYR170     -0.0009
    105  CD2       54.9430 -147.5360   11.3920 C.ar  170  TYR170     -0.0009
    106  CE1       56.5490 -146.7780   13.5110 C.ar  170  TYR170      0.0417
    107  CE2       54.4220 -146.7310   12.3970 C.ar  170  TYR170      0.0417
    108  CZ        55.2320 -146.3510   13.4590 C.ar  170  TYR170      0.1957
    109  OH        54.7430 -145.5440   14.4770 O.3   170  TYR170     -0.2866
@<TRIPOS>BOND
     1    61    60    2
     2    60    59    1
     3    67    68    1
     4     4     3    2
     5     3     2    1
     6    62    59    1
     7    62    63    1
     8    59    58    1
     9    58    51   am
    10    54    53    1
    11    54    55    1
    12    70    69    2
    13    79    76    1
    14    68    69    1
    15    68    71    1
    16     7     5    1
    17    69    75   am
    18    53    50    1
    19    64    63    1
    20    64    65    1
    21    50    51    1
    22    50    49    1
    23    51    52    2
    24    45    44    2
    25     2     5    1
    26     2     1    1
    27    56    55    1
    28    56    57    1
    29    71    72    1
    30    75    76    1
    31    76    77    1
    32     5     6    1
    33    66    65    1
    34    44    49   am
    35    44    43    1
    36     8     9    1
    37    18    16    1
    38    72    73    1
    39    78    77    2
    40    77    80   am
    41   100   101    2
    42   100    99    1
    43    42    43    1
    44    16    17    1
    45    16    15    2
    46    12     9    1
    47    12    13    1
    48    43    46    1
    49    74    73    1
    50     9    10    1
    51    98    99    1
    52    15    14    1
    53    80    81    1
    54    47    46    1
    55    99   102    1
    56    11    10    2
    57    46    48    1
    58    14    13    1
    59    10    19   am
    60   102   103    1
    61    92    91    2
    62    89    90    1
    63    90    91    1
    64    90    93    1
    65    81    82    1
    66    94    93    1
    67    94    95    1
    68   105   103   ar
    69   105   107   ar
    70   103   104   ar
    71    19    20    1
    72    97    95   am
    73    39    38    2
    74    82    83    2
    75    38    37    1
    76    95    96    2
    77    41    40    1
    78   107   108   ar
    79   104   106   ar
    80    20    23    1
    81    20    21    1
    82    87    86    2
    83    85    86    1
    84    85    84    1
    85    85    88    1
    86    30    28    1
    87    40    37    1
    88   108   106   ar
    89   108   109    1
    90    37    36    1
    91    29    28    1
    92    21    24   am
    93    21    22    2
    94    24    25    1
    95    28    25    1
    96    36    33   am
    97    25    26    1
    98    27    26    2
    99    33    34    2
   100    33    32    1
   101    31    32    1
   102    32    35    1
