@<TRIPOS>MOLECULE
tmp/3shrB00.pdb
 120 113 0 0 0
SMALL
GASTEIGER

@<TRIPOS>ATOM
      1  N        -11.9580  -42.0780   23.8140 N.3    53  ILE53      -0.1245
      2  CA       -12.6930  -40.9040   24.2510 C.3    53  ILE53       0.1561
      3  C        -11.8610  -40.0580   25.2080 C.2    53  ILE53       0.2260
      4  O        -11.2290  -40.5830   26.1130 O.2    53  ILE53      -0.2867
      5  CB       -14.0080  -41.3530   24.9270 C.3    53  ILE53       0.0252
      6  CG1      -14.8390  -42.1600   23.9190 C.3    53  ILE53       0.0019
      7  CG2      -14.7670  -40.1560   25.4570 C.3    53  ILE53       0.0019
      8  CD1      -15.9490  -42.9910   24.5180 C.3    53  ILE53       0.0001
      9  N        -11.1480  -47.2560   31.6560 N.3    72  VAL72      -0.1245
     10  CA       -11.9470  -46.0390   31.7050 C.3    72  VAL72       0.1561
     11  C        -11.2870  -45.0510   32.6590 C.2    72  VAL72       0.2260
     12  O        -11.9080  -44.5720   33.6080 O.2    72  VAL72      -0.2867
     13  CB       -13.3910  -46.3260   32.1950 C.3    72  VAL72       0.0252
     14  CG1      -14.2330  -45.0630   32.1020 C.3    72  VAL72       0.0019
     15  CG2      -14.0170  -47.4420   31.3680 C.3    72  VAL72       0.0019
     16  N         -9.4780  -41.4720   33.8810 N.3    74  LYS74      -0.1245
     17  CA       -10.1060  -40.1640   33.9530 C.3    74  LYS74       0.1561
     18  C         -9.0100  -39.1200   34.1140 C.2    74  LYS74       0.2260
     19  O         -8.3840  -38.7080   33.1330 O.2    74  LYS74      -0.2867
     20  CB       -11.0590  -40.1200   35.1450 C.3    74  LYS74       0.0271
     21  CG       -12.1560  -39.0880   35.0440 C.3    74  LYS74       0.0035
     22  CD       -11.6270  -37.6780   35.0610 C.3    74  LYS74       0.0206
     23  CE       -12.7760  -36.7000   35.1940 C.3    74  LYS74       0.1093
     24  NZ       -12.3060  -35.3000   35.2880 N.3    74  LYS74      -0.1314
     25  N        -10.0570  -45.4560   36.6670 N.3    79  LEU79      -0.1231
     26  CA       -11.3130  -45.5740   37.3910 C.3    79  LEU79       0.1693
     27  C        -12.0550  -46.8510   37.0770 C.2    79  LEU79       0.2592
     28  O        -13.2560  -46.9250   37.2910 O.2    79  LEU79      -0.2718
     29  CB       -12.2130  -44.3650   37.1290 C.3    79  LEU79       0.0284
     30  CG       -11.7600  -43.0790   37.8250 C.3    79  LEU79       0.0019
     31  CD1      -12.7690  -41.9610   37.6010 C.3    79  LEU79       0.0001
     32  CD2      -11.6020  -43.3550   39.3070 C.3    79  LEU79       0.0001
     33  N        -11.3230  -47.8390   36.5610 N.am   80  CYS80      -0.1970
     34  CA       -11.8360  -49.1760   36.2340 C.3    80  CYS80       0.1712
     35  C        -11.4850  -49.7000   34.8500 C.2    80  CYS80       0.2296
     36  O        -10.8700  -49.0210   34.0360 O.2    80  CYS80      -0.2864
     37  CB       -13.3540  -49.2630   36.3830 C.3    80  CYS80       0.0983
     38  SG       -14.2390  -48.9980   34.8320 S.3    80  CYS80      -0.0798
     39  N        -13.1670  -52.7610   31.7250 N.3    82  MET82      -0.1245
     40  CA       -14.4400  -52.9960   31.0470 C.3    82  MET82       0.1570
     41  C        -14.2530  -54.0240   29.9430 C.2    82  MET82       0.2261
     42  O        -13.4500  -53.8360   29.0270 O.2    82  MET82      -0.2867
     43  CB       -14.9670  -51.6820   30.4680 C.3    82  MET82       0.0387
     44  CG       -16.4460  -51.6630   30.1590 C.3    82  MET82       0.0595
     45  SD       -17.0130  -49.9620   29.9390 S.3    82  MET82      -0.1393
     46  CE       -17.9900  -49.7110   31.4380 C.3    82  MET82       0.0692
     47  N        -21.9400  -51.0830   27.9510 N.3    87  VAL87      -0.1231
     48  CA       -22.0760  -50.0390   26.9430 C.3    87  VAL87       0.1692
     49  C        -21.4110  -48.7700   27.4680 C.2    87  VAL87       0.2592
     50  O        -21.5700  -48.4210   28.6380 O.2    87  VAL87      -0.2718
     51  CB       -23.5620  -49.7390   26.6740 C.3    87  VAL87       0.0266
     52  CG1      -23.6920  -48.6220   25.6750 C.3    87  VAL87       0.0020
     53  CG2      -24.2610  -50.9890   26.1760 C.3    87  VAL87       0.0020
     54  N        -20.6680  -48.0710   26.6190 N.am   88  PHE88      -0.1962
     55  CA       -20.0140  -46.8550   27.0770 C.3    88  PHE88       0.1771
     56  C        -19.9910  -45.7560   26.0290 C.2    88  PHE88       0.2620
     57  O        -20.0090  -46.0190   24.8230 O.2    88  PHE88      -0.2715
     58  CB       -18.5870  -47.1670   27.5470 C.3    88  PHE88       0.0574
     59  CG       -17.6630  -47.6260   26.4480 C.ar   88  PHE88      -0.0200
     60  CD1      -16.9100  -46.7050   25.7230 C.ar   88  PHE88      -0.0042
     61  CD2      -17.5560  -48.9780   26.1320 C.ar   88  PHE88      -0.0042
     62  CE1      -16.0660  -47.1240   24.6990 C.ar   88  PHE88      -0.0003
     63  CE2      -16.7140  -49.4080   25.1080 C.ar   88  PHE88      -0.0003
     64  CZ       -15.9690  -48.4800   24.3920 C.ar   88  PHE88      -0.0000
     65  N        -19.9520  -44.5190   26.5140 N.am   89  GLY89      -0.1940
     66  CA       -19.9250  -43.3680   25.6380 C.3    89  GLY89       0.2014
     67  C        -21.3050  -42.7950   25.4070 C.2    89  GLY89       0.2639
     68  O        -21.4410  -41.7370   24.7900 O.2    89  GLY89      -0.2714
     69  N        -22.3320  -43.4840   25.9010 N.am   90  GLU90      -0.1963
     70  CA       -23.7040  -43.0250   25.7240 C.3    90  GLU90       0.1733
     71  C        -24.0040  -41.7430   26.4910 C.2    90  GLU90       0.2616
     72  O        -24.6810  -40.8500   25.9810 O.2    90  GLU90      -0.2715
     73  CB       -24.6960  -44.1050   26.1530 C.3    90  GLU90       0.0429
     74  CG       -24.7450  -44.3830   27.6440 C.3    90  GLU90       0.1163
     75  CD       -23.9170  -45.5930   28.0510 C.2    90  GLU90       0.3649
     76  OE1      -23.9200  -45.9440   29.2530 O.co2  90  GLU90      -0.2457
     77  OE2      -23.2650  -46.1960   27.1700 O.co2  90  GLU90      -0.2457
     78  N        -23.4880  -41.6520   27.7120 N.am   91  LEU91      -0.1963
     79  CA       -23.7150  -40.4940   28.5750 C.3    91  LEU91       0.1728
     80  C        -23.5750  -39.1240   27.9040 C.2    91  LEU91       0.2616
     81  O        -24.3810  -38.2270   28.1490 O.2    91  LEU91      -0.2715
     82  CB       -22.7950  -40.5770   29.8010 C.3    91  LEU91       0.0311
     83  CG       -23.0750  -41.6610   30.8600 C.3    91  LEU91       0.0022
     84  CD1      -23.2530  -43.0350   30.2100 C.3    91  LEU91       0.0001
     85  CD2      -21.9180  -41.6950   31.8570 C.3    91  LEU91       0.0001
     86  N        -22.5640  -38.9580   27.0570 N.am   92  ALA92      -0.1977
     87  CA       -22.3520  -37.6840   26.3720 C.3    92  ALA92       0.1597
     88  C        -23.4980  -37.3660   25.4080 C.2    92  ALA92       0.2287
     89  O        -23.9090  -36.2130   25.2670 O.2    92  ALA92      -0.2864
     90  CB       -21.0330  -37.7160   25.6160 C.3    92  ALA92       0.0319
     91  N        -17.9000  -35.3350   26.7970 N.3    99  ARG99      -0.1231
     92  CA       -17.3180  -36.5600   27.3310 C.3    99  ARG99       0.1694
     93  C        -16.9090  -36.3320   28.7800 C.2    99  ARG99       0.2593
     94  O        -16.1420  -35.4190   29.0760 O.2    99  ARG99      -0.2718
     95  CB       -16.1030  -36.9700   26.5010 C.3    99  ARG99       0.0321
     96  CG       -16.4120  -37.2430   25.0370 C.3    99  ARG99       0.0489
     97  CD       -17.4560  -38.3360   24.8850 C.3    99  ARG99       0.2205
     98  NE       -17.4670  -38.8990   23.5390 N.pl3  99  ARG99      -0.0865
     99  CZ       -18.3150  -39.8380   23.1310 C.cat  99  ARG99       0.5346
    100  NH1      -18.2520  -40.2990   21.8870 N.pl3  99  ARG99       0.1354
    101  NH2      -19.2330  -40.3130   23.9630 N.pl3  99  ARG99       0.1354
    102  N        -17.4400  -37.1440   29.6860 N.am  100  THR100     -0.1939
    103  CA       -17.1200  -36.9850   31.1000 C.3   100  THR100      0.2028
    104  C        -15.8000  -37.6370   31.4540 C.2   100  THR100      0.2642
    105  O        -14.9150  -36.9850   32.0030 O.2   100  THR100     -0.2714
    106  CB       -18.2150  -37.5830   32.0070 C.3   100  THR100      0.1808
    107  OG1      -18.3850  -38.9760   31.7090 O.3   100  THR100     -0.2208
    108  CG2      -19.5260  -36.8420   31.8090 C.3   100  THR100      0.0379
    109  N        -15.6750  -38.9220   31.1380 N.am  101  ALA101     -0.1977
    110  CA       -14.4580  -39.6700   31.4270 C.3   101  ALA101      0.1597
    111  C        -13.4080  -39.4830   30.3310 C.2   101  ALA101      0.2287
    112  O        -13.3720  -38.4470   29.6700 O.2   101  ALA101     -0.2864
    113  CB       -14.7860  -41.1460   31.5910 C.3   101  ALA101      0.0319
    114  N        -11.8750  -42.6980   28.3410 N.3   103  VAL103     -0.1245
    115  CA       -11.5140  -44.0690   28.0000 C.3   103  VAL103      0.1561
    116  C        -10.2240  -44.1990   27.1910 C.2   103  VAL103      0.2260
    117  O         -9.8270  -43.2800   26.4720 O.2   103  VAL103     -0.2867
    118  CB       -12.6440  -44.7570   27.2050 C.3   103  VAL103      0.0252
    119  CG1      -12.2640  -46.1940   26.8770 C.3   103  VAL103      0.0019
    120  CG2      -13.9260  -44.7220   28.0050 C.3   103  VAL103      0.0019
@<TRIPOS>BOND
     1   100    99    1
     2    99    98    2
     3    99   101    1
     4    98    97    1
     5     1     2    1
     6     6     8    1
     7     6     5    1
     8     2     5    1
     9     2     3    1
    10    64    62   ar
    11    64    63   ar
    12    62    60   ar
    13    68    67    2
    14    57    56    2
    15    97    96    1
    16     5     7    1
    17    96    95    1
    18    63    61   ar
    19     3     4    2
    20    89    88    2
    21    67    66    1
    22    67    69   am
    23    88    87    1
    24    90    87    1
    25    66    65    1
    26    52    51    1
    27    60    59   ar
    28    70    69    1
    29    70    73    1
    30    70    71    1
    31    72    71    2
    32    56    65   am
    33    56    55    1
    34    61    59   ar
    35    73    74    1
    36    53    51    1
    37    87    86    1
    38    59    58    1
    39   117   116    2
    40    71    78   am
    41    95    92    1
    42    54    55    1
    43    54    49   am
    44    51    48    1
    45    91    92    1
    46   119   118    1
    47    48    49    1
    48    48    47    1
    49    86    80   am
    50    55    58    1
    51    77    75   ar
    52   116   115    1
    53   118   115    1
    54   118   120    1
    55    92    93    1
    56    49    50    2
    57    74    75    1
    58    78    79    1
    59    80    81    2
    60    80    79    1
    61   115   114    1
    62    75    76   ar
    63    79    82    1
    64    93    94    2
    65    93   102   am
    66    42    41    2
    67   112   111    2
    68   102   103    1
    69    82    83    1
    70    45    44    1
    71    45    46    1
    72    41    40    1
    73    44    43    1
    74    84    83    1
    75   111   110    1
    76    43    40    1
    77    83    85    1
    78    40    39    1
    79   103   104    1
    80   103   106    1
    81   109   110    1
    82   109   104   am
    83    15    13    1
    84   110   113    1
    85   104   105    2
    86     9    10    1
    87    10    13    1
    88    10    11    1
    89   107   106    1
    90   108   106    1
    91    14    13    1
    92    11    12    2
    93    19    18    2
    94    16    17    1
    95    17    18    1
    96    17    20    1
    97    36    35    2
    98    38    37    1
    99    35    34    1
   100    21    22    1
   101    21    20    1
   102    22    23    1
   103    23    24    1
   104    34    37    1
   105    34    33    1
   106    33    27   am
   107    25    26    1
   108    27    28    2
   109    27    26    1
   110    29    26    1
   111    29    30    1
   112    31    30    1
   113    30    32    1
