@<TRIPOS>MOLECULE
tmp/3shvA00.pdb
 138 135 0 0 0
SMALL
GASTEIGER

@<TRIPOS>ATOM
      1  N         44.1000    1.7820   19.3110 N.3     8  MET8       -0.1230
      2  CA        43.3990    0.4950   19.1660 C.3     8  MET8        0.1702
      3  C         41.9980    0.7200   18.7180 C.2     8  MET8        0.2593
      4  O         41.3540    1.7050   19.1380 O.2     8  MET8       -0.2718
      5  CB        43.3600   -0.2510   20.5020 C.3     8  MET8        0.0401
      6  CG        44.7140   -0.6300   20.9550 C.3     8  MET8        0.0596
      7  SD        44.8290   -1.1280   22.7500 S.3     8  MET8       -0.1393
      8  CE        44.2190    0.2790   23.7080 C.3     8  MET8        0.0692
      9  N         41.5080   -0.1580   17.8500 N.am    9  THR9       -0.1939
     10  CA        40.1560    0.0170   17.3810 C.3     9  THR9        0.2028
     11  C         39.5310   -1.3810   17.2230 C.2     9  THR9        0.2643
     12  O         40.2500   -2.3330   16.9170 O.2     9  THR9       -0.2714
     13  CB        40.1190    0.8710   16.0550 C.3     9  THR9        0.1808
     14  OG1       38.7570    1.1150   15.7120 O.3     9  THR9       -0.2208
     15  CG2       40.7910    0.1350   14.8880 C.3     9  THR9        0.0379
     16  N         38.2310   -1.5110   17.4880 N.am   10  SER10      -0.1935
     17  CA        37.5350   -2.8130   17.4970 C.3    10  SER10       0.2055
     18  C         38.3140   -3.8570   18.3170 C.2    10  SER10       0.2642
     19  O         38.4790   -5.0010   17.8950 O.2    10  SER10      -0.2714
     20  CB        37.3290   -3.3210   16.0630 C.3    10  SER10       0.2130
     21  OG        36.5620   -2.3760   15.2990 O.3    10  SER10      -0.2179
     22  N         38.8400   -3.4340   19.4630 N.am   11  MET11      -0.1976
     23  CA        39.7880   -4.2540   20.2180 C.3    11  MET11       0.1605
     24  C         39.0220   -4.7410   21.4550 C.2    11  MET11       0.2287
     25  O         38.6700   -3.9270   22.2930 O.2    11  MET11      -0.2864
     26  CB        40.9970   -3.4170   20.6540 C.3    11  MET11       0.0413
     27  CG        42.3190   -4.2060   21.0670 C.3    11  MET11       0.0598
     28  SD        42.8750   -5.2780   19.7250 S.3    11  MET11      -0.1393
     29  CE        43.7850   -4.0960   18.6980 C.3    11  MET11       0.0692
     30  N         43.5730    7.3660   22.6510 N.3    33  PRO33      -0.2102
     31  CA        42.2310    6.8200   22.5280 C.3    33  PRO33       0.1504
     32  C         41.6960    6.8670   21.0880 C.2    33  PRO33       0.2575
     33  O         40.8700    6.0060   20.7130 O.2    33  PRO33      -0.2718
     34  CB        41.3740    7.7360   23.4120 C.3    33  PRO33       0.0282
     35  CG        42.3050    8.6400   24.0690 C.3    33  PRO33       0.0208
     36  CD        43.6360    8.5850   23.4660 C.3    33  PRO33       0.0893
     37  N         42.1270    7.8530   20.3080 N.am   34  ASP34      -0.1974
     38  CA        41.5820    8.0020   18.9310 C.3    34  ASP34       0.1708
     39  C         42.6450    8.5780   18.0090 C.2    34  ASP34       0.2293
     40  O         43.5770    9.2790   18.4410 O.2    34  ASP34      -0.2864
     41  CB        40.3490    8.9480   18.8700 C.3    34  ASP34       0.1436
     42  CG        39.1520    8.4610   19.6910 C.2    34  ASP34       0.3671
     43  OD1       38.3990    7.5630   19.2200 O.co2  34  ASP34      -0.2456
     44  OD2       38.9240    9.0230   20.8160 O.co2  34  ASP34      -0.2456
     45  N         38.3570   -6.5400   11.6470 N.3    47  PRO47      -0.2102
     46  CA        38.5180   -5.5580   10.5830 C.3    47  PRO47       0.1504
     47  C         37.2110   -4.8250   10.2290 C.2    47  PRO47       0.2576
     48  O         36.6220   -5.0540    9.1650 O.2    47  PRO47      -0.2718
     49  CB        39.0310   -6.4100    9.4220 C.3    47  PRO47       0.0282
     50  CG        38.3910   -7.7370    9.6440 C.3    47  PRO47       0.0208
     51  CD        38.4210   -7.9290   11.1440 C.3    47  PRO47       0.0893
     52  N         36.7670   -3.9700   11.1420 N.am   48  LEU48      -0.1966
     53  CA        35.5470   -3.2370   10.9910 C.3    48  LEU48       0.1728
     54  C         35.9740   -1.8620   10.5860 C.2    48  LEU48       0.2616
     55  O         37.0320   -1.3800   11.0030 O.2    48  LEU48      -0.2715
     56  CB        34.7560   -3.1800   12.3090 C.3    48  LEU48       0.0311
     57  CG        34.2210   -4.5060   12.8200 C.3    48  LEU48       0.0022
     58  CD1       33.4470   -4.2930   14.1360 C.3    48  LEU48       0.0001
     59  CD2       33.3300   -5.1770   11.7500 C.3    48  LEU48       0.0001
     60  N         35.1600   -1.2370    9.7490 N.am   49  ARG49      -0.1963
     61  CA        35.4570    0.1020    9.2610 C.3    49  ARG49       0.1729
     62  C         34.9910    1.1080   10.2940 C.2    49  ARG49       0.2617
     63  O         33.9150    1.7110   10.1600 O.2    49  ARG49      -0.2715
     64  CB        34.7710    0.3790    7.8960 C.3    49  ARG49       0.0348
     65  CG        35.2590    1.6950    7.3020 C.3    49  ARG49       0.0492
     66  CD        34.7770    1.9230    5.8690 C.3    49  ARG49       0.2205
     67  NE        33.3310    2.0830    5.8130 N.pl3  49  ARG49      -0.0865
     68  CZ        32.6710    2.3110    4.6850 C.cat  49  ARG49       0.5346
     69  NH1       31.3580    2.4710    4.7000 N.pl3  49  ARG49       0.1354
     70  NH2       33.3520    2.3570    3.5390 N.pl3  49  ARG49       0.1354
     71  N         35.8040    1.3140   11.3160 N.am   50  THR50      -0.1937
     72  CA        35.4810    2.3160   12.3470 C.3    50  THR50       0.2028
     73  C         35.9990    3.6800   11.9620 C.2    50  THR50       0.2642
     74  O         36.8190    3.8190   11.0330 O.2    50  THR50      -0.2714
     75  CB        36.1630    1.9800   13.6670 C.3    50  THR50       0.1808
     76  OG1       37.5560    1.8690   13.4470 O.3    50  THR50      -0.2208
     77  CG2       35.6190    0.6990   14.2300 C.3    50  THR50       0.0379
     78  N         35.5530    4.7020   12.6860 N.am   51  LEU51      -0.1963
     79  CA        36.1040    6.0210   12.4760 C.3    51  LEU51       0.1728
     80  C         37.6250    6.0820   12.6020 C.2    51  LEU51       0.2616
     81  O         38.2970    6.7670   11.8060 O.2    51  LEU51      -0.2715
     82  CB        35.4520    7.0570   13.3910 C.3    51  LEU51       0.0311
     83  CG        35.9270    8.4930   13.2060 C.3    51  LEU51       0.0022
     84  CD1       35.7110    9.0100   11.7350 C.3    51  LEU51       0.0001
     85  CD2       35.2190    9.4240   14.2400 C.3    51  LEU51       0.0001
     86  N         38.1830    5.3360   13.5660 N.am   52  ASN52      -0.1972
     87  CA        39.6360    5.3040   13.6970 C.3    52  ASN52       0.1688
     88  C         40.3030    4.6400   12.5070 C.2    52  ASN52       0.2292
     89  O         41.3920    5.0380   12.1370 O.2    52  ASN52      -0.2864
     90  CB        40.0990    4.6190   15.0160 C.3    52  ASN52       0.1181
     91  CG        39.9940    5.5690   16.2400 C.2    52  ASN52       0.2629
     92  OD1       40.3620    6.7610   16.1440 O.2    52  ASN52      -0.2716
     93  ND2       39.5230    5.0440   17.3800 N.am   52  ASN52      -0.0877
     94  N         39.1640    4.7720    9.4280 N.3    54  LEU54      -0.1245
     95  CA        39.0150    5.8010    8.3760 C.3    54  LEU54       0.1561
     96  C         40.0200    6.8970    8.5300 C.2    54  LEU54       0.2260
     97  O         40.6640    7.3270    7.5520 O.2    54  LEU54      -0.2867
     98  CB        37.5910    6.3610    8.3700 C.3    54  LEU54       0.0270
     99  CG        36.6520    5.3030    7.7870 C.3    54  LEU54       0.0019
    100  CD1       35.2750    5.5930    8.2700 C.3    54  LEU54       0.0001
    101  CD2       36.6650    5.3650    6.1930 C.3    54  LEU54       0.0001
    102  N         26.4950   11.6230   10.1390 N.3   125  SER125     -0.1203
    103  CA        27.1710   10.5260   10.7950 C.3   125  SER125      0.2005
    104  C         28.1420    9.8530    9.7880 C.2   125  SER125      0.2461
    105  O         27.7140    9.4300    8.7260 O.2   125  SER125     -0.2732
    106  CB        26.1450    9.5290   11.2870 C.3   125  SER125      0.2103
    107  OG        26.8180    8.4910   11.9730 O.3   125  SER125     -0.2182
    108  N         29.4390    9.7480   10.1190 N.am  126  PRO126     -0.2718
    109  CA        30.1300   10.1620   11.3520 C.3   126  PRO126      0.1520
    110  C         30.0130   11.6590   11.5940 C.2   126  PRO126      0.2440
    111  O         29.7040   12.3960   10.6610 O.2   126  PRO126     -0.2731
    112  CB        31.5940    9.7900   11.0870 C.3   126  PRO126      0.0310
    113  CG        31.6740    9.5970    9.5640 C.3   126  PRO126      0.0237
    114  CD        30.3460    9.1110    9.1610 C.3   126  PRO126      0.0939
    115  N         30.2820   12.1040   12.8380 N.am  127  PRO127     -0.2727
    116  CA        29.9830   13.4680   13.2250 C.3   127  PRO127      0.1402
    117  C         30.7090   14.4660   12.3290 C.2   127  PRO127      0.2269
    118  O         31.8570   14.2270   11.9130 O.2   127  PRO127     -0.2865
    119  CB        30.4990   13.5590   14.6850 C.3   127  PRO127      0.0296
    120  CG        30.4270   12.1170   15.2060 C.3   127  PRO127      0.0237
    121  CD        30.8330   11.3060   13.9610 C.3   127  PRO127      0.0939
    122  N         28.2840    7.9170    3.2080 N.3   170  LYS170     -0.1245
    123  CA        28.9180    6.7470    2.6870 C.3   170  LYS170      0.1561
    124  C         29.7140    6.9680    1.3940 C.2   170  LYS170      0.2260
    125  O         30.6580    6.2820    1.1370 O.2   170  LYS170     -0.2867
    126  CB        27.9380    5.6170    2.5570 C.3   170  LYS170      0.0271
    127  CG        27.8810    4.7640    3.7330 C.3   170  LYS170      0.0035
    128  CD        27.0040    3.5670    3.4850 C.3   170  LYS170      0.0206
    129  CE        27.5980    2.2200    4.0290 C.3   170  LYS170      0.1093
    130  NZ        28.5540    1.4880    3.1390 N.3   170  LYS170     -0.1314
    131  N         33.0920    7.8620    2.5840 N.3   173  LEU173     -0.1245
    132  CA        33.7840    6.7550    3.2980 C.3   173  LEU173      0.1561
    133  C         34.1640    5.6040    2.3540 C.2   173  LEU173      0.2260
    134  O         35.2560    5.0500    2.4530 O.2   173  LEU173     -0.2867
    135  CB        32.9160    6.2130    4.4490 C.3   173  LEU173      0.0270
    136  CG        32.3020    7.2550    5.3780 C.3   173  LEU173      0.0019
    137  CD1       31.4950    6.5760    6.4680 C.3   173  LEU173      0.0001
    138  CD2       33.3410    8.2230    5.9600 C.3   173  LEU173      0.0001
@<TRIPOS>BOND
     1   125   124    2
     2   124   123    1
     3   133   134    2
     4   133   132    1
     5   126   123    1
     6   126   127    1
     7   131   132    1
     8   123   122    1
     9   130   129    1
    10   132   135    1
    11   128   127    1
    12   128   129    1
    13    70    68    1
    14   135   136    1
    15    68    69    1
    16    68    67    2
    17   136   138    1
    18   136   137    1
    19    67    66    1
    20    66    65    1
    21   101    99    1
    22    65    64    1
    23    97    96    2
    24    99   100    1
    25    99    98    1
    26    64    61    1
    27    98    95    1
    28    95    96    1
    29    95    94    1
    30   105   104    2
    31   114   113    1
    32   114   108    1
    33    48    47    2
    34    61    60    1
    35    61    62    1
    36    49    50    1
    37    49    46    1
    38   113   112    1
    39    50    51    1
    40    60    54   am
    41   104   108   am
    42   104   103    1
    43   108   109    1
    44   102   103    1
    45    63    62    2
    46    47    46    1
    47    47    52   am
    48    62    71   am
    49    46    45    1
    50    54    53    1
    51    54    55    2
    52   111   110    2
    53   103   106    1
    54    53    52    1
    55    53    56    1
    56    74    73    2
    57   112   109    1
    58    51    45    1
    59   106   107    1
    60    71    72    1
    61   109   110    1
    62   110   115   am
    63    84    83    1
    64    59    57    1
    65    81    80    2
    66   118   117    2
    67    73    72    1
    68    73    78   am
    69    89    88    2
    70    56    57    1
    71   117   116    1
    72    72    75    1
    73    79    80    1
    74    79    78    1
    75    79    82    1
    76    88    87    1
    77    80    86   am
    78    57    58    1
    79   115   116    1
    80   115   121    1
    81    83    82    1
    82    83    85    1
    83   116   119    1
    84    76    75    1
    85    86    87    1
    86    75    77    1
    87    87    90    1
    88   121   120    1
    89   119   120    1
    90    15    13    1
    91    90    91    1
    92    21    20    1
    93    14    13    1
    94    13    10    1
    95    20    17    1
    96    92    91    2
    97    91    93   am
    98    12    11    2
    99    11    10    1
   100    11    16   am
   101    10     9    1
   102    16    17    1
   103    17    18    1
   104     9     3   am
   105    19    18    2
   106    39    40    2
   107    39    38    1
   108    18    22   am
   109    29    28    1
   110     3     4    2
   111     3     2    1
   112    41    38    1
   113    41    42    1
   114    38    37    1
   115     2     1    1
   116     2     5    1
   117    43    42   ar
   118    22    23    1
   119    42    44   ar
   120    28    27    1
   121    23    26    1
   122    23    24    1
   123    37    32   am
   124     5     6    1
   125    26    27    1
   126    33    32    2
   127     6     7    1
   128    32    31    1
   129    24    25    2
   130    31    30    1
   131    31    34    1
   132    30    36    1
   133     7     8    1
   134    34    35    1
   135    36    35    1
