@<TRIPOS>MOLECULE
tmp/3shwA00.pdb
 143 135 0 0 0
SMALL
GASTEIGER

@<TRIPOS>ATOM
      1  N         20.4650  -29.3560    9.5810 N.3     9  LYS9       -0.1245
      2  CA        21.4620  -29.1320    8.5450 C.3     9  LYS9        0.1561
      3  C         22.8380  -29.4970    9.0990 C.2     9  LYS9        0.2260
      4  O         23.2360  -29.0150   10.1610 O.2     9  LYS9       -0.2867
      5  CB        21.4220  -27.6650    8.0940 C.3     9  LYS9        0.0271
      6  CG        22.3940  -27.2950    6.9630 C.3     9  LYS9        0.0035
      7  CD        22.4670  -25.7810    6.7920 C.3     9  LYS9        0.0206
      8  CE        23.1600  -25.3730    5.4910 C.3     9  LYS9        0.1093
      9  NZ        24.6390  -25.5030    5.5670 N.3     9  LYS9       -0.1314
     10  N         26.2640  -29.2580    5.0500 N.3    12  SER12      -0.1202
     11  CA        25.4970  -28.8500    3.8870 C.3    12  SER12       0.2020
     12  C         24.0970  -29.4380    4.0260 C.2    12  SER12       0.2619
     13  O         23.8630  -30.2670    4.8990 O.2    12  SER12      -0.2717
     14  CB        26.1760  -29.3530    2.6020 C.3    12  SER12       0.2103
     15  OG        25.7010  -30.6400    2.2200 O.3    12  SER12      -0.2182
     16  N         23.1680  -29.0020    3.1790 N.am   13  VAL13      -0.1965
     17  CA        21.8420  -29.6270    3.1030 C.3    13  VAL13       0.1727
     18  C         21.8370  -30.8050    2.1210 C.2    13  VAL13       0.2617
     19  O         20.8140  -31.4640    1.9340 O.2    13  VAL13      -0.2715
     20  CB        20.7130  -28.6120    2.7330 C.3    13  VAL13       0.0290
     21  CG1       20.5690  -27.5350    3.8020 C.3    13  VAL13       0.0023
     22  CG2       20.9680  -27.9690    1.3790 C.3    13  VAL13       0.0023
     23  N         22.9910  -31.0600    1.5060 N.am   14  GLY14      -0.1940
     24  CA        23.1430  -32.1100    0.5010 C.3    14  GLY14       0.2014
     25  C         22.1450  -31.9880   -0.6360 C.2    14  GLY14       0.2639
     26  O         21.3850  -32.9170   -0.9030 O.2    14  GLY14      -0.2714
     27  N         22.1450  -30.8330   -1.3000 N.am   15  LEU15      -0.1963
     28  CA        21.2520  -30.5890   -2.4350 C.3    15  LEU15       0.1728
     29  C         21.9200  -29.8480   -3.5780 C.2    15  LEU15       0.2616
     30  O         22.8860  -29.1040   -3.3840 O.2    15  LEU15      -0.2715
     31  CB        20.0100  -29.8100   -2.0060 C.3    15  LEU15       0.0311
     32  CG        18.8890  -30.5520   -1.2920 C.3    15  LEU15       0.0022
     33  CD1       17.9510  -29.5360   -0.6810 C.3    15  LEU15       0.0001
     34  CD2       18.1470  -31.4870   -2.2420 C.3    15  LEU15       0.0001
     35  N         21.3730  -30.0710   -4.7680 N.am   16  ARG16      -0.1963
     36  CA        21.7430  -29.3640   -5.9780 C.3    16  ARG16       0.1729
     37  C         20.4470  -28.8840   -6.6090 C.2    16  ARG16       0.2616
     38  O         19.4750  -29.6350   -6.7230 O.2    16  ARG16      -0.2715
     39  CB        22.4960  -30.2970   -6.9230 C.3    16  ARG16       0.0348
     40  CG        22.9820  -29.6470   -8.2090 C.3    16  ARG16       0.0492
     41  CD        23.6470  -30.6740   -9.1170 C.3    16  ARG16       0.2205
     42  NE        22.7090  -31.6910   -9.5980 N.pl3  16  ARG16      -0.0865
     43  CZ        23.0630  -32.7840  -10.2700 C.cat  16  ARG16       0.5346
     44  NH1       24.3400  -33.0200  -10.5500 N.pl3  16  ARG16       0.1354
     45  NH2       22.1370  -33.6480  -10.6630 N.pl3  16  ARG16       0.1354
     46  N         20.4360  -27.6170   -7.0030 N.am   17  LEU17      -0.1977
     47  CA        19.2270  -26.9550   -7.4810 C.3    17  LEU17       0.1596
     48  C         19.2490  -26.7380   -8.9890 C.2    17  LEU17       0.2287
     49  O         20.3170  -26.5160   -9.5840 O.2    17  LEU17      -0.2864
     50  CB        19.0760  -25.6090   -6.7860 C.3    17  LEU17       0.0297
     51  CG        18.3730  -25.4720   -5.4370 C.3    17  LEU17       0.0022
     52  CD1       18.2540  -26.7660   -4.6420 C.3    17  LEU17       0.0001
     53  CD2       19.0640  -24.3920   -4.6300 C.3    17  LEU17       0.0001
     54  N         19.2410  -32.9520   -7.6560 N.3    29  GLY29      -0.1210
     55  CA        19.9740  -34.0690   -7.0810 C.3    29  GLY29       0.1956
     56  C         20.0140  -34.0230   -5.5690 C.2    29  GLY29       0.2612
     57  O         20.0850  -32.9470   -4.9700 O.2    29  GLY29      -0.2717
     58  N         19.9540  -35.2030   -4.9550 N.am   30  VAL30      -0.1965
     59  CA        20.1210  -35.3440   -3.5100 C.3    30  VAL30       0.1727
     60  C         21.4400  -36.0550   -3.2630 C.2    30  VAL30       0.2616
     61  O         22.1080  -36.4700   -4.2130 O.2    30  VAL30      -0.2715
     62  CB        18.9810  -36.1600   -2.8490 C.3    30  VAL30       0.0290
     63  CG1       18.6820  -35.6130   -1.4580 C.3    30  VAL30       0.0023
     64  CG2       17.7140  -36.1500   -3.7020 C.3    30  VAL30       0.0023
     65  N         21.8210  -36.1820   -1.9950 N.am   31  LEU31      -0.1977
     66  CA        22.9990  -36.9600   -1.6320 C.3    31  LEU31       0.1596
     67  C         22.5540  -38.2340   -0.9120 C.2    31  LEU31       0.2287
     68  O         21.7660  -38.1680    0.0370 O.2    31  LEU31      -0.2864
     69  CB        23.9590  -36.1230   -0.7780 C.3    31  LEU31       0.0297
     70  CG        25.4570  -36.2680   -1.0910 C.3    31  LEU31       0.0022
     71  CD1       25.8130  -35.7370   -2.4850 C.3    31  LEU31       0.0001
     72  CD2       26.3120  -35.5780   -0.0330 C.3    31  LEU31       0.0001
     73  N         17.4990  -18.4650   -8.8830 N.3    60  ARG60      -0.1245
     74  CA        18.2470  -19.6170   -8.4010 C.3    60  ARG60       0.1563
     75  C         19.3900  -19.1900   -7.4750 C.2    60  ARG60       0.2260
     76  O         19.5770  -19.7880   -6.4220 O.2    60  ARG60      -0.2867
     77  CB        18.7310  -20.4940   -9.5490 C.3    60  ARG60       0.0307
     78  CG        19.5240  -21.7300   -9.1190 C.3    60  ARG60       0.0489
     79  CD        19.3990  -22.8760  -10.1270 C.3    60  ARG60       0.2205
     80  NE        19.5020  -22.4170  -11.5130 N.pl3  60  ARG60      -0.0865
     81  CZ        20.6360  -22.3640  -12.1940 C.cat  60  ARG60       0.5346
     82  NH1       21.7670  -22.7540  -11.6300 N.pl3  60  ARG60       0.1354
     83  NH2       20.6400  -21.9210  -13.4400 N.pl3  60  ARG60       0.1354
     84  N         20.1130  -20.7520   -3.8730 N.3    64  VAL64      -0.1245
     85  CA        21.3940  -21.3370   -3.5090 C.3    64  VAL64       0.1561
     86  C         21.9870  -20.6290   -2.2930 C.2    64  VAL64       0.2260
     87  O         22.3130  -21.2850   -1.3170 O.2    64  VAL64      -0.2867
     88  CB        22.3850  -21.3530   -4.6860 C.3    64  VAL64       0.0252
     89  CG1       23.7730  -21.7420   -4.2040 C.3    64  VAL64       0.0019
     90  CG2       21.9090  -22.3230   -5.7400 C.3    64  VAL64       0.0019
     91  N         20.0780  -21.2280    1.1180 N.3    67  LEU67      -0.1231
     92  CA        20.2660  -22.5550    1.6960 C.3    67  LEU67       0.1693
     93  C         21.6790  -22.7190    2.2180 C.2    67  LEU67       0.2591
     94  O         21.8960  -23.4080    3.2110 O.2    67  LEU67      -0.2718
     95  CB        19.9580  -23.6460    0.6730 C.3    67  LEU67       0.0284
     96  CG        18.5070  -23.7780    0.2110 C.3    67  LEU67       0.0019
     97  CD1       18.4470  -24.5440   -1.0940 C.3    67  LEU67       0.0001
     98  CD2       17.6500  -24.4460    1.2760 C.3    67  LEU67       0.0001
     99  N         22.6330  -22.0850    1.5450 N.am   68  LEU68      -0.1980
    100  CA        24.0090  -22.0330    2.0140 C.3    68  LEU68       0.1596
    101  C         24.0540  -21.3610    3.3830 C.2    68  LEU68       0.2287
    102  O         24.6380  -21.8940    4.3260 O.2    68  LEU68      -0.2864
    103  CB        24.8610  -21.2430    1.0250 C.3    68  LEU68       0.0297
    104  CG        26.4020  -21.2600    1.3640 C.3    68  LEU68       0.0022
    105  CD1       26.8980  -22.5140    2.0670 C.3    68  LEU68       0.0001
    106  CD2       27.2480  -20.9560    0.1380 C.3    68  LEU68       0.0001
    107  N         23.1680  -18.2320  -12.0360 N.3   129  LEU129     -0.1245
    108  CA        24.1900  -19.0570  -11.4580 C.3   129  LEU129      0.1561
    109  C         24.8540  -19.7300  -12.6440 C.2   129  LEU129      0.2260
    110  O         24.8870  -20.9590  -12.7470 O.2   129  LEU129     -0.2867
    111  CB        23.5420  -20.0840  -10.5360 C.3   129  LEU129      0.0270
    112  CG        24.1520  -20.3810   -9.1700 C.3   129  LEU129      0.0019
    113  CD1       23.6330  -21.7290   -8.7190 C.3   129  LEU129      0.0001
    114  CD2       25.6940  -20.3690   -9.1760 C.3   129  LEU129      0.0001
    115  N         26.7380  -21.5740  -15.2830 N.3   131  ASN131     -0.1225
    116  CA        27.6930  -22.6780  -15.2580 C.3   131  ASN131      0.1785
    117  C         27.9810  -23.1940  -13.8610 C.2   131  ASN131      0.2598
    118  O         29.0250  -23.7910  -13.6280 O.2   131  ASN131     -0.2718
    119  CB        29.0030  -22.3020  -15.9560 C.3   131  ASN131      0.1169
    120  CG        28.9840  -22.6060  -17.4380 C.2   131  ASN131      0.2627
    121  OD1       28.1680  -23.3990  -17.9160 O.2   131  ASN131     -0.2716
    122  ND2       29.8940  -21.9810  -18.1770 N.am  131  ASN131     -0.0877
    123  N         27.0460  -22.9710  -12.9430 N.am  132  GLY132     -0.1942
    124  CA        27.2020  -23.3820  -11.5520 C.3   132  GLY132      0.2014
    125  C         28.3100  -22.5960  -10.8800 C.2   132  GLY132      0.2639
    126  O         28.9280  -23.0570   -9.9120 O.2   132  GLY132     -0.2714
    127  N         28.5760  -21.4090  -11.4090 N.am  133  LYS133     -0.1963
    128  CA        29.6330  -20.5750  -10.8800 C.3   133  LYS133      0.1728
    129  C         29.0530  -19.2590  -10.4100 C.2   133  LYS133      0.2616
    130  O         28.6600  -18.4000  -11.2150 O.2   133  LYS133     -0.2715
    131  CB        30.7620  -20.3940  -11.9040 C.3   133  LYS133      0.0311
    132  CG        31.6800  -21.6170  -11.9500 C.3   133  LYS133      0.0038
    133  CD        32.6730  -21.6380  -13.1050 C.3   133  LYS133      0.0206
    134  CE        33.4890  -22.9370  -13.0170 C.3   133  LYS133      0.1093
    135  NZ        34.3710  -23.1810  -14.1880 N.3   133  LYS133     -0.1314
    136  N         28.9740  -19.1390   -9.0880 N.am  134  LEU134     -0.1977
    137  CA        28.5420  -17.9220   -8.4360 C.3   134  LEU134      0.1596
    138  C         29.3380  -16.7440   -8.9500 C.2   134  LEU134      0.2287
    139  O         30.5640  -16.7910   -9.0140 O.2   134  LEU134     -0.2864
    140  CB        28.7030  -18.0450   -6.9240 C.3   134  LEU134      0.0297
    141  CG        27.6080  -18.8340   -6.2110 C.3   134  LEU134      0.0022
    142  CD1       28.0610  -19.2510   -4.8150 C.3   134  LEU134      0.0001
    143  CD2       26.3110  -18.0330   -6.1570 C.3   134  LEU134      0.0001
@<TRIPOS>BOND
     1   122   120   am
     2   121   120    2
     3   120   119    1
     4   119   116    1
     5   115   116    1
     6   116   117    1
     7   135   134    1
     8   117   118    2
     9   117   123   am
    10    83    81    1
    11   133   134    1
    12   133   132    1
    13   123   124    1
    14   110   109    2
    15   109   108    1
    16    81    82    1
    17    81    80    2
    18   107   108    1
    19   132   131    1
    20   131   128    1
    21   124   125    1
    22    80    79    1
    23   108   111    1
    24   127   125   am
    25   127   128    1
    26   130   129    2
    27   125   126    2
    28   128   129    1
    29    45    43    1
    30    44    43    1
    31   111   112    1
    32   129   136   am
    33    43    42    2
    34    79    78    1
    35    42    41    1
    36    49    48    2
    37    77    78    1
    38    77    74    1
    39   114   112    1
    40   112   113    1
    41    41    40    1
    42   136   137    1
    43   139   138    2
    44    48    47    1
    45   138   137    1
    46    73    74    1
    47   137   140    1
    48    74    75    1
    49    40    39    1
    50    54    55    1
    51    47    46    1
    52    47    50    1
    53    75    76    2
    54    55    56    1
    55    46    37   am
    56   140   141    1
    57    39    36    1
    58    50    51    1
    59    38    37    2
    60    37    36    1
    61   141   143    1
    62   141   142    1
    63    36    35    1
    64    90    88    1
    65    56    57    2
    66    56    58   am
    67    51    52    1
    68    51    53    1
    69    58    59    1
    70    35    29   am
    71    88    89    1
    72    88    85    1
    73    61    60    2
    74    84    85    1
    75    64    62    1
    76    29    30    2
    77    29    28    1
    78    59    60    1
    79    59    62    1
    80    85    86    1
    81    60    65   am
    82    62    63    1
    83    71    70    1
    84    28    31    1
    85    28    27    1
    86    86    87    2
    87    34    32    1
    88    31    32    1
    89    65    66    1
    90    66    67    1
    91    66    69    1
    92    27    25   am
    93    32    33    1
    94    97    96    1
    95    70    69    1
    96    70    72    1
    97    67    68    2
    98    26    25    2
    99    25    24    1
   100   106   104    1
   101    96    95    1
   102    96    98    1
   103    24    23    1
   104    95    92    1
   105   103   104    1
   106   103   100    1
   107    91    92    1
   108   104   105    1
   109    22    20    1
   110    23    18   am
   111    99   100    1
   112    99    93   am
   113    92    93    1
   114    19    18    2
   115   100   101    1
   116    18    17    1
   117    93    94    2
   118    15    14    1
   119    14    11    1
   120    20    17    1
   121    20    21    1
   122    17    16    1
   123    16    12   am
   124   101   102    2
   125    11    12    1
   126    11    10    1
   127    12    13    2
   128     8     9    1
   129     8     7    1
   130     7     6    1
   131     6     5    1
   132     5     2    1
   133     2     3    1
   134     2     1    1
   135     3     4    2
