@<TRIPOS>MOLECULE
tmp/3si3B02.pdb
 126 126 0 0 0
SMALL
GASTEIGER

@<TRIPOS>ATOM
      1  N         22.5870   -5.5510   18.2600 N.3    43  HIS43      -0.1241
      2  CA        22.3970   -6.9130   17.7610 C.3    43  HIS43       0.1621
      3  C         21.6190   -6.9800   16.4400 C.2    43  HIS43       0.2264
      4  O         21.6110   -8.0190   15.7770 O.2    43  HIS43      -0.2867
      5  CB        21.7510   -7.8300   18.8120 C.3    43  HIS43       0.0745
      6  CG        20.2570   -7.7530   18.8470 C.ar   43  HIS43       0.0817
      7  ND1       19.5770   -6.9680   19.7470 N.ar   43  HIS43      -0.2268
      8  CD2       19.3140   -8.3550   18.0810 C.ar   43  HIS43       0.1154
      9  CE1       18.2770   -7.0760   19.5280 C.ar   43  HIS43       0.1986
     10  NE2       18.0910   -7.9200   18.5280 N.ar   43  HIS43      -0.2212
     11  N         25.8920   -9.5930   15.2360 N.3    47  TYR47      -0.1241
     12  CA        25.7080  -10.6990   16.1660 C.3    47  TYR47       0.1605
     13  C         26.4080  -11.9340   15.6050 C.2    47  TYR47       0.2264
     14  O         25.8020  -12.7790   14.9380 O.2    47  TYR47      -0.2867
     15  CB        24.2270  -10.9580   16.4560 C.3    47  TYR47       0.0534
     16  CG        24.0410  -11.8620   17.6450 C.ar   47  TYR47      -0.0201
     17  CD1       24.4540  -11.4670   18.9090 C.ar   47  TYR47      -0.0009
     18  CD2       23.4950  -13.1290   17.4980 C.ar   47  TYR47      -0.0009
     19  CE1       24.3090  -12.3110   20.0110 C.ar   47  TYR47       0.0417
     20  CE2       23.3450  -13.9730   18.5790 C.ar   47  TYR47       0.0417
     21  CZ        23.7560  -13.5580   19.8350 C.ar   47  TYR47       0.1957
     22  OH        23.6080  -14.4090   20.9050 O.3    47  TYR47      -0.2866
     23  N         25.2050  -15.6870   15.1760 N.3    50  TRP50      -0.1241
     24  CA        24.2820  -15.9730   14.0760 C.3    50  TRP50       0.1605
     25  C         24.8370  -15.5310   12.7210 C.2    50  TRP50       0.2264
     26  O         24.0790  -15.3370   11.7610 O.2    50  TRP50      -0.2867
     27  CB        22.9430  -15.2730   14.3200 C.3    50  TRP50       0.0550
     28  CG        22.1770  -15.7790   15.5070 C.ar   50  TRP50       0.0003
     29  CD1       22.4490  -16.8900   16.2500 C.ar   50  TRP50       0.0946
     30  CD2       21.0120  -15.1810   16.0890 C.ar   50  TRP50       0.0152
     31  NE1       21.5200  -17.0260   17.2580 N.ar   50  TRP50      -0.2442
     32  CE2       20.6280  -15.9890   17.1790 C.ar   50  TRP50       0.0810
     33  CE3       20.2560  -14.0450   15.7930 C.ar   50  TRP50       0.0012
     34  CZ2       19.5190  -15.6910   17.9740 C.ar   50  TRP50       0.0191
     35  CZ3       19.1540  -13.7500   16.5870 C.ar   50  TRP50       0.0001
     36  CH2       18.7990  -14.5720   17.6630 C.ar   50  TRP50       0.0015
     37  N         28.3080   -8.7420   22.7410 N.3    92  TRP92      -0.1241
     38  CA        27.5780   -9.7760   22.0180 C.3    92  TRP92       0.1605
     39  C         27.9870  -11.1730   22.4670 C.2    92  TRP92       0.2264
     40  O         27.3040  -12.1430   22.1650 O.2    92  TRP92      -0.2867
     41  CB        27.7790   -9.6410   20.5050 C.3    92  TRP92       0.0550
     42  CG        29.2150   -9.5690   20.0600 C.ar   92  TRP92       0.0003
     43  CD1       29.9380   -8.4370   19.8080 C.ar   92  TRP92       0.0946
     44  CD2       30.1000  -10.6720   19.8110 C.ar   92  TRP92       0.0152
     45  NE1       31.2150   -8.7660   19.4130 N.ar   92  TRP92      -0.2442
     46  CE2       31.3360  -10.1330   19.4020 C.ar   92  TRP92       0.0810
     47  CE3       29.9570  -12.0620   19.8720 C.ar   92  TRP92       0.0012
     48  CZ2       32.4270  -10.9350   19.0690 C.ar   92  TRP92       0.0191
     49  CZ3       31.0510  -12.8610   19.5450 C.ar   92  TRP92       0.0001
     50  CH2       32.2630  -12.2920   19.1470 C.ar   92  TRP92       0.0015
     51  N         28.2490  -12.4060   25.5920 N.3    94  GLU94      -0.1231
     52  CA        27.5810  -12.9280   26.7860 C.3    94  GLU94       0.1699
     53  C         26.0950  -12.6020   26.9060 C.2    94  GLU94       0.2592
     54  O         25.2530  -13.4950   26.8000 O.2    94  GLU94      -0.2718
     55  CB        28.2930  -12.4630   28.0600 C.3    94  GLU94       0.0402
     56  CG        27.6830  -13.0810   29.3150 C.3    94  GLU94       0.1161
     57  CD        28.1300  -12.4170   30.5980 C.2    94  GLU94       0.3649
     58  OE1       29.1310  -11.6710   30.5760 O.co2  94  GLU94      -0.2457
     59  OE2       27.4710  -12.6480   31.6350 O.co2  94  GLU94      -0.2457
     60  N         25.7740  -11.3280   27.1380 N.am   95  ASN95      -0.1960
     61  CA        24.4350  -10.9550   27.5980 C.3    95  ASN95       0.1819
     62  C         23.8200   -9.7360   26.9100 C.2    95  ASN95       0.2621
     63  O         22.8380   -9.1730   27.4010 O.2    95  ASN95      -0.2715
     64  CB        24.4560  -10.6990   29.1060 C.3    95  ASN95       0.1195
     65  CG        25.4160   -9.5940   29.4870 C.2    95  ASN95       0.2630
     66  OD1       26.1320   -9.0640   28.6350 O.2    95  ASN95      -0.2716
     67  ND2       25.4260   -9.2190   30.7610 N.am   95  ASN95      -0.0877
     68  N         24.4020   -9.3240   25.7870 N.am   96  LEU96      -0.1977
     69  CA        23.9320   -8.1320   25.0640 C.3    96  LEU96       0.1596
     70  C         24.0410   -6.8390   25.8890 C.2    96  LEU96       0.2287
     71  O         23.2760   -5.8840   25.6960 O.2    96  LEU96      -0.2864
     72  CB        22.4900   -8.3280   24.5650 C.3    96  LEU96       0.0297
     73  CG        22.3310   -8.5960   23.0670 C.3    96  LEU96       0.0022
     74  CD1       23.3380   -9.6210   22.5550 C.3    96  LEU96       0.0001
     75  CD2       20.8950   -9.0110   22.7190 C.3    96  LEU96       0.0001
     76  N         20.3820  -15.3820   32.6780 N.3   172  ILE172     -0.1245
     77  CA        21.2780  -14.4340   32.0200 C.3   172  ILE172      0.1561
     78  C         21.6560  -13.3100   32.9850 C.2   172  ILE172      0.2260
     79  O         20.8270  -12.8500   33.7780 O.2   172  ILE172     -0.2867
     80  CB        20.6450  -13.9000   30.7100 C.3   172  ILE172      0.0252
     81  CG1       20.5010  -15.0690   29.7320 C.3   172  ILE172      0.0019
     82  CG2       21.5030  -12.7950   30.0950 C.3   172  ILE172      0.0019
     83  CD1       19.6960  -14.7460   28.5090 C.3   172  ILE172      0.0001
     84  N         12.8600   -6.1660   17.6470 N.3   198  SER198     -0.1217
     85  CA        14.2520   -5.8530   17.9830 C.3   198  SER198      0.1889
     86  C         14.6940   -4.5080   17.4860 C.2   198  SER198      0.2288
     87  O         14.5340   -4.2220   16.3100 O.2   198  SER198     -0.2866
     88  CB        15.1760   -6.8590   17.2850 C.3   198  SER198      0.2089
     89  OG        15.4380   -7.9870   18.0760 O.3   198  SER198     -0.2183
     90  N         15.6640   -5.2470   23.2030 N.3   219  SER219     -0.1202
     91  CA        16.9710   -5.8970   23.1760 C.3   219  SER219      0.2020
     92  C         16.9060   -7.4250   23.2070 C.2   219  SER219      0.2619
     93  O         17.3560   -8.0750   22.2800 O.2   219  SER219     -0.2717
     94  CB        17.8430   -5.3450   24.3120 C.3   219  SER219      0.2103
     95  OG        19.1100   -5.9640   24.3590 O.3   219  SER219     -0.2182
     96  N         16.3570   -8.0100   24.2650 N.am  220  TRP220     -0.1961
     97  CA        16.3620   -9.4670   24.3680 C.3   220  TRP220      0.1771
     98  C         15.2510  -10.0000   25.2510 C.2   220  TRP220      0.2620
     99  O         14.6030   -9.2430   25.9820 O.2   220  TRP220     -0.2715
    100  CB        17.7440  -10.0040   24.8140 C.3   220  TRP220      0.0590
    101  CG        18.2230   -9.5820   26.1970 C.ar  220  TRP220      0.0006
    102  CD1       18.9310   -8.4580   26.5120 C.ar  220  TRP220      0.0946
    103  CD2       18.0690  -10.3150   27.4270 C.ar  220  TRP220      0.0152
    104  NE1       19.2210   -8.4380   27.8710 N.ar  220  TRP220     -0.2442
    105  CE2       18.7000   -9.5660   28.4470 C.ar  220  TRP220      0.0810
    106  CE3       17.4540  -11.5280   27.7630 C.ar  220  TRP220      0.0012
    107  CZ2       18.7290   -9.9910   29.7820 C.ar  220  TRP220      0.0191
    108  CZ3       17.4840  -11.9450   29.0860 C.ar  220  TRP220      0.0001
    109  CH2       18.1150  -11.1780   30.0760 C.ar  220  TRP220      0.0015
    110  N         15.0240  -11.3090   25.1580 N.am  221  GLY221     -0.1940
    111  CA        13.9960  -11.9620   25.9440 C.3   221  GLY221      0.2014
    112  C         14.1850  -13.4570   25.8000 C.2   221  GLY221      0.2639
    113  O         15.1020  -13.9160   25.1250 O.2   221  GLY221     -0.2714
    114  N         13.3440  -14.2260   26.4680 N.am  222  GLU222     -0.1963
    115  CA        13.3800  -15.6650   26.2940 C.3   222  GLU222      0.1733
    116  C         11.9910  -16.0920   25.8620 C.2   222  GLU222      0.2616
    117  O         11.0500  -16.1170   26.6560 O.2   222  GLU222     -0.2715
    118  CB        13.8730  -16.3460   27.5710 C.3   222  GLU222      0.0429
    119  CG        15.3530  -16.0500   27.8100 C.3   222  GLU222      0.1163
    120  CD        15.8480  -16.4730   29.1760 C.2   222  GLU222      0.3649
    121  OE1       15.5190  -15.7900   30.1640 O.co2 222  GLU222     -0.2457
    122  OE2       16.5750  -17.4850   29.2520 O.co2 222  GLU222     -0.2457
    123  N         11.8570  -16.3740   24.5710 N.am  223  GLY223     -0.1955
    124  CA        10.5410  -16.5330   23.9750 C.3   223  GLY223      0.1869
    125  C          9.8560  -15.1770   23.8540 C.2   223  GLY223      0.2309
    126  O         10.4990  -14.1210   23.9020 O.2   223  GLY223     -0.2863
@<TRIPOS>BOND
     1    26    25    2
     2    25    24    1
     3    24    27    1
     4    24    23    1
     5    27    28    1
     6    14    13    2
     7    11    12    1
     8    28    30   ar
     9    28    29   ar
    10    13    12    1
    11     4     3    2
    12    33    30   ar
    13    33    35   ar
    14    30    32   ar
    15    12    15    1
    16    29    31   ar
    17    87    86    2
    18     3     2    1
    19    15    16    1
    20    35    36   ar
    21    32    31   ar
    22    32    34   ar
    23    88    85    1
    24    88    89    1
    25    86    85    1
    26    18    16   ar
    27    18    20   ar
    28    16    17   ar
    29    84    85    1
    30    36    34   ar
    31     2     1    1
    32     2     5    1
    33     8    10   ar
    34     8     6   ar
    35    10     9   ar
    36    20    21   ar
    37     5     6    1
    38     6     7   ar
    39    17    19   ar
    40    48    50   ar
    41    48    46   ar
    42    50    49   ar
    43    46    45   ar
    44    46    44   ar
    45    45    43   ar
    46     9     7   ar
    47    49    47   ar
    48    43    42   ar
    49    44    47   ar
    50    44    42   ar
    51    21    19   ar
    52    21    22    1
    53    42    41    1
    54    41    38    1
    55    38    39    1
    56    38    37    1
    57    40    39    2
    58    93    92    2
    59    74    73    1
    60    75    73    1
    61    73    72    1
    62    91    90    1
    63    91    92    1
    64    91    94    1
    65    92    96   am
    66   125   126    2
    67   125   124    1
    68   124   123    1
    69    96    97    1
    70    94    95    1
    71    97   100    1
    72    97    98    1
    73    72    69    1
    74   123   116   am
    75   100   101    1
    76    69    68    1
    77    69    70    1
    78   113   112    2
    79   110    98   am
    80   110   111    1
    81    98    99    2
    82    51    52    1
    83    71    70    2
    84    68    62   am
    85   112   111    1
    86   112   114   am
    87   116   115    1
    88   116   117    2
    89   101   102   ar
    90   101   103   ar
    91   115   114    1
    92   115   118    1
    93   102   104   ar
    94    52    53    1
    95    52    55    1
    96    54    53    2
    97    53    60   am
    98    62    63    2
    99    62    61    1
   100    60    61    1
   101   103   106   ar
   102   103   105   ar
   103   118   119    1
   104    61    64    1
   105   106   108   ar
   106   119   120    1
   107   104   105   ar
   108    55    56    1
   109   105   107   ar
   110    83    81    1
   111    66    65    2
   112   108   109   ar
   113    64    65    1
   114   120   122   ar
   115   120   121   ar
   116    56    57    1
   117    65    67   am
   118    81    80    1
   119   107   109   ar
   120    82    80    1
   121    58    57   ar
   122    57    59   ar
   123    80    77    1
   124    77    76    1
   125    77    78    1
   126    78    79    2
