@<TRIPOS>MOLECULE
tmp/3si5B00.pdb
 130 123 0 0 0
SMALL
GASTEIGER

@<TRIPOS>ATOM
      1  N         36.8210   25.2360    6.5180 N.3    40  LYS40      -0.1245
      2  CA        36.6350   24.8270    5.1410 C.3    40  LYS40       0.1561
      3  C         37.7350   25.3630    4.2110 C.2    40  LYS40       0.2260
      4  O         37.8960   24.8790    3.0940 O.2    40  LYS40      -0.2867
      5  CB        35.2470   25.2480    4.6610 C.3    40  LYS40       0.0271
      6  CG        34.1290   24.3690    5.1640 C.3    40  LYS40       0.0035
      7  CD        34.2280   22.9870    4.5570 C.3    40  LYS40       0.0206
      8  CE        33.2010   22.0490    5.1460 C.3    40  LYS40       0.1093
      9  NZ        33.4390   21.8520    6.5980 N.3    40  LYS40      -0.1314
     10  N         40.7330   18.5110    5.8530 N.3    45  SER45      -0.1217
     11  CA        40.0520   17.2390    6.0670 C.3    45  SER45       0.1889
     12  C         40.0160   16.3870    4.7960 C.2    45  SER45       0.2288
     13  O         40.1650   15.1640    4.8600 O.2    45  SER45      -0.2866
     14  CB        38.6380   17.4610    6.6210 C.3    45  SER45       0.2089
     15  OG        37.7220   17.7740    5.5840 O.3    45  SER45      -0.2183
     16  N         41.8550   12.7680    4.2610 N.3    49  GLU49      -0.1245
     17  CA        41.1020   11.7050    3.6050 C.3    49  GLU49       0.1567
     18  C         41.7830   11.1560    2.3590 C.2    49  GLU49       0.2260
     19  O         41.8380    9.9450    2.1780 O.2    49  GLU49      -0.2867
     20  CB        39.6790   12.1650    3.2600 C.3    49  GLU49       0.0388
     21  CG        38.7740   12.1500    4.4550 C.3    49  GLU49       0.1160
     22  CD        37.4230   12.7830    4.1930 C.2    49  GLU49       0.3649
     23  OE1       36.8780   12.6720    3.0700 O.co2  49  GLU49      -0.2457
     24  OE2       36.8900   13.3820    5.1340 O.co2  49  GLU49      -0.2457
     25  N         45.0990    9.1580    3.3280 N.3    52  VAL52      -0.1231
     26  CA        44.7190    7.8910    3.9160 C.3    52  VAL52       0.1692
     27  C         44.1690    6.9400    2.8480 C.2    52  VAL52       0.2591
     28  O         44.4790    5.7430    2.8500 O.2    52  VAL52      -0.2718
     29  CB        43.7350    8.1640    5.1200 C.3    52  VAL52       0.0266
     30  CG1       42.6460    7.1580    5.1950 C.3    52  VAL52       0.0020
     31  CG2       44.5190    8.2520    6.4350 C.3    52  VAL52       0.0020
     32  N         43.3930    7.4810    1.9150 N.am   53  GLU53      -0.1979
     33  CA        42.9200    6.7140    0.7620 C.3    53  GLU53       0.1602
     34  C         44.0870    6.1950   -0.0980 C.2    53  GLU53       0.2287
     35  O         44.0810    5.0350   -0.5320 O.2    53  GLU53      -0.2864
     36  CB        41.9790    7.5770   -0.0980 C.3    53  GLU53       0.0415
     37  CG        41.3220    6.8310   -1.2460 C.3    53  GLU53       0.1163
     38  CD        40.3760    7.7040   -2.0660 C.2    53  GLU53       0.3649
     39  OE1       40.7320    8.8640   -2.3910 O.co2  53  GLU53      -0.2457
     40  OE2       39.2700    7.2190   -2.3980 O.co2  53  GLU53      -0.2457
     41  N         46.2970    3.5170    2.0030 N.3    56  GLN56      -0.1245
     42  CA        45.4920    2.3400    2.3480 C.3    56  GLN56       0.1566
     43  C         46.2480    1.0360    2.3050 C.2    56  GLN56       0.2260
     44  O         46.7510    0.6410    1.2450 O.2    56  GLN56      -0.2867
     45  CB        44.3980    2.1770    1.3030 C.3    56  GLN56       0.0367
     46  CG        43.0380    2.7090    1.6510 C.3    56  GLN56       0.0905
     47  CD        42.0580    2.3420    0.5670 C.2    56  GLN56       0.2608
     48  OE1       41.9670    3.0200   -0.4550 O.2    56  GLN56      -0.2717
     49  NE2       41.3420    1.2310    0.7660 N.am   56  GLN56      -0.0878
     50  N         46.4200    9.6090   10.7240 N.3    71  TRP71      -0.1241
     51  CA        45.2650    9.0360   11.3920 C.3    71  TRP71       0.1605
     52  C         44.8510    9.8840   12.5910 C.2    71  TRP71       0.2264
     53  O         43.6870   10.2690   12.7090 O.2    71  TRP71      -0.2867
     54  CB        45.5720    7.5910   11.8160 C.3    71  TRP71       0.0550
     55  CG        45.6750    6.6820   10.6430 C.ar   71  TRP71       0.0003
     56  CD1       46.8190    6.1810   10.0750 C.ar   71  TRP71       0.0946
     57  CD2       44.5900    6.1750    9.8690 C.ar   71  TRP71       0.0152
     58  NE1       46.5060    5.3920    9.0070 N.ar   71  TRP71      -0.2442
     59  CE2       45.1430    5.3730    8.8520 C.ar   71  TRP71       0.0810
     60  CE3       43.1970    6.3270    9.9320 C.ar   71  TRP71       0.0012
     61  CZ2       44.3520    4.7040    7.9140 C.ar   71  TRP71       0.0191
     62  CZ3       42.4080    5.6560    8.9960 C.ar   71  TRP71       0.0001
     63  CH2       42.9880    4.8640    8.0040 C.ar   71  TRP71       0.0015
     64  N         43.2520   12.9680   11.2720 N.3    74  LEU74      -0.1245
     65  CA        41.9240   12.6270   10.7400 C.3    74  LEU74       0.1561
     66  C         40.9180   12.3760   11.8750 C.2    74  LEU74       0.2260
     67  O         39.7600   12.7800   11.7890 O.2    74  LEU74      -0.2867
     68  CB        42.0030   11.4130    9.8080 C.3    74  LEU74       0.0270
     69  CG        40.7420   10.9400    9.0680 C.3    74  LEU74       0.0019
     70  CD1       40.3120   11.9090    7.9720 C.3    74  LEU74       0.0001
     71  CD2       40.9530    9.5390    8.4940 C.3    74  LEU74       0.0001
     72  N         38.8760   15.1430   13.4710 N.3    77  LEU77      -0.1231
     73  CA        37.8420   15.6920   12.6200 C.3    77  LEU77       0.1693
     74  C         36.6640   14.7540   12.4630 C.2    77  LEU77       0.2592
     75  O         35.7250   15.0750   11.7560 O.2    77  LEU77      -0.2718
     76  CB        38.4220   16.0630   11.2530 C.3    77  LEU77       0.0284
     77  CG        39.5960   17.0450   11.3210 C.3    77  LEU77       0.0019
     78  CD1       40.2920   17.0760    9.9950 C.3    77  LEU77       0.0001
     79  CD2       39.1240   18.4420   11.7250 C.3    77  LEU77       0.0001
     80  N         36.7180   13.6050   13.1300 N.am   78  CYS78      -0.1956
     81  CA        35.6090   12.6520   13.1260 C.3    78  CYS78       0.1843
     82  C         34.6160   12.9680   14.2420 C.2    78  CYS78       0.2625
     83  O         34.9900   13.5680   15.2520 O.2    78  CYS78      -0.2714
     84  CB        36.1240   11.2280   13.3090 C.3    78  CYS78       0.0997
     85  SG        37.1140   10.6230   11.9480 S.3    78  CYS78      -0.0797
     86  N         33.3570   12.5700   14.0580 N.am   79  ASN79      -0.1958
     87  CA        32.3360   12.7180   15.0960 C.3    79  ASN79       0.1819
     88  C         32.5950   11.7650   16.2730 C.2    79  ASN79       0.2621
     89  O         32.3620   12.1080   17.4290 O.2    79  ASN79      -0.2715
     90  CB        30.9460   12.4690   14.5090 C.3    79  ASN79       0.1195
     91  CG        29.8680   13.2270   15.2350 C.2    79  ASN79       0.2630
     92  OD1       29.9830   14.4340   15.4490 O.2    79  ASN79      -0.2716
     93  ND2       28.8020   12.5290   15.6130 N.am   79  ASN79      -0.0877
     94  N         33.0780   10.5620   15.9540 N.am   80  GLU80      -0.1977
     95  CA        33.4640    9.5800   16.9710 C.3    80  GLU80       0.1602
     96  C         34.9270    9.1500   16.7840 C.2    80  GLU80       0.2287
     97  O         35.1980    8.1910   16.0720 O.2    80  GLU80      -0.2864
     98  CB        32.5070    8.3700   16.9600 C.3    80  GLU80       0.0415
     99  CG        32.7210    7.3520   18.0910 C.3    80  GLU80       0.1163
    100  CD        32.9290    8.0270   19.4450 C.2    80  GLU80       0.3649
    101  OE1       34.0880    8.3950   19.7700 O.co2  80  GLU80      -0.2457
    102  OE2       31.9270    8.1970   20.1730 O.co2  80  GLU80      -0.2457
    103  N         36.1340    5.3590   16.9850 N.3    83  ASP83      -0.1225
    104  CA        36.0540    4.3870   15.8720 C.3    83  ASP83       0.1805
    105  C         37.3940    4.3330   15.1340 C.2    83  ASP83       0.2597
    106  O         37.8760    3.2630   14.7530 O.2    83  ASP83      -0.2718
    107  CB        34.9190    4.7200   14.8840 C.3    83  ASP83       0.1424
    108  CG        33.5580    4.7010   15.5340 C.2    83  ASP83       0.3668
    109  OD1       33.3470    3.8780   16.4420 O.co2  83  ASP83      -0.2456
    110  OD2       32.6960    5.5190   15.1530 O.co2  83  ASP83      -0.2456
    111  N         37.9830    5.5030   14.9340 N.am   84  MET84      -0.1979
    112  CA        39.3240    5.6020   14.3540 C.3    84  MET84       0.1605
    113  C         40.3140    4.7800   15.1830 C.2    84  MET84       0.2287
    114  O         41.0210    3.9390   14.6360 O.2    84  MET84      -0.2864
    115  CB        39.7660    7.0790   14.2540 C.3    84  MET84       0.0413
    116  CG        41.1370    7.3230   13.6020 C.3    84  MET84       0.0598
    117  SD        42.5150    7.0370   14.7140 S.3    84  MET84      -0.1393
    118  CE        42.3170    8.4280   15.8340 C.3    84  MET84       0.0692
    119  N         39.6700    0.9930   14.7980 N.3    87  TYR87      -0.1241
    120  CA        40.1810    0.6400   13.4780 C.3    87  TYR87       0.1605
    121  C         41.6950    0.4060   13.4420 C.2    87  TYR87       0.2264
    122  O         42.1470   -0.6770   13.0370 O.2    87  TYR87      -0.2867
    123  CB        39.8190    1.7120   12.4590 C.3    87  TYR87       0.0534
    124  CG        40.1340    1.2920   11.0400 C.ar   87  TYR87      -0.0201
    125  CD1       39.4330    0.2430   10.4380 C.ar   87  TYR87      -0.0009
    126  CD2       41.1300    1.9410   10.2990 C.ar   87  TYR87      -0.0009
    127  CE1       39.7190   -0.1630    9.1150 C.ar   87  TYR87       0.0417
    128  CE2       41.4250    1.5410    8.9880 C.ar   87  TYR87       0.0417
    129  CZ        40.7180    0.4930    8.4080 C.ar   87  TYR87       0.1957
    130  OH        40.9930    0.1040    7.1080 O.3    87  TYR87      -0.2866
@<TRIPOS>BOND
     1    40    38   ar
     2    39    38   ar
     3    38    37    1
     4    37    36    1
     5    35    34    2
     6    48    47    2
     7    36    33    1
     8    34    33    1
     9    47    49   am
    10    47    46    1
    11    33    32    1
    12    44    43    2
    13    45    46    1
    14    45    42    1
    15    32    27   am
    16    41    42    1
    17    19    18    2
    18    43    42    1
    19    18    17    1
    20    27    28    2
    21    27    26    1
    22    23    22   ar
    23     4     3    2
    24    20    17    1
    25    20    21    1
    26    25    26    1
    27    17    16    1
    28    26    29    1
    29    22    21    1
    30    22    24   ar
    31     3     2    1
    32     7     8    1
    33     7     6    1
    34     5     2    1
    35     5     6    1
    36    12    13    2
    37    12    11    1
    38    29    30    1
    39    29    31    1
    40     2     1    1
    41     8     9    1
    42    15    14    1
    43    10    11    1
    44    11    14    1
    45   130   129    1
    46    61    63   ar
    47    61    59   ar
    48    70    69    1
    49    63    62   ar
    50   129   128   ar
    51   129   127   ar
    52    71    69    1
    53    59    58   ar
    54    59    57   ar
    55   128   126   ar
    56    62    60   ar
    57    58    56   ar
    58    69    68    1
    59   127   125   ar
    60    68    65    1
    61    57    60   ar
    62    57    55   ar
    63    78    77    1
    64    56    55   ar
    65   126   124   ar
    66   125   124   ar
    67    55    54    1
    68    50    51    1
    69    65    64    1
    70    65    66    1
    71   124   123    1
    72    76    77    1
    73    76    73    1
    74    77    79    1
    75    51    54    1
    76    51    52    1
    77    75    74    2
    78    67    66    2
    79    85    84    1
    80   123   120    1
    81    74    73    1
    82    74    80   am
    83    52    53    2
    84    73    72    1
    85   122   121    2
    86    81    80    1
    87    81    84    1
    88    81    82    1
    89   121   120    1
    90   120   119    1
    91   116   115    1
    92   116   117    1
    93    86    82   am
    94    86    87    1
    95    82    83    2
    96   115   112    1
    97   112   111    1
    98   112   113    1
    99    90    87    1
   100    90    91    1
   101   114   113    2
   102   117   118    1
   103   106   105    2
   104   107   108    1
   105   107   104    1
   106   111   105   am
   107    87    88    1
   108   105   104    1
   109   110   108   ar
   110    91    92    2
   111    91    93   am
   112   108   109   ar
   113   104   103    1
   114    94    88   am
   115    94    95    1
   116    97    96    2
   117    88    89    2
   118    96    95    1
   119    98    95    1
   120    98    99    1
   121    99   100    1
   122   100   101   ar
   123   100   102   ar
