@<TRIPOS>MOLECULE
tmp/3si8A03.pdb
 85 80 0 0 0
SMALL
GASTEIGER

@<TRIPOS>ATOM
      1  N          8.7280   -1.8150    3.4350 N.3   149  ILE149     -0.1231
      2  CA         9.4400   -3.0770    3.5260 C.3   149  ILE149      0.1692
      3  C          8.3570   -4.1490    3.5620 C.2   149  ILE149      0.2592
      4  O          7.6320   -4.2620    4.5570 O.2   149  ILE149     -0.2718
      5  CB        10.2560   -3.1890    4.8300 C.3   149  ILE149      0.0266
      6  CG1       11.2360   -2.0150    4.9600 C.3   149  ILE149      0.0019
      7  CG2       10.9700   -4.5290    4.8640 C.3   149  ILE149      0.0020
      8  CD1       12.1810   -1.8590    3.8090 C.3   149  ILE149      0.0001
      9  N          8.2500   -4.9320    2.4890 N.am  150  GLU150     -0.1966
     10  CA         7.2440   -5.9900    2.4030 C.3   150  GLU150      0.1733
     11  C          7.3990   -7.0360    3.5070 C.2   150  GLU150      0.2617
     12  O          8.4860   -7.5560    3.7320 O.2   150  GLU150     -0.2715
     13  CB         7.3130   -6.6790    1.0320 C.3   150  GLU150      0.0429
     14  CG         6.3580   -7.8470    0.8770 C.3   150  GLU150      0.1163
     15  CD         4.8860   -7.4370    0.9670 C.2   150  GLU150      0.3649
     16  OE1        4.0400   -8.3170    1.2210 O.co2 150  GLU150     -0.2457
     17  OE2        4.5650   -6.2450    0.7740 O.co2 150  GLU150     -0.2457
     18  N          6.3020   -7.3370    4.1940 N.am  151  GLY151     -0.1940
     19  CA         6.3420   -8.3210    5.2570 C.3   151  GLY151      0.2014
     20  C          6.4510   -7.7350    6.6590 C.2   151  GLY151      0.2638
     21  O          6.2590   -8.4410    7.6490 O.2   151  GLY151     -0.2714
     22  N          6.7660   -6.4490    6.7580 N.am  152  LEU152     -0.1977
     23  CA         6.8940   -5.8170    8.0640 C.3   152  LEU152      0.1596
     24  C          5.9360   -4.6460    8.2090 C.2   152  LEU152      0.2287
     25  O          5.5150   -4.0500    7.2230 O.2   152  LEU152     -0.2864
     26  CB         8.3330   -5.3480    8.2860 C.3   152  LEU152      0.0297
     27  CG         9.3740   -6.4670    8.3520 C.3   152  LEU152      0.0022
     28  CD1       10.7630   -5.8710    8.5010 C.3   152  LEU152      0.0001
     29  CD2        9.0530   -7.3930    9.5250 C.3   152  LEU152      0.0001
     30  N          6.0250   -6.8960   12.0580 N.3   154  GLN154     -0.1245
     31  CA         5.4840   -8.1280   12.6350 C.3   154  GLN154      0.1566
     32  C          5.0040   -7.6540   14.0060 C.2   154  GLN154      0.2260
     33  O          5.8170   -7.2240   14.8280 O.2   154  GLN154     -0.2867
     34  CB         6.5640   -9.1960   12.8650 C.3   154  GLN154      0.0367
     35  CG         7.2830   -9.7500   11.6430 C.3   154  GLN154      0.0905
     36  CD         8.3540  -10.7670   12.0340 C.2   154  GLN154      0.2608
     37  OE1        9.0280  -10.6070   13.0540 O.2   154  GLN154     -0.2717
     38  NE2        8.5220  -11.8050   11.2210 N.am  154  GLN154     -0.0878
     39  N         13.1280   -3.1560   10.1870 N.3   169  TRP169     -0.1241
     40  CA        13.9770   -3.6080    9.1070 C.3   169  TRP169      0.1605
     41  C         15.3780   -3.0630    9.3360 C.2   169  TRP169      0.2264
     42  O         16.3510   -3.8140    9.3330 O.2   169  TRP169     -0.2867
     43  CB        13.4290   -3.1250    7.7560 C.3   169  TRP169      0.0550
     44  CG        14.3810   -3.3140    6.6040 C.ar  169  TRP169      0.0003
     45  CD1       15.1860   -2.3650    6.0340 C.ar  169  TRP169      0.0946
     46  CD2       14.6320   -4.5360    5.8930 C.ar  169  TRP169      0.0152
     47  NE1       15.9220   -2.9230    5.0060 N.ar  169  TRP169     -0.2442
     48  CE2       15.5980   -4.2530    4.9000 C.ar  169  TRP169      0.0810
     49  CE3       14.1330   -5.8420    6.0010 C.ar  169  TRP169      0.0012
     50  CZ2       16.0800   -5.2340    4.0130 C.ar  169  TRP169      0.0191
     51  CZ3       14.6100   -6.8210    5.1160 C.ar  169  TRP169      0.0001
     52  CH2       15.5740   -6.5080    4.1350 C.ar  169  TRP169      0.0015
     53  N         20.1240   -8.3620    2.2150 N.3   182  ASP182     -0.1239
     54  CA        19.1780   -7.3710    2.7260 C.3   182  ASP182      0.1674
     55  C         19.7780   -5.9690    2.7420 C.2   182  ASP182      0.2266
     56  O         19.1060   -5.0010    2.3950 O.2   182  ASP182     -0.2867
     57  CB        18.6960   -7.7580    4.1300 C.3   182  ASP182      0.1410
     58  CG        17.8000   -8.9710    4.1070 C.2   182  ASP182      0.3668
     59  OD1       17.4560   -9.4350    2.9890 O.co2 182  ASP182     -0.2456
     60  OD2       17.4380   -9.4640    5.1970 O.co2 182  ASP182     -0.2456
     61  N         12.4650   -8.5270    0.0780 N.3   234  SER234     -0.1217
     62  CA        13.6440   -9.3250    0.3970 C.3   234  SER234      0.1889
     63  C         13.3660  -10.7910    0.1130 C.2   234  SER234      0.2288
     64  O         12.2060  -11.1890    0.0010 O.2   234  SER234     -0.2866
     65  CB        13.9910   -9.1620    1.8720 C.3   234  SER234      0.2089
     66  OG        12.9940   -9.7780    2.6630 O.3   234  SER234     -0.2183
     67  N         13.7250  -13.2210    2.0820 N.3   236  GLY236     -0.1210
     68  CA        13.0330  -13.7610    3.2400 C.3   236  GLY236      0.1956
     69  C         11.5300  -13.4860    3.2800 C.2   236  GLY236      0.2612
     70  O         10.7790  -14.2150    3.9360 O.2   236  GLY236     -0.2717
     71  N         11.0770  -12.4520    2.5740 N.am  237  SER237     -0.1952
     72  CA         9.6540  -12.1180    2.5680 C.3   237  SER237      0.1924
     73  C          8.8590  -12.8790    1.5090 C.2   237  SER237      0.2314
     74  O          7.6230  -12.8860    1.5470 O.2   237  SER237     -0.2863
     75  CB         9.4610  -10.6070    2.3500 C.3   237  SER237      0.2116
     76  OG         9.8270  -10.2090    1.0340 O.3   237  SER237     -0.2180
     77  N          5.9810  -15.6730    2.4110 N.3   240  GLN240     -0.1245
     78  CA         4.7860  -14.9910    2.8740 C.3   240  GLN240      0.1566
     79  C          4.0590  -14.2540    1.7470 C.2   240  GLN240      0.2260
     80  O          2.8460  -14.3500    1.6150 O.2   240  GLN240     -0.2867
     81  CB         5.1610  -14.0020    3.9690 C.3   240  GLN240      0.0367
     82  CG         4.5660  -14.3360    5.3070 C.3   240  GLN240      0.0905
     83  CD         3.0480  -14.3380    5.2770 C.2   240  GLN240      0.2608
     84  OE1        2.4220  -13.3350    4.9280 O.2   240  GLN240     -0.2717
     85  NE2        2.4480  -15.4700    5.6470 N.am  240  GLN240     -0.0878
@<TRIPOS>BOND
     1    64    63    2
     2    61    62    1
     3    63    62    1
     4    62    65    1
     5    17    15   ar
     6    14    15    1
     7    14    13    1
     8    15    16   ar
     9    13    10    1
    10    76    75    1
    11    73    74    2
    12    73    72    1
    13    80    79    2
    14    79    78    1
    15    65    66    1
    16    67    68    1
    17    53    54    1
    18    75    72    1
    19    56    55    2
    20    10     9    1
    21    10    11    1
    22    77    78    1
    23     9     3   am
    24    72    71    1
    25    71    69   am
    26    54    55    1
    27    54    57    1
    28    78    81    1
    29    59    58   ar
    30    68    69    1
    31    69    70    2
    32     1     2    1
    33    11    12    2
    34    11    18   am
    35     2     3    1
    36     2     5    1
    37     3     4    2
    38     8     6    1
    39    81    82    1
    40    50    52   ar
    41    50    48   ar
    42    58    57    1
    43    58    60   ar
    44    52    51   ar
    45    18    19    1
    46     5     7    1
    47     5     6    1
    48    48    47   ar
    49    48    46   ar
    50    84    83    2
    51    47    45   ar
    52    51    49   ar
    53    19    20    1
    54    83    82    1
    55    83    85   am
    56    46    49   ar
    57    46    44   ar
    58    45    44   ar
    59    44    43    1
    60    20    22   am
    61    20    21    2
    62    22    23    1
    63    25    24    2
    64    43    40    1
    65    23    24    1
    66    23    26    1
    67    26    27    1
    68    27    28    1
    69    27    29    1
    70    40    41    1
    71    40    39    1
    72    42    41    2
    73    38    36   am
    74    35    36    1
    75    35    34    1
    76    36    37    2
    77    30    31    1
    78    31    34    1
    79    31    32    1
    80    32    33    2
