@<TRIPOS>MOLECULE
tmp/3si8A01.pdb
 90 89 0 0 0
SMALL
GASTEIGER

@<TRIPOS>ATOM
      1  N          4.9610  -11.9880  -13.3720 N.3   251  ARG251     -0.1231
      2  CA         5.4800  -11.7020  -14.7010 C.3   251  ARG251      0.1694
      3  C          5.6480  -12.9800  -15.5470 C.2   251  ARG251      0.2592
      4  O          6.2680  -13.9550  -15.1200 O.2   251  ARG251     -0.2718
      5  CB         6.8010  -10.9330  -14.5540 C.3   251  ARG251      0.0321
      6  CG         7.7870  -11.0150  -15.7190 C.3   251  ARG251      0.0489
      7  CD         7.3150  -10.3290  -16.9920 C.3   251  ARG251      0.2205
      8  NE         7.3160  -11.2900  -18.0960 N.pl3 251  ARG251     -0.0865
      9  CZ         7.4250  -10.9760  -19.3810 C.cat 251  ARG251      0.5346
     10  NH1        7.5450   -9.7090  -19.7470 N.pl3 251  ARG251      0.1354
     11  NH2        7.4220  -11.9380  -20.2950 N.pl3 251  ARG251      0.1354
     12  N          5.0550  -12.9520  -16.7370 N.am  252  SER252     -0.1952
     13  CA         5.0630  -14.0400  -17.7140 C.3   252  SER252      0.1924
     14  C          4.0370  -15.1510  -17.4450 C.2   252  SER252      0.2314
     15  O          3.9240  -16.0900  -18.2280 O.2   252  SER252     -0.2863
     16  CB         6.4710  -14.6470  -17.8630 C.3   252  SER252      0.2116
     17  OG         6.6940  -15.6820  -16.9230 O.3   252  SER252     -0.2180
     18  N          0.1640  -19.7910  -20.2730 N.3   257  LEU257     -0.1245
     19  CA         1.0350  -20.6160  -19.4700 C.3   257  LEU257      0.1561
     20  C          0.5490  -20.5930  -18.0320 C.2   257  LEU257      0.2260
     21  O          0.3790  -21.6500  -17.4110 O.2   257  LEU257     -0.2867
     22  CB         2.4800  -20.1210  -19.5490 C.3   257  LEU257      0.0270
     23  CG         3.4560  -20.8930  -18.6550 C.3   257  LEU257      0.0019
     24  CD1        3.3340  -22.3910  -18.9130 C.3   257  LEU257      0.0001
     25  CD2        4.8780  -20.4100  -18.9210 C.3   257  LEU257      0.0001
     26  N         12.5450  -26.7110  -19.6330 N.3   288  LYS288     -0.1231
     27  CA        12.7800  -25.3050  -19.3880 C.3   288  LYS288      0.1693
     28  C         11.7290  -24.5900  -18.5300 C.2   288  LYS288      0.2592
     29  O         12.0760  -23.9240  -17.5620 O.2   288  LYS288     -0.2718
     30  CB        12.9430  -24.5940  -20.7300 C.3   288  LYS288      0.0285
     31  CG        13.0930  -23.0990  -20.6240 C.3   288  LYS288      0.0035
     32  CD        13.1400  -22.4800  -22.0040 C.3   288  LYS288      0.0206
     33  CE        12.8760  -20.9930  -21.9240 C.3   288  LYS288      0.1093
     34  NZ        13.0470  -20.2940  -23.2170 N.3   288  LYS288     -0.1314
     35  N         10.4500  -24.7010  -18.8800 N.am  289  ASN289     -0.1974
     36  CA         9.4330  -24.0250  -18.0800 C.3   289  ASN289      0.1688
     37  C          9.3090  -24.6900  -16.7110 C.2   289  ASN289      0.2292
     38  O          9.0290  -24.0200  -15.7170 O.2   289  ASN289     -0.2864
     39  CB         8.0720  -23.9790  -18.8070 C.3   289  ASN289      0.1181
     40  CG         8.0570  -22.9680  -19.9540 C.2   289  ASN289      0.2629
     41  OD1        8.9620  -22.1470  -20.0720 O.2   289  ASN289     -0.2716
     42  ND2        7.0250  -23.0230  -20.7990 N.am  289  ASN289     -0.0877
     43  N         12.1100  -23.3170  -14.5260 N.3   292  TRP292     -0.1241
     44  CA        11.8390  -21.9130  -14.2580 C.3   292  TRP292      0.1605
     45  C         10.7960  -21.7820  -13.1450 C.2   292  TRP292      0.2264
     46  O         10.9400  -20.9760  -12.2120 O.2   292  TRP292     -0.2867
     47  CB        11.3280  -21.2300  -15.5300 C.3   292  TRP292      0.0550
     48  CG        11.1980  -19.7530  -15.3860 C.ar  292  TRP292      0.0003
     49  CD1       12.1800  -18.8290  -15.5740 C.ar  292  TRP292      0.0946
     50  CD2       10.0330  -19.0210  -14.9580 C.ar  292  TRP292      0.0152
     51  NE1       11.7130  -17.5750  -15.2920 N.ar  292  TRP292     -0.2442
     52  CE2       10.3990  -17.6570  -14.9090 C.ar  292  TRP292      0.0810
     53  CE3        8.7250  -19.3890  -14.6050 C.ar  292  TRP292      0.0012
     54  CZ2        9.5070  -16.6440  -14.5250 C.ar  292  TRP292      0.0191
     55  CZ3        7.8270  -18.3790  -14.2150 C.ar  292  TRP292      0.0001
     56  CH2        8.2310  -17.0190  -14.1810 C.ar  292  TRP292      0.0015
     57  N         15.1050  -16.1220   -9.9660 N.3   301  GLU301     -0.1231
     58  CA        14.9870  -15.9100  -11.4030 C.3   301  GLU301      0.1699
     59  C         16.2700  -15.2030  -11.8720 C.2   301  GLU301      0.2592
     60  O         16.7870  -14.3230  -11.1800 O.2   301  GLU301     -0.2718
     61  CB        13.7440  -15.0600  -11.6860 C.3   301  GLU301      0.0402
     62  CG        13.2150  -15.2120  -13.0700 C.3   301  GLU301      0.1161
     63  CD        13.6460  -14.0910  -13.9740 C.2   301  GLU301      0.3649
     64  OE1       13.6950  -14.3390  -15.1990 O.co2 301  GLU301     -0.2457
     65  OE2       13.9180  -12.9730  -13.4630 O.co2 301  GLU301     -0.2457
     66  N         16.7770  -15.5690  -13.0430 N.am  302  HIS302     -0.1962
     67  CA        18.0280  -14.9930  -13.5180 C.3   302  HIS302      0.1787
     68  C         18.0540  -14.1270  -14.7860 C.2   302  HIS302      0.2620
     69  O         19.1360  -13.7400  -15.2310 O.2   302  HIS302     -0.2715
     70  CB        19.0530  -16.1220  -13.6500 C.3   302  HIS302      0.0785
     71  CG        19.3170  -16.8450  -12.3640 C.ar  302  HIS302      0.0821
     72  ND1       19.8970  -16.2340  -11.2740 N.ar  302  HIS302     -0.2267
     73  CD2       19.0430  -18.1160  -11.9850 C.ar  302  HIS302      0.1154
     74  CE1       19.9680  -17.0980  -10.2720 C.ar  302  HIS302      0.1986
     75  NE2       19.4550  -18.2440  -10.6790 N.ar  302  HIS302     -0.2212
     76  N         16.8940  -13.8070  -15.3630 N.am  303  ASP303     -0.1958
     77  CA        16.8690  -12.9720  -16.5690 C.3   303  ASP303      0.1825
     78  C         17.6320  -11.6740  -16.2970 C.2   303  ASP303      0.2464
     79  O         17.2450  -10.8630  -15.4510 O.2   303  ASP303     -0.2730
     80  CB        15.4380  -12.6410  -16.9880 C.3   303  ASP303      0.1450
     81  CG        15.3750  -11.8730  -18.3130 C.2   303  ASP303      0.3671
     82  OD1       14.4350  -11.0730  -18.4970 O.co2 303  ASP303     -0.2456
     83  OD2       16.2570  -12.0710  -19.1800 O.co2 303  ASP303     -0.2456
     84  N         18.7280  -11.4500  -17.0280 N.am  304  PRO304     -0.2727
     85  CA        19.5190  -10.2390  -16.8230 C.3   304  PRO304      0.1402
     86  C         18.9040   -8.9560  -17.3340 C.2   304  PRO304      0.2269
     87  O         18.0920   -8.9660  -18.2590 O.2   304  PRO304     -0.2865
     88  CB        20.8300  -10.5700  -17.5260 C.3   304  PRO304      0.0296
     89  CG        20.3920  -11.4310  -18.6610 C.3   304  PRO304      0.0237
     90  CD        19.3350  -12.3220  -18.0520 C.3   304  PRO304      0.0939
@<TRIPOS>BOND
     1    34    33    1
     2    32    33    1
     3    32    31    1
     4    42    40   am
     5    30    31    1
     6    30    27    1
     7    11     9    1
     8    18    19    1
     9    41    40    2
    10    40    39    1
    11    10     9    1
    12    26    27    1
    13    22    19    1
    14    22    23    1
    15    19    20    1
    16    27    28    1
    17     9     8    2
    18    83    81   ar
    19    25    23    1
    20    24    23    1
    21    35    28   am
    22    35    36    1
    23    39    36    1
    24    89    90    1
    25    89    88    1
    26    28    29    2
    27    82    81   ar
    28    81    80    1
    29    87    86    2
    30    15    14    2
    31     8     7    1
    32    36    37    1
    33    90    84    1
    34    20    21    2
    35    16    13    1
    36    16    17    1
    37    13    14    1
    38    13    12    1
    39    88    85    1
    40    86    85    1
    41    84    85    1
    42    84    78   am
    43     7     6    1
    44    80    77    1
    45    12     3   am
    46    37    38    2
    47    77    78    1
    48    77    76    1
    49    78    79    2
    50     6     5    1
    51    49    48   ar
    52    49    51   ar
    53     3     4    2
    54     3     2    1
    55    47    48    1
    56    47    44    1
    57    48    50   ar
    58    76    68   am
    59    51    52   ar
    60    69    68    2
    61    64    63   ar
    62    50    52   ar
    63    50    53   ar
    64    52    54   ar
    65    68    67    1
    66     2     5    1
    67     2     1    1
    68    53    55   ar
    69    43    44    1
    70    54    56   ar
    71    44    45    1
    72    55    56   ar
    73    63    65   ar
    74    63    62    1
    75    70    67    1
    76    70    71    1
    77    67    66    1
    78    45    46    2
    79    62    61    1
    80    66    59   am
    81    71    73   ar
    82    71    72   ar
    83    73    75   ar
    84    59    58    1
    85    59    60    2
    86    61    58    1
    87    58    57    1
    88    72    74   ar
    89    75    74   ar
