@<TRIPOS>MOLECULE
tmp/3sieB00.pdb
 176 167 0 0 0
SMALL
GASTEIGER

@<TRIPOS>ATOM
      1  N         -9.9410   18.9430   20.7180 N.3    76  TYR76      -0.1227
      2  CA       -11.1380   19.2280   21.5090 C.3    76  TYR76       0.1736
      3  C        -11.7920   20.5470   21.1070 C.2    76  TYR76       0.2595
      4  O        -12.9720   20.5820   20.7840 O.2    76  TYR76      -0.2718
      5  CB       -10.8130   19.2120   23.0070 C.3    76  TYR76       0.0548
      6  CG       -11.9510   19.6780   23.9010 C.ar   76  TYR76      -0.0200
      7  CD1      -13.1700   18.9930   23.9450 C.ar   76  TYR76      -0.0009
      8  CD2      -11.8020   20.8020   24.7020 C.ar   76  TYR76      -0.0009
      9  CE1      -14.2050   19.4310   24.7730 C.ar   76  TYR76       0.0417
     10  CE2      -12.8170   21.2460   25.5240 C.ar   76  TYR76       0.0417
     11  CZ       -14.0140   20.5610   25.5580 C.ar   76  TYR76       0.1957
     12  OH       -15.0060   21.0280   26.3980 O.3    76  TYR76      -0.2866
     13  N        -11.0200   21.6240   21.1200 N.am   77  HIS77      -0.1975
     14  CA       -11.5430   22.9500   20.8070 C.3    77  HIS77       0.1656
     15  C        -11.6860   23.2210   19.3050 C.2    77  HIS77       0.2291
     16  O        -10.8880   23.9470   18.7130 O.2    77  HIS77      -0.2864
     17  CB       -10.6810   24.0310   21.4580 C.3    77  HIS77       0.0771
     18  CG       -10.8440   24.1060   22.9440 C.ar   77  HIS77       0.0820
     19  ND1       -9.9040   23.6130   23.8230 N.ar   77  HIS77      -0.2267
     20  CD2      -11.8480   24.6020   23.7050 C.ar   77  HIS77       0.1154
     21  CE1      -10.3170   23.8090   25.0620 C.ar   77  HIS77       0.1986
     22  NE2      -11.4970   24.4040   25.0190 N.ar   77  HIS77      -0.2212
     23  N         -8.0540   24.4490   31.7620 N.3   120  ILE120     -0.1245
     24  CA        -7.1260   25.4470   31.2320 C.3   120  ILE120      0.1561
     25  C         -7.7160   26.8570   31.2730 C.2   120  ILE120      0.2260
     26  O         -8.8940   27.0720   30.9560 O.2   120  ILE120     -0.2867
     27  CB        -6.6750   25.1270   29.7880 C.3   120  ILE120      0.0252
     28  CG1       -5.6820   26.2020   29.2450 C.3   120  ILE120      0.0019
     29  CG2       -7.8280   24.9290   28.8380 C.3   120  ILE120      0.0019
     30  CD1       -5.0390   25.8070   27.9720 C.3   120  ILE120      0.0001
     31  N        -12.3580   30.4860   32.0720 N.3   165  LEU165     -0.1245
     32  CA       -12.5610   29.8920   33.3880 C.3   165  LEU165      0.1561
     33  C        -12.1210   30.8000   34.5330 C.2   165  LEU165      0.2260
     34  O        -12.7240   30.7840   35.6020 O.2   165  LEU165     -0.2867
     35  CB       -11.8800   28.5250   33.5000 C.3   165  LEU165      0.0270
     36  CG       -12.7230   27.4020   32.8940 C.3   165  LEU165      0.0019
     37  CD1      -11.9330   26.0910   32.7640 C.3   165  LEU165      0.0001
     38  CD2      -14.0080   27.1940   33.7210 C.3   165  LEU165      0.0001
     39  N        -20.5090   25.5280   27.8470 N.3   204  ASP204     -0.1225
     40  CA       -19.1430   25.2220   27.4040 C.3   204  ASP204      0.1805
     41  C        -18.5550   23.9640   28.0740 C.2   204  ASP204      0.2597
     42  O        -17.7750   23.2250   27.4580 O.2   204  ASP204     -0.2718
     43  CB       -18.2250   26.4340   27.6080 C.3   204  ASP204      0.1424
     44  CG       -16.7830   26.1520   27.2070 C.2   204  ASP204      0.3668
     45  OD1      -16.5150   26.0240   25.9940 O.co2 204  ASP204     -0.2456
     46  OD2      -15.9250   26.0560   28.1090 O.co2 204  ASP204     -0.2456
     47  N        -18.9140   23.7130   29.3310 N.am  205  LEU205     -0.1979
     48  CA       -18.3760   22.5560   30.0600 C.3   205  LEU205      0.1596
     49  C        -19.2880   21.3330   29.9790 C.2   205  LEU205      0.2287
     50  O        -19.0250   20.3050   30.6160 O.2   205  LEU205     -0.2864
     51  CB       -18.1630   22.8990   31.5370 C.3   205  LEU205      0.0297
     52  CG       -17.2450   24.0820   31.8850 C.3   205  LEU205      0.0022
     53  CD1      -17.1560   24.1880   33.4030 C.3   205  LEU205      0.0001
     54  CD2      -15.8780   23.9390   31.2560 C.3   205  LEU205      0.0001
     55  N        -19.8950   18.7800   28.1930 N.3   207  ALA207     -0.1231
     56  CA       -19.4430   17.4080   27.9290 C.3   207  ALA207      0.1694
     57  C        -19.3720   16.5910   29.2380 C.2   207  ALA207      0.2591
     58  O        -19.5610   15.3630   29.2490 O.2   207  ALA207     -0.2718
     59  CB       -18.0850   17.4220   27.2340 C.3   207  ALA207      0.0304
     60  N        -19.1190   17.2900   30.3400 N.am  208  ILE208     -0.1980
     61  CA       -18.9960   16.6560   31.6530 C.3   208  ILE208      0.1595
     62  C        -20.3300   16.0940   32.1740 C.2   208  ILE208      0.2287
     63  O        -20.3510   15.3750   33.1740 O.2   208  ILE208     -0.2864
     64  CB       -18.3900   17.6550   32.7020 C.3   208  ILE208      0.0276
     65  CG1      -17.7110   16.9140   33.8640 C.3   208  ILE208      0.0022
     66  CG2      -19.4680   18.6270   33.2300 C.3   208  ILE208      0.0022
     67  CD1      -16.5480   16.0340   33.4080 C.3   208  ILE208      0.0001
     68  N        -18.9210   11.1730   27.3950 N.3   215  GLN215     -0.1245
     69  CA       -17.9380   11.8230   28.2590 C.3   215  GLN215      0.1566
     70  C        -16.5740   11.1430   28.1190 C.2   215  GLN215      0.2260
     71  O        -15.5430   11.8020   27.9990 O.2   215  GLN215     -0.2867
     72  CB       -18.4370   11.8070   29.7280 C.3   215  GLN215      0.0367
     73  CG       -17.3840   11.9830   30.8290 C.3   215  GLN215      0.0905
     74  CD       -16.5070   13.2320   30.7080 C.2   215  GLN215      0.2608
     75  OE1      -15.4310   13.2820   31.2980 O.2   215  GLN215     -0.2717
     76  NE2      -16.9540   14.2360   29.9620 N.am  215  GLN215     -0.0878
     77  N        -13.4410   13.1550   26.9500 N.3   219  ALA219     -0.1245
     78  CA       -12.3020   13.2940   27.8480 C.3   219  ALA219      0.1562
     79  C        -11.0020   12.8640   27.1680 C.2   219  ALA219      0.2260
     80  O         -9.9600   13.4470   27.4170 O.2   219  ALA219     -0.2867
     81  CB       -12.5220   12.5060   29.1360 C.3   219  ALA219      0.0290
     82  N         -9.9400   15.9010   25.2380 N.3   222  VAL222     -0.1231
     83  CA        -9.3890   16.9100   26.1370 C.3   222  VAL222      0.1692
     84  C         -7.9580   16.5490   26.5220 C.2   222  VAL222      0.2591
     85  O         -7.0760   17.3940   26.5210 O.2   222  VAL222     -0.2718
     86  CB       -10.2270   17.0650   27.4510 C.3   222  VAL222      0.0266
     87  CG1       -9.5170   17.9880   28.4290 C.3   222  VAL222      0.0020
     88  CG2      -11.6330   17.5810   27.1440 C.3   222  VAL222      0.0020
     89  N         -7.7500   15.2850   26.8700 N.am  223  ALA223     -0.1980
     90  CA        -6.4380   14.8110   27.3020 C.3   223  ALA223      0.1597
     91  C         -5.4520   14.9170   26.1470 C.2   223  ALA223      0.2287
     92  O         -4.3010   15.3030   26.3290 O.2   223  ALA223     -0.2864
     93  CB        -6.5320   13.3680   27.7960 C.3   223  ALA223      0.0319
     94  N         -4.4360   18.5190   25.7370 N.3   226  PHE226     -0.1227
     95  CA        -3.5700   18.9470   26.8390 C.3   226  PHE226      0.1736
     96  C         -2.1520   18.4020   26.6690 C.2   226  PHE226      0.2595
     97  O         -1.1690   19.1350   26.7880 O.2   226  PHE226     -0.2718
     98  CB        -4.1230   18.4740   28.1880 C.3   226  PHE226      0.0547
     99  CG        -5.3070   19.2640   28.6820 C.ar  226  PHE226     -0.0202
    100  CD1       -5.7410   20.3960   28.0030 C.ar  226  PHE226     -0.0042
    101  CD2       -5.9770   18.8790   29.8380 C.ar  226  PHE226     -0.0042
    102  CE1       -6.8340   21.1270   28.4560 C.ar  226  PHE226     -0.0003
    103  CE2       -7.0730   19.6090   30.3050 C.ar  226  PHE226     -0.0003
    104  CZ        -7.4990   20.7350   29.6090 C.ar  226  PHE226     -0.0000
    105  N         -2.0600   17.1060   26.3890 N.am  227  PHE227     -0.1976
    106  CA        -0.7700   16.4290   26.2730 C.3   227  PHE227      0.1639
    107  C          0.0230   16.8450   25.0320 C.2   227  PHE227      0.2290
    108  O          1.2510   16.9580   25.0870 O.2   227  PHE227     -0.2864
    109  CB        -0.9590   14.9120   26.3010 C.3   227  PHE227      0.0560
    110  CG        -1.4380   14.3930   27.6240 C.ar  227  PHE227     -0.0200
    111  CD1       -1.9910   13.1270   27.7320 C.ar  227  PHE227     -0.0042
    112  CD2       -1.3390   15.1790   28.7640 C.ar  227  PHE227     -0.0042
    113  CE1       -2.4320   12.6520   28.9580 C.ar  227  PHE227     -0.0003
    114  CE2       -1.7780   14.7130   29.9870 C.ar  227  PHE227     -0.0003
    115  CZ        -2.3240   13.4480   30.0870 C.ar  227  PHE227     -0.0000
    116  N         -1.4290   18.2160   34.4630 N.3   244  LEU244     -0.1245
    117  CA        -2.5550   18.0550   33.5320 C.3   244  LEU244      0.1561
    118  C         -2.0940   18.0620   32.0640 C.2   244  LEU244      0.2260
    119  O         -2.7400   17.4570   31.2000 O.2   244  LEU244     -0.2867
    120  CB        -3.6400   19.1180   33.7720 C.3   244  LEU244      0.0270
    121  CG        -5.0600   18.8800   33.3030 C.3   244  LEU244      0.0019
    122  CD1       -5.7020   17.6900   34.0030 C.3   244  LEU244      0.0001
    123  CD2       -5.8900   20.1430   33.5480 C.3   244  LEU244      0.0001
    124  N         -5.4490   11.0100   35.2860 N.3   253  ILE253     -0.1245
    125  CA        -6.6350   11.5920   34.6590 C.3   253  ILE253      0.1561
    126  C         -7.9590   11.3800   35.4440 C.2   253  ILE253      0.2260
    127  O         -8.6950   12.3330   35.6590 O.2   253  ILE253     -0.2867
    128  CB        -6.7860   11.1790   33.1700 C.3   253  ILE253      0.0252
    129  CG1       -5.7060   11.8460   32.3130 C.3   253  ILE253      0.0019
    130  CG2       -8.1640   11.5590   32.6430 C.3   253  ILE253      0.0019
    131  CD1       -5.7120   11.3490   30.8450 C.3   253  ILE253      0.0001
    132  N         -7.9610   13.6150   38.4030 N.3   256  MET256     -0.1230
    133  CA        -8.1230   14.9800   37.8930 C.3   256  MET256      0.1702
    134  C         -9.5730   15.3080   37.5280 C.2   256  MET256      0.2592
    135  O        -10.0760   16.3930   37.8440 O.2   256  MET256     -0.2718
    136  CB        -7.2230   15.2070   36.6730 C.3   256  MET256      0.0401
    137  CG        -5.7540   15.3060   37.0130 C.3   256  MET256      0.0596
    138  SD        -5.3990   16.7960   37.9900 S.3   256  MET256     -0.1393
    139  CE        -3.6070   16.6820   38.1530 C.3   256  MET256      0.0692
    140  N        -10.2420   14.3680   36.8720 N.am  257  GLN257     -0.1979
    141  CA       -11.6270   14.5670   36.4540 C.3   257  GLN257      0.1601
    142  C        -12.5850   14.6860   37.6350 C.2   257  GLN257      0.2287
    143  O        -13.4970   15.5110   37.6080 O.2   257  GLN257     -0.2864
    144  CB       -12.0970   13.4520   35.5130 C.3   257  GLN257      0.0394
    145  CG       -11.5190   13.5360   34.1030 C.3   257  GLN257      0.0908
    146  CD       -11.9200   14.8230   33.3860 C.2   257  GLN257      0.2608
    147  OE1      -11.3170   15.8660   33.6020 O.2   257  GLN257     -0.2717
    148  NE2      -12.9380   14.7450   32.5270 N.am  257  GLN257     -0.0878
    149  N        -11.6890   15.8380   40.5590 N.3   259  GLY259     -0.1210
    150  CA       -11.3740   17.1570   41.0950 C.3   259  GLY259      0.1956
    151  C        -12.0300   18.2570   40.2770 C.2   259  GLY259      0.2611
    152  O        -12.5820   19.2180   40.8250 O.2   259  GLY259     -0.2717
    153  N        -11.9770   18.1000   38.9570 N.am  260  PHE260     -0.1976
    154  CA       -12.6180   19.0320   38.0340 C.3   260  PHE260      0.1639
    155  C        -14.1190   19.1260   38.2820 C.2   260  PHE260      0.2290
    156  O        -14.6750   20.2240   38.3740 O.2   260  PHE260     -0.2864
    157  CB       -12.3190   18.6100   36.5880 C.3   260  PHE260      0.0560
    158  CG       -13.0560   19.4080   35.5420 C.ar  260  PHE260     -0.0200
    159  CD1      -12.8900   20.7860   35.4440 C.ar  260  PHE260     -0.0042
    160  CD2      -13.8910   18.7710   34.6350 C.ar  260  PHE260     -0.0042
    161  CE1      -13.5630   21.5160   34.4470 C.ar  260  PHE260     -0.0003
    162  CE2      -14.5580   19.4890   33.6420 C.ar  260  PHE260     -0.0003
    163  CZ       -14.4010   20.8610   33.5640 C.ar  260  PHE260     -0.0000
    164  N        -14.6200   20.6910   42.0560 N.3   263  ALA263     -0.1231
    165  CA       -14.1530   22.0640   42.2600 C.3   263  ALA263      0.1694
    166  C        -14.7960   23.0670   41.2980 C.2   263  ALA263      0.2591
    167  O        -15.0030   24.2360   41.6410 O.2   263  ALA263     -0.2718
    168  CB       -12.6220   22.1190   42.1060 C.3   263  ALA263      0.0304
    169  N        -15.0850   22.6030   40.0870 N.am  264  ILE264     -0.1980
    170  CA       -15.4950   23.4850   39.0010 C.3   264  ILE264      0.1595
    171  C        -16.9560   23.3050   38.5740 C.2   264  ILE264      0.2287
    172  O        -17.7010   24.2840   38.4770 O.2   264  ILE264     -0.2864
    173  CB       -14.5770   23.3160   37.7570 C.3   264  ILE264      0.0276
    174  CG1      -13.1140   23.6300   38.1060 C.3   264  ILE264      0.0022
    175  CG2      -15.0440   24.2080   36.6230 C.3   264  ILE264      0.0022
    176  CD1      -12.9280   25.0090   38.7090 C.3   264  ILE264      0.0001
@<TRIPOS>BOND
     1    16    15    2
     2    15    14    1
     3     1     2    1
     4     4     3    2
     5    14    13    1
     6    14    17    1
     7     3    13   am
     8     3     2    1
     9    17    18    1
    10     2     5    1
    11    18    20   ar
    12    18    19   ar
    13     5     6    1
    14    20    22   ar
    15    19    21   ar
    16     6     7   ar
    17     6     8   ar
    18     7     9   ar
    19     8    10   ar
    20     9    11   ar
    21    22    21   ar
    22   107   108    2
    23   107   106    1
    24    82    83    1
    25    10    11   ar
    26    11    12    1
    27    94    95    1
    28    45    44   ar
    29    83    84    1
    30    83    86    1
    31    91    92    2
    32    91    90    1
    33   106   109    1
    34   106   105    1
    35   109   110    1
    36   105    96   am
    37    85    84    2
    38    84    89   am
    39    96    97    2
    40    96    95    1
    41    95    98    1
    42    89    90    1
    43    77    78    1
    44    88    86    1
    45    79    80    2
    46    79    78    1
    47    44    43    1
    48    44    46   ar
    49    59    56    1
    50    90    93    1
    51    68    69    1
    52    40    43    1
    53    40    39    1
    54    40    41    1
    55    86    87    1
    56    42    41    2
    57   110   111   ar
    58   110   112   ar
    59   111   113   ar
    60    78    81    1
    61    56    55    1
    62    56    57    1
    63    30    28    1
    64    71    70    2
    65   100   102   ar
    66   100    99   ar
    67    41    47   am
    68    70    69    1
    69    98    99    1
    70    69    72    1
    71   102   104   ar
    72    99   101   ar
    73   112   114   ar
    74    29    27    1
    75   113   115   ar
    76    57    58    2
    77    57    60   am
    78    28    27    1
    79    47    48    1
    80   104   103   ar
    81    72    73    1
    82    27    24    1
    83   101   103   ar
    84    76    74   am
    85    49    48    1
    86    49    50    2
    87   114   115   ar
    88    48    51    1
    89    60    61    1
    90    74    73    1
    91    74    75    2
    92   131   129    1
    93    26    25    2
    94   119   118    2
    95    24    25    1
    96    24    23    1
    97    54    52    1
    98    51    52    1
    99    61    62    1
   100    61    64    1
   101    52    53    1
   102   118   117    1
   103    31    32    1
   104    62    63    2
   105   129   128    1
   106   148   146   am
   107   130   128    1
   108    64    66    1
   109    64    65    1
   110    37    36    1
   111    36    35    1
   112    36    38    1
   113   128   125    1
   114   121   123    1
   115   121   120    1
   116   121   122    1
   117   146   147    2
   118   146   145    1
   119    32    35    1
   120    32    33    1
   121    67    65    1
   122   117   120    1
   123   117   116    1
   124   163   162   ar
   125   163   161   ar
   126   162   160   ar
   127   145   144    1
   128   161   159   ar
   129    33    34    2
   130   160   158   ar
   131   125   124    1
   132   125   126    1
   133   159   158   ar
   134   126   127    2
   135   144   141    1
   136   158   157    1
   137   141   140    1
   138   141   142    1
   139   157   154    1
   140   175   173    1
   141   136   137    1
   142   136   133    1
   143   140   134   am
   144   137   138    1
   145   134   135    2
   146   134   133    1
   147   143   142    2
   148   173   174    1
   149   173   170    1
   150   133   132    1
   151   138   139    1
   152   154   155    1
   153   154   153    1
   154   174   176    1
   155   155   156    2
   156   172   171    2
   157   171   170    1
   158   153   151   am
   159   170   169    1
   160   169   166   am
   161   151   152    2
   162   151   150    1
   163   149   150    1
   164   166   167    2
   165   166   165    1
   166   164   165    1
   167   168   165    1
