@<TRIPOS>MOLECULE
tmp/3sigA00.pdb
 197 193 0 0 0
SMALL
GASTEIGER

@<TRIPOS>ATOM
      1  N          9.8130   -4.4340   -6.8930 N.3    64  THR64      -0.1203
      2  CA         9.9150   -5.5610   -7.7940 C.3    64  THR64       0.1994
      3  C          8.8520   -6.5960   -7.4130 C.2    64  THR64       0.2619
      4  O          8.3270   -6.6230   -6.2890 O.2    64  THR64      -0.2717
      5  CB        11.2730   -6.2610   -7.6980 C.3    64  THR64       0.1784
      6  OG1       11.4140   -6.7580   -6.3630 O.3    64  THR64      -0.2211
      7  CG2       12.4130   -5.3130   -8.0020 C.3    64  THR64       0.0376
      8  N          8.5550   -7.4840   -8.3500 N.am   65  THR65      -0.1938
      9  CA         7.6630   -8.6150   -8.0850 C.3    65  THR65       0.2028
     10  C          8.0900   -9.3450   -6.8230 C.2    65  THR65       0.2642
     11  O          7.2760   -9.6330   -5.9330 O.2    65  THR65      -0.2714
     12  CB         7.6470   -9.5840   -9.2630 C.3    65  THR65       0.1808
     13  OG1        7.4140   -8.8420  -10.4770 O.3    65  THR65      -0.2208
     14  CG2        6.5940  -10.6760   -9.0910 C.3    65  THR65       0.0379
     15  N          9.3510   -9.7060   -6.7510 N.am   66  LEU66      -0.1977
     16  CA         9.8220  -10.4770   -5.6030 C.3    66  LEU66       0.1596
     17  C          9.8000   -9.7140   -4.3080 C.2    66  LEU66       0.2287
     18  O          9.4910  -10.2920   -3.2650 O.2    66  LEU66      -0.2864
     19  CB        11.2040  -11.0270   -5.8750 C.3    66  LEU66       0.0297
     20  CG        11.1780  -12.1540   -6.9060 C.3    66  LEU66       0.0022
     21  CD1       12.5760  -12.6270   -7.1430 C.3    66  LEU66       0.0001
     22  CD2       10.2800  -13.3340   -6.5510 C.3    66  LEU66       0.0001
     23  N          5.8970  -12.5790  -16.0530 N.3    85  PHE85      -0.1241
     24  CA         5.6740  -11.9350  -17.3430 C.3    85  PHE85       0.1605
     25  C          6.4640  -12.7550  -18.3670 C.2    85  PHE85       0.2264
     26  O          7.6040  -12.4460  -18.7770 O.2    85  PHE85      -0.2867
     27  CB         6.1580  -10.4860  -17.3340 C.3    85  PHE85       0.0534
     28  CG         5.5820   -9.6190  -16.2250 C.ar   85  PHE85      -0.0203
     29  CD1        4.4190   -9.9360  -15.5270 C.ar   85  PHE85      -0.0042
     30  CD2        6.1860   -8.3950  -15.9410 C.ar   85  PHE85      -0.0042
     31  CE1        3.9160   -9.0930  -14.5490 C.ar   85  PHE85      -0.0003
     32  CE2        5.6920   -7.5500  -14.9480 C.ar   85  PHE85      -0.0003
     33  CZ         4.5660   -7.9010  -14.2470 C.ar   85  PHE85      -0.0000
     34  N          8.0350  -15.4280  -21.1780 N.3    87  SER87      -0.1217
     35  CA         8.3370  -15.8120  -22.5430 C.3    87  SER87       0.1889
     36  C          7.4220  -16.9640  -22.9200 C.2    87  SER87       0.2288
     37  O          7.2110  -17.9160  -22.1720 O.2    87  SER87      -0.2866
     38  CB         9.7690  -16.2890  -22.6320 C.3    87  SER87       0.2089
     39  OG        10.0180  -16.8490  -23.9330 O.3    87  SER87      -0.2183
     40  N         13.0840  -17.2800  -19.8550 N.3    93  GLY93      -0.1210
     41  CA        13.4800  -16.2990  -20.8290 C.3    93  GLY93       0.1956
     42  C         14.9440  -16.4380  -21.1820 C.2    93  GLY93       0.2612
     43  O         15.4380  -17.5310  -21.4130 O.2    93  GLY93      -0.2717
     44  N         15.6330  -15.3120  -21.2340 N.am   94  GLY94      -0.1956
     45  CA        17.0590  -15.3130  -21.5380 C.3    94  GLY94       0.1869
     46  C         17.9760  -15.3480  -20.3090 C.2    94  GLY94       0.2309
     47  O         19.0940  -14.8180  -20.3400 O.2    94  GLY94      -0.2863
     48  N         20.2410  -11.9450  -19.8160 N.3    99  ALA99      -0.1245
     49  CA        19.2280  -10.9510  -20.1860 C.3    99  ALA99       0.1562
     50  C         18.5630  -10.3750  -18.9400 C.2    99  ALA99       0.2260
     51  O         18.5310  -11.0180  -17.8850 O.2    99  ALA99      -0.2867
     52  CB        18.1780  -11.5510  -21.1160 C.3    99  ALA99       0.0290
     53  N         15.1370   -8.7070  -17.6370 N.3   101  ALA101     -0.1231
     54  CA        13.7180   -8.3960  -17.6170 C.3   101  ALA101      0.1694
     55  C         13.1160   -9.1560  -16.4350 C.2   101  ALA101      0.2592
     56  O         13.8410   -9.8020  -15.6730 O.2   101  ALA101     -0.2718
     57  CB        13.0650   -8.7620  -18.9520 C.3   101  ALA101      0.0304
     58  N         11.8140   -9.0580  -16.2540 N.am  102  GLN102     -0.1966
     59  CA        11.2000   -9.5820  -15.0380 C.3   102  GLN102      0.1733
     60  C         11.3300  -11.0910  -14.8980 C.2   102  GLN102      0.2616
     61  O         11.7120  -11.6040  -13.8360 O.2   102  GLN102     -0.2715
     62  CB         9.7330   -9.1450  -14.9290 C.3   102  GLN102      0.0408
     63  CG         9.0550   -9.4680  -13.6210 C.3   102  GLN102      0.0908
     64  CD         8.0110  -10.5580  -13.7540 C.2   102  GLN102      0.2608
     65  OE1        8.0320  -11.3790  -14.6890 O.2   102  GLN102     -0.2717
     66  NE2        7.0960  -10.5960  -12.8080 N.am  102  GLN102     -0.0878
     67  N         11.0280  -11.8380  -15.9420 N.am  103  GLU103     -0.1963
     68  CA        11.0910  -13.2830  -15.8620 C.3   103  GLU103      0.1733
     69  C         12.4970  -13.7400  -15.5250 C.2   103  GLU103      0.2616
     70  O         12.6940  -14.6500  -14.7360 O.2   103  GLU103     -0.2715
     71  CB        10.6270  -13.9510  -17.1660 C.3   103  GLU103      0.0429
     72  CG        10.8120  -15.4950  -17.0810 C.3   103  GLU103      0.1163
     73  CD        10.1600  -16.2840  -18.1910 C.2   103  GLU103      0.3649
     74  OE1       10.0730  -15.7630  -19.3310 O.co2 103  GLU103     -0.2457
     75  OE2        9.7860  -17.4630  -17.9310 O.co2 103  GLU103     -0.2457
     76  N         13.4910  -13.1540  -16.1670 N.am  104  GLU104     -0.1963
     77  CA        14.8800  -13.5340  -15.9050 C.3   104  GLU104      0.1733
     78  C         15.2420  -13.3330  -14.4400 C.2   104  GLU104      0.2617
     79  O         15.9640  -14.1330  -13.8550 O.2   104  GLU104     -0.2715
     80  CB        15.8370  -12.7860  -16.8250 C.3   104  GLU104      0.0429
     81  CG        15.7390  -13.2140  -18.2990 C.3   104  GLU104      0.1163
     82  CD        14.6620  -12.5340  -19.1210 C.2   104  GLU104      0.3649
     83  OE1       13.8530  -11.7580  -18.5780 O.co2 104  GLU104     -0.2457
     84  OE2       14.6290  -12.7940  -20.3430 O.co2 104  GLU104     -0.2457
     85  N         14.7810  -12.2240  -13.8640 N.am  105  GLY105     -0.1940
     86  CA        15.0260  -12.0100  -12.4500 C.3   105  GLY105      0.2014
     87  C         14.3710  -13.0900  -11.5930 C.2   105  GLY105      0.2638
     88  O         14.9620  -13.5840  -10.6210 O.2   105  GLY105     -0.2714
     89  N         13.1650  -13.4880  -11.9510 N.am  106  LEU106     -0.1977
     90  CA        12.5270  -14.5680  -11.1950 C.3   106  LEU106      0.1596
     91  C         13.3430  -15.8530  -11.3210 C.2   106  LEU106      0.2287
     92  O         13.5860  -16.5610  -10.3280 O.2   106  LEU106     -0.2864
     93  CB        11.1070  -14.8380  -11.7200 C.3   106  LEU106      0.0297
     94  CG        10.1510  -13.6430  -11.6640 C.3   106  LEU106      0.0022
     95  CD1        8.8020  -14.0130  -12.2010 C.3   106  LEU106      0.0001
     96  CD2       10.0390  -13.0260  -10.2500 C.3   106  LEU106      0.0001
     97  N          2.0440  -12.4040  -22.1060 N.3   168  ALA168     -0.1245
     98  CA         1.2190  -11.3670  -22.7170 C.3   168  ALA168      0.1562
     99  C          1.4400  -11.4530  -24.2270 C.2   168  ALA168      0.2260
    100  O          2.4950  -11.9070  -24.6870 O.2   168  ALA168     -0.2867
    101  CB         1.6050   -9.9820  -22.2030 C.3   168  ALA168      0.0290
    102  N          2.8800   -4.6370  -14.5550 N.3   210  ALA210     -0.1231
    103  CA         2.8070   -4.1340  -15.9190 C.3   210  ALA210      0.1694
    104  C          3.1550   -5.1890  -16.9590 C.2   210  ALA210      0.2592
    105  O          4.0230   -5.0350  -17.8030 O.2   210  ALA210     -0.2718
    106  CB         3.7010   -2.9120  -16.0580 C.3   210  ALA210      0.0304
    107  N          2.4480   -6.2980  -16.8480 N.am  211  TRP211     -0.1962
    108  CA         2.5270   -7.4880  -17.6940 C.3   211  TRP211      0.1771
    109  C          2.5170   -7.0890  -19.1590 C.2   211  TRP211      0.2620
    110  O          1.6380   -6.3340  -19.5990 O.2   211  TRP211     -0.2715
    111  CB         1.2950   -8.3170  -17.4020 C.3   211  TRP211      0.0590
    112  CG         1.1370   -9.6240  -18.0910 C.ar  211  TRP211      0.0006
    113  CD1        2.0600  -10.6310  -18.2580 C.ar  211  TRP211      0.0946
    114  CD2       -0.0870  -10.0920  -18.6300 C.ar  211  TRP211      0.0152
    115  NE1        1.4630  -11.7040  -18.8790 N.ar  211  TRP211     -0.2442
    116  CE2        0.1400  -11.4000  -19.0970 C.ar  211  TRP211      0.0810
    117  CE3       -1.3780   -9.5300  -18.7510 C.ar  211  TRP211      0.0012
    118  CZ2       -0.8580  -12.1560  -19.7030 C.ar  211  TRP211      0.0191
    119  CZ3       -2.3660  -10.2820  -19.3530 C.ar  211  TRP211      0.0001
    120  CH2       -2.1020  -11.5740  -19.8340 C.ar  211  TRP211      0.0015
    121  N          3.5170   -7.5150  -19.9150 N.am  212  GLY212     -0.1940
    122  CA         3.5320   -7.2720  -21.3430 C.3   212  GLY212      0.2014
    123  C          4.0290   -5.9020  -21.7650 C.2   212  GLY212      0.2639
    124  O          4.1060   -5.6560  -22.9710 O.2   212  GLY212     -0.2714
    125  N          4.3600   -5.0240  -20.8290 N.am  213  CYS213     -0.1953
    126  CA         4.5460   -3.6130  -21.1480 C.3   213  CYS213      0.1843
    127  C          5.9850   -3.1530  -21.3040 C.2   213  CYS213      0.2626
    128  O          6.2170   -1.9370  -21.4130 O.2   213  CYS213     -0.2714
    129  CB         3.8520   -2.7260  -20.1110 C.3   213  CYS213      0.0997
    130  SG         2.0780   -2.9230  -20.0140 S.3   213  CYS213     -0.0797
    131  N          6.9180   -4.1040  -21.2880 N.am  214  GLY214     -0.1940
    132  CA         8.3250   -3.7940  -21.4960 C.3   214  GLY214      0.2014
    133  C          8.7970   -4.4200  -22.7760 C.2   214  GLY214      0.2639
    134  O          8.5460   -3.8940  -23.8770 O.2   214  GLY214     -0.2714
    135  N          9.4180   -5.5800  -22.6620 N.am  215  VAL215     -0.1963
    136  CA         9.9210   -6.2750  -23.8380 C.3   215  VAL215      0.1727
    137  C          8.8160   -6.5160  -24.8560 C.2   215  VAL215      0.2616
    138  O          9.0710   -6.4340  -26.0610 O.2   215  VAL215     -0.2715
    139  CB        10.5860   -7.6030  -23.4150 C.3   215  VAL215      0.0290
    140  CG1       10.9830   -8.4500  -24.6060 C.3   215  VAL215      0.0023
    141  CG2       11.8300   -7.3370  -22.5180 C.3   215  VAL215      0.0023
    142  N          7.6120   -6.8290  -24.4080 N.am  216  PHE216     -0.1974
    143  CA         6.5030   -7.0990  -25.3430 C.3   216  PHE216      0.1639
    144  C          5.7100   -5.8730  -25.8210 C.2   216  PHE216      0.2290
    145  O          4.8310   -6.0040  -26.6530 O.2   216  PHE216     -0.2864
    146  CB         5.5550   -8.1220  -24.7300 C.3   216  PHE216      0.0560
    147  CG         6.0700   -9.5510  -24.7220 C.ar  216  PHE216     -0.0200
    148  CD1        7.2660   -9.9090  -25.3370 C.ar  216  PHE216     -0.0042
    149  CD2        5.3350  -10.5230  -24.1010 C.ar  216  PHE216     -0.0042
    150  CE1        7.6970  -11.2430  -25.3050 C.ar  216  PHE216     -0.0003
    151  CE2        5.7450  -11.8440  -24.0820 C.ar  216  PHE216     -0.0003
    152  CZ         6.9240  -12.2090  -24.6950 C.ar  216  PHE216     -0.0000
    153  N          2.9900   -4.3730   -8.3960 N.3   247  ALA247     -0.1231
    154  CA         4.3850   -4.0690   -8.0940 C.3   247  ALA247      0.1694
    155  C          5.0560   -3.7410   -9.4210 C.2   247  ALA247      0.2592
    156  O          5.2290   -4.6320  -10.2610 O.2   247  ALA247     -0.2718
    157  CB         5.0490   -5.2580   -7.4290 C.3   247  ALA247      0.0304
    158  N          5.3490   -2.4520   -9.6340 N.am  248  VAL248     -0.1966
    159  CA         5.8170   -2.0040  -10.9160 C.3   248  VAL248      0.1727
    160  C          7.1620   -1.2960  -10.7240 C.2   248  VAL248      0.2616
    161  O          7.2060   -0.1380  -10.3030 O.2   248  VAL248     -0.2715
    162  CB         4.8310   -1.0830  -11.5990 C.3   248  VAL248      0.0290
    163  CG1        5.3360   -0.8210  -13.0270 C.3   248  VAL248      0.0023
    164  CG2        3.4180   -1.7040  -11.6210 C.3   248  VAL248      0.0023
    165  N          8.2590   -1.9900  -11.0400 N.am  249  TRP249     -0.1960
    166  CA         9.6240   -1.5170  -10.9240 C.3   249  TRP249      0.1771
    167  C         10.0930   -1.1640  -12.3300 C.2   249  TRP249      0.2619
    168  O         10.4000   -2.0550  -13.1380 O.2   249  TRP249     -0.2715
    169  CB        10.5020   -2.6150  -10.3360 C.3   249  TRP249      0.0590
    170  CG        11.9260   -2.1970  -10.2030 C.ar  249  TRP249      0.0006
    171  CD1       12.3820   -1.1370   -9.4890 C.ar  249  TRP249      0.0946
    172  CD2       13.0620   -2.7510  -10.8620 C.ar  249  TRP249      0.0152
    173  NE1       13.7500   -1.0120   -9.6290 N.ar  249  TRP249     -0.2442
    174  CE2       14.1910   -1.9970  -10.4710 C.ar  249  TRP249      0.0810
    175  CE3       13.2500   -3.8300  -11.7140 C.ar  249  TRP249      0.0012
    176  CZ2       15.4870   -2.2970  -10.9060 C.ar  249  TRP249      0.0191
    177  CZ3       14.5380   -4.1280  -12.1520 C.ar  249  TRP249      0.0001
    178  CH2       15.6390   -3.3570  -11.7540 C.ar  249  TRP249      0.0015
    179  N         10.1180    0.1380  -12.6100 N.am  250  ASP250     -0.1971
    180  CA        10.3540    0.6440  -13.9500 C.3   250  ASP250      0.1709
    181  C         11.5150    1.6210  -13.8700 C.2   250  ASP250      0.2293
    182  O         11.3640    2.7580  -13.3960 O.2   250  ASP250     -0.2864
    183  CB         9.1080    1.3580  -14.4830 C.3   250  ASP250      0.1436
    184  CG         9.2490    1.7850  -15.9240 C.2   250  ASP250      0.3671
    185  OD1       10.3430    1.6150  -16.5100 O.co2 250  ASP250     -0.2456
    186  OD2        8.2290    2.2740  -16.4670 O.co2 250  ASP250     -0.2456
    187  N          5.4610    2.9450  -16.8130 N.3   257  ARG257     -0.1245
    188  CA         4.6140    1.8000  -16.5160 C.3   257  ARG257      0.1563
    189  C          4.0150    1.9690  -15.1290 C.2   257  ARG257      0.2260
    190  O          2.8270    1.6400  -14.9080 O.2   257  ARG257     -0.2867
    191  CB         5.3940    0.4710  -16.6100 C.3   257  ARG257      0.0307
    192  CG         5.4080   -0.1680  -18.0050 C.3   257  ARG257      0.0489
    193  CD         6.1190    0.5810  -19.0870 C.3   257  ARG257      0.2205
    194  NE         7.5290    0.8740  -18.8270 N.pl3 257  ARG257     -0.0865
    195  CZ         8.5300    0.6530  -19.6730 C.cat 257  ARG257      0.5346
    196  NH1        8.3310    0.0170  -20.8130 N.pl3 257  ARG257      0.1354
    197  NH2        9.7610    1.0450  -19.3610 N.pl3 257  ARG257      0.1354
@<TRIPOS>BOND
     1   145   144    2
     2   138   137    2
     3   144   143    1
     4   143   146    1
     5   143   142    1
     6   148   150   ar
     7   148   147   ar
     8   150   152   ar
     9   137   142   am
    10   137   136    1
    11   146   147    1
    12   147   149   ar
    13   152   151   ar
    14   100    99    2
    15   140   139    1
    16    99    98    1
    17   149   151   ar
    18    39    38    1
    19   134   133    2
    20   136   139    1
    21   136   135    1
    22   139   141    1
    23   124   123    2
    24    36    35    1
    25    36    37    2
    26   133   135   am
    27   133   132    1
    28    98   101    1
    29    98    97    1
    30    38    35    1
    31    35    34    1
    32   123   122    1
    33   123   125   am
    34    45    44    1
    35    45    46    1
    36   132   131    1
    37   128   127    2
    38    43    42    2
    39   122   121    1
    40   127   131   am
    41   127   126    1
    42    44    42   am
    43    42    41    1
    44   126   125    1
    45   126   129    1
    46    52    49    1
    47    41    40    1
    48   196   195    1
    49    84    82   ar
    50    47    46    2
    51    49    48    1
    52    49    50    1
    53   129   130    1
    54   121   109   am
    55   120   118   ar
    56   120   119   ar
    57   118   116   ar
    58   195   197    1
    59   195   194    2
    60   110   109    2
    61   119   117   ar
    62    74    73   ar
    63   109   108    1
    64    82    83   ar
    65    82    81    1
    66   116   115   ar
    67   116   114   ar
    68   193   194    1
    69   193   192    1
    70    57    54    1
    71    50    51    2
    72   115   113   ar
    73    26    25    2
    74   117   114   ar
    75   114   112   ar
    76    25    24    1
    77    81    80    1
    78   113   112   ar
    79    73    75   ar
    80    73    72    1
    81   112   111    1
    82   192   191    1
    83   105   104    2
    84   108   111    1
    85   108   107    1
    86    53    54    1
    87    54    55    1
    88    24    27    1
    89    24    23    1
    90    27    28    1
    91    71    72    1
    92    71    68    1
    93   104   107   am
    94   104   103    1
    95    80    77    1
    96   187   188    1
    97   191   188    1
    98   188   189    1
    99   185   184   ar
   100   186   184   ar
   101    55    58   am
   102    55    56    2
   103    58    59    1
   104    28    30   ar
   105    28    29   ar
   106    76    77    1
   107    76    69   am
   108   106   103    1
   109    67    68    1
   110    67    60   am
   111    30    32   ar
   112   184   183    1
   113   103   102    1
   114    77    78    1
   115    68    69    1
   116    29    31   ar
   117    69    70    2
   118   189   190    2
   119    59    62    1
   120    59    60    1
   121    32    33   ar
   122    62    63    1
   123    60    61    2
   124    65    64    2
   125    31    33   ar
   126   183   180    1
   127    78    85   am
   128    78    79    2
   129   180   181    1
   130   180   179    1
   131   181   182    2
   132    85    86    1
   133    64    63    1
   134    64    66   am
   135   168   167    2
   136   163   162    1
   137   179   167   am
   138    86    87    1
   139   167   166    1
   140    95    94    1
   141   177   178   ar
   142   177   175   ar
   143    89    87   am
   144    89    90    1
   145   178   176   ar
   146    93    94    1
   147    93    90    1
   148   175   172   ar
   149    94    96    1
   150   164   162    1
   151   162   159    1
   152    87    88    2
   153    91    90    1
   154    91    92    2
   155   165   166    1
   156   165   160   am
   157   166   169    1
   158   159   160    1
   159   159   158    1
   160   176   174   ar
   161   172   174   ar
   162   172   170   ar
   163   160   161    2
   164    13    12    1
   165   174   173   ar
   166   169   170    1
   167   156   155    2
   168   170   171   ar
   169   158   155   am
   170   173   171   ar
   171   155   154    1
   172    12    14    1
   173    12     9    1
   174   153   154    1
   175     8     9    1
   176     8     3   am
   177   154   157    1
   178     9    10    1
   179     7     5    1
   180     2     5    1
   181     2     3    1
   182     2     1    1
   183     5     6    1
   184     3     4    2
   185    21    20    1
   186    20    22    1
   187    20    19    1
   188    10    15   am
   189    10    11    2
   190    15    16    1
   191    19    16    1
   192    16    17    1
   193    17    18    2
