@<TRIPOS>MOLECULE
tmp/3sikA00.pdb
 139 131 0 0 0
SMALL
GASTEIGER

@<TRIPOS>ATOM
      1  N         30.2190   14.0660   -3.2450 N.3    17  LYS17      -0.1245
      2  CA        30.9620   13.5710   -2.0860 C.3    17  LYS17       0.1561
      3  C         31.1260   14.6630   -1.0520 C.2    17  LYS17       0.2260
      4  O         30.9930   15.8360   -1.3500 O.2    17  LYS17      -0.2867
      5  CB        32.3260   13.0240   -2.4890 C.3    17  LYS17       0.0271
      6  CG        32.2250   11.8420   -3.4340 C.3    17  LYS17       0.0035
      7  CD        33.5880   11.2660   -3.7380 C.3    17  LYS17       0.0206
      8  CE        33.4910   10.1940   -4.7980 C.3    17  LYS17       0.1093
      9  NZ        34.8190    9.5930   -5.0380 N.3    17  LYS17      -0.1314
     10  N         28.6440   11.0760   -6.2900 N.3    24  SER24      -0.1202
     11  CA        28.6920   10.1510   -5.1640 C.3    24  SER24       0.2020
     12  C         27.9590    8.8680   -5.5000 C.2    24  SER24       0.2619
     13  O         26.9980    8.8810   -6.2540 O.2    24  SER24      -0.2717
     14  CB        28.0700   10.7760   -3.9200 C.3    24  SER24       0.2103
     15  OG        27.9130    9.8150   -2.8980 O.3    24  SER24      -0.2182
     16  N         28.4270    7.7520   -4.9540 N.am   25  ARG25      -0.1965
     17  CA        27.7810    6.4700   -5.2090 C.3    25  ARG25       0.1729
     18  C         26.3100    6.5020   -4.7730 C.2    25  ARG25       0.2616
     19  O         25.4860    5.7450   -5.2780 O.2    25  ARG25      -0.2715
     20  CB        28.5440    5.3210   -4.5300 C.3    25  ARG25       0.0348
     21  CG        29.9980    5.1720   -4.9780 C.3    25  ARG25       0.0492
     22  CD        30.1840    5.3860   -6.4890 C.3    25  ARG25       0.2205
     23  NE        31.5870    5.2560   -6.9040 N.pl3  25  ARG25      -0.0865
     24  CZ        32.5140    6.2110   -6.7890 C.cat  25  ARG25       0.5346
     25  NH1       32.2190    7.3920   -6.2580 N.pl3  25  ARG25       0.1354
     26  NH2       33.7530    5.9800   -7.1980 N.pl3  25  ARG25       0.1354
     27  N         25.9890    7.4030   -3.8490 N.am   26  MET26      -0.1977
     28  CA        24.6310    7.5270   -3.3550 C.3    26  MET26       0.1605
     29  C         23.6820    7.8910   -4.4770 C.2    26  MET26       0.2287
     30  O         22.4790    7.7600   -4.3230 O.2    26  MET26      -0.2864
     31  CB        24.5190    8.5530   -2.2230 C.3    26  MET26       0.0413
     32  CG        25.1630    8.1270   -0.9030 C.3    26  MET26       0.0598
     33  SD        25.0960    6.3630   -0.5160 S.3    26  MET26      -0.1393
     34  CE        23.3390    6.0620   -0.3390 C.3    26  MET26       0.0692
     35  N         21.4870    5.0840   -5.2690 N.3    29  TYR29      -0.1241
     36  CA        20.6090    4.6820   -4.1750 C.3    29  TYR29       0.1605
     37  C         19.5050    5.7110   -4.0020 C.2    29  TYR29       0.2264
     38  O         18.3340    5.3680   -3.9880 O.2    29  TYR29      -0.2867
     39  CB        21.3950    4.4030   -2.8850 C.3    29  TYR29       0.0534
     40  CG        22.3150    3.2270   -3.0800 C.ar   29  TYR29      -0.0201
     41  CD1       23.5210    3.3800   -3.7510 C.ar   29  TYR29      -0.0009
     42  CD2       21.9550    1.9530   -2.6620 C.ar   29  TYR29      -0.0009
     43  CE1       24.3600    2.3050   -3.9760 C.ar   29  TYR29       0.0417
     44  CE2       22.7930    0.8700   -2.8780 C.ar   29  TYR29       0.0417
     45  CZ        23.9930    1.0560   -3.5400 C.ar   29  TYR29       0.1957
     46  OH        24.8400    0.0060   -3.7710 O.3    29  TYR29      -0.2866
     47  N         18.0910   -0.3900   -1.6450 N.3    51  ASP51      -0.1239
     48  CA        18.9980   -1.1170   -0.7620 C.3    51  ASP51       0.1674
     49  C         18.9000   -0.5570    0.6600 C.2    51  ASP51       0.2266
     50  O         19.9100   -0.3000    1.3060 O.2    51  ASP51      -0.2867
     51  CB        20.4350   -1.0640   -1.2840 C.3    51  ASP51       0.1410
     52  CG        21.3010   -2.1770   -0.7220 C.2    51  ASP51       0.3668
     53  OD1       20.8540   -2.8710    0.2110 O.co2  51  ASP51      -0.2456
     54  OD2       22.4340   -2.3600   -1.2080 O.co2  51  ASP51      -0.2456
     55  N         20.9150   -1.7770    3.8960 N.3    54  SER54      -0.1202
     56  CA        22.3190   -1.3990    3.9990 C.3    54  SER54       0.2020
     57  C         22.5320    0.0680    4.3090 C.2    54  SER54       0.2618
     58  O         23.5940    0.4280    4.7920 O.2    54  SER54      -0.2717
     59  CB        23.0780   -1.7690    2.7290 C.3    54  SER54       0.2103
     60  OG        23.4940   -3.1170    2.7800 O.3    54  SER54      -0.2182
     61  N         21.5420    0.9210    4.0390 N.am   55  ILE55      -0.1979
     62  CA        21.6750    2.3160    4.4370 C.3    55  ILE55       0.1595
     63  C         20.9040    2.3800    5.7320 C.2    55  ILE55       0.2287
     64  O         19.7230    2.7060    5.7450 O.2    55  ILE55      -0.2864
     65  CB        20.9410    3.3030    3.4440 C.3    55  ILE55       0.0276
     66  CG1       21.0300    2.8600    1.9810 C.3    55  ILE55       0.0022
     67  CG2       21.4400    4.7310    3.6020 C.3    55  ILE55       0.0022
     68  CD1       22.4100    2.7590    1.4670 C.3    55  ILE55       0.0001
     69  N         25.6690    9.3260    5.6090 N.3    98  VAL98      -0.1245
     70  CA        25.0300    8.0190    5.5810 C.3    98  VAL98       0.1561
     71  C         25.9210    6.9840    6.2310 C.2    98  VAL98       0.2260
     72  O         27.1150    6.9710    5.9950 O.2    98  VAL98      -0.2867
     73  CB        24.7010    7.5490    4.1410 C.3    98  VAL98       0.0252
     74  CG1       23.4760    8.2590    3.6130 C.3    98  VAL98       0.0019
     75  CG2       25.8870    7.7510    3.2180 C.3    98  VAL98       0.0019
     76  N         26.6140    3.0270    6.2000 N.3   100  ILE100     -0.1245
     77  CA        26.3800    1.8390    5.3860 C.3   100  ILE100      0.1561
     78  C         26.9010    0.6020    6.1010 C.2   100  ILE100      0.2260
     79  O         28.0940    0.4980    6.3700 O.2   100  ILE100     -0.2867
     80  CB        27.1410    1.9120    4.0730 C.3   100  ILE100      0.0252
     81  CG1       27.1180    3.3290    3.5220 C.3   100  ILE100      0.0019
     82  CG2       26.5460    0.9620    3.0810 C.3   100  ILE100      0.0019
     83  CD1       25.7560    3.7490    3.0540 C.3   100  ILE100      0.0001
     84  N         27.1290   -3.5250    5.9110 N.3   102  ILE102     -0.1245
     85  CA        27.0020   -4.7570    5.1620 C.3   102  ILE102      0.1561
     86  C         27.6600   -5.8410    5.9900 C.2   102  ILE102      0.2260
     87  O         28.8580   -6.0640    5.8800 O.2   102  ILE102     -0.2867
     88  CB        27.6970   -4.6260    3.8060 C.3   102  ILE102      0.0252
     89  CG1       26.9710   -3.5810    2.9510 C.3   102  ILE102      0.0019
     90  CG2       27.7740   -5.9720    3.1050 C.3   102  ILE102      0.0019
     91  CD1       27.6770   -3.2420    1.6700 C.3   102  ILE102      0.0001
     92  N         30.2750   -9.0010    4.9540 N.3   105  ILE105     -0.1245
     93  CA        31.6750   -8.6580    4.6680 C.3   105  ILE105      0.1561
     94  C         32.3070   -7.7750    5.7380 C.2   105  ILE105      0.2260
     95  O         33.4130   -7.2850    5.5600 O.2   105  ILE105     -0.2867
     96  CB        31.8690   -8.0080    3.2940 C.3   105  ILE105      0.0252
     97  CG1       31.5040   -6.5270    3.3530 C.3   105  ILE105      0.0019
     98  CG2       31.0540   -8.7510    2.2430 C.3   105  ILE105      0.0019
     99  CD1       32.1940   -5.6830    2.3180 C.3   105  ILE105      0.0001
    100  N         31.5000   -4.8130    6.6810 N.3   107  TYR107     -0.1241
    101  CA        31.5990   -3.4610    6.1730 C.3   107  TYR107      0.1605
    102  C         30.6580   -2.6020    6.9820 C.2   107  TYR107      0.2264
    103  O         29.4450   -2.7590    6.9230 O.2   107  TYR107     -0.2867
    104  CB        31.1870   -3.4560    4.7030 C.3   107  TYR107      0.0534
    105  CG        31.2910   -2.1310    3.9880 C.ar  107  TYR107     -0.0201
    106  CD1       32.4670   -1.7470    3.3670 C.ar  107  TYR107     -0.0009
    107  CD2       30.2020   -1.2820    3.8980 C.ar  107  TYR107     -0.0009
    108  CE1       32.5650   -0.5450    2.6910 C.ar  107  TYR107      0.0417
    109  CE2       30.2900   -0.0730    3.2220 C.ar  107  TYR107      0.0417
    110  CZ        31.4760    0.2890    2.6230 C.ar  107  TYR107      0.1957
    111  OH        31.5760    1.4810    1.9490 O.3   107  TYR107     -0.2866
    112  N         29.7550    7.9800    5.8670 N.3   111  TYR111     -0.1227
    113  CA        30.2620    8.8520    4.8040 C.3   111  TYR111      0.1736
    114  C         29.6540   10.2440    4.7750 C.2   111  TYR111      0.2595
    115  O         28.5110   10.4330    5.1730 O.2   111  TYR111     -0.2718
    116  CB        30.0300    8.2050    3.4450 C.3   111  TYR111      0.0548
    117  CG        30.7740    6.9140    3.2530 C.ar  111  TYR111     -0.0200
    118  CD1       32.1590    6.8960    3.1910 C.ar  111  TYR111     -0.0009
    119  CD2       30.0960    5.7130    3.1260 C.ar  111  TYR111     -0.0009
    120  CE1       32.8420    5.7210    3.0050 C.ar  111  TYR111      0.0417
    121  CE2       30.7700    4.5380    2.9460 C.ar  111  TYR111      0.0417
    122  CZ        32.1410    4.5460    2.8870 C.ar  111  TYR111      0.1957
    123  OH        32.8150    3.3720    2.6980 O.3   111  TYR111     -0.2866
    124  N         30.4160   11.2130    4.2780 N.am  112  ASP112     -0.1960
    125  CA        29.8850   12.5550    4.0880 C.3   112  ASP112      0.1840
    126  C         29.4410   12.7090    2.6420 C.2   112  ASP112      0.2621
    127  O         30.1530   12.3200    1.7140 O.2   112  ASP112     -0.2715
    128  CB        30.9090   13.6440    4.4490 C.3   112  ASP112      0.1450
    129  CG        31.0050   13.9060    5.9490 C.2   112  ASP112      0.3671
    130  OD1       32.0190   14.4830    6.3810 O.co2 112  ASP112     -0.2456
    131  OD2       30.0830   13.5450    6.7020 O.co2 112  ASP112     -0.2456
    132  N         28.2440   13.2560    2.4670 N.am  113  ILE113     -0.1977
    133  CA        27.7090   13.5440    1.1450 C.3   113  ILE113      0.1596
    134  C         27.0180   14.8910    1.1480 C.2   113  ILE113      0.2287
    135  O         26.7570   15.4610    2.2010 O.2   113  ILE113     -0.2864
    136  CB        26.6970   12.4920    0.6870 C.3   113  ILE113      0.0276
    137  CG1       25.4970   12.4740    1.6290 C.3   113  ILE113      0.0022
    138  CG2       27.3690   11.1210    0.5660 C.3   113  ILE113      0.0022
    139  CD1       24.3780   11.5820    1.1550 C.3   113  ILE113      0.0001
@<TRIPOS>BOND
     1    26    24    1
     2    23    24    2
     3    23    22    1
     4    24    25    1
     5    22    21    1
     6    10    11    1
     7    13    12    2
     8    12    11    1
     9    12    16   am
    10    19    18    2
    11    35    36    1
    12    17    16    1
    13    17    18    1
    14    17    20    1
    15    11    14    1
    16     9     8    1
    17    21    20    1
    18     8     7    1
    19    18    27   am
    20    29    30    2
    21    29    28    1
    22    36    37    1
    23    36    39    1
    24    37    38    2
    25    43    41   ar
    26    43    45   ar
    27    14    15    1
    28    27    28    1
    29    46    45    1
    30    41    40   ar
    31     7     6    1
    32    45    44   ar
    33     6     5    1
    34    28    31    1
    35     1     2    1
    36    40    39    1
    37    40    42   ar
    38    44    42   ar
    39     5     2    1
    40    31    32    1
    41     2     3    1
    42    47    48    1
    43     4     3    2
    44    51    48    1
    45    51    52    1
    46    54    52   ar
    47    32    33    1
    48    48    49    1
    49    52    53   ar
    50    33    34    1
    51   138   136    1
    52    49    50    2
    53   136   133    1
    54   136   137    1
    55   133   134    1
    56   133   132    1
    57   134   135    2
    58   139   137    1
    59    68    66    1
    60    91    89    1
    61   127   126    2
    62   111   110    1
    63    66    65    1
    64    98    96    1
    65    99    97    1
    66   132   126   am
    67   110   108   ar
    68   110   109   ar
    69   126   125    1
    70   108   106   ar
    71   123   122    1
    72    59    60    1
    73    59    56    1
    74   122   121   ar
    75   122   120   ar
    76   121   119   ar
    77    89    88    1
    78   120   118   ar
    79    83    81    1
    80    82    80    1
    81    90    88    1
    82   119   117   ar
    83   118   117   ar
    84    75    73    1
    85   109   107   ar
    86   117   116    1
    87    96    97    1
    88    96    93    1
    89   106   105   ar
    90    65    67    1
    91    65    62    1
    92   116   113    1
    93    81    80    1
    94    74    73    1
    95    88    85    1
    96    55    56    1
    97   107   105   ar
    98   105   104    1
    99    56    57    1
   100    61    57   am
   101    61    62    1
   102    80    77    1
   103   125   124    1
   104   125   128    1
   105    73    70    1
   106   124   114   am
   107    57    58    2
   108    62    63    1
   109   128   129    1
   110    93    92    1
   111    93    94    1
   112   104   101    1
   113   114   113    1
   114   114   115    2
   115   113   112    1
   116    85    84    1
   117    85    86    1
   118    77    78    1
   119    77    76    1
   120    95    94    2
   121    70    69    1
   122    70    71    1
   123    63    64    2
   124    87    86    2
   125   129   130   ar
   126   129   131   ar
   127    72    71    2
   128    78    79    2
   129   101   100    1
   130   101   102    1
   131   103   102    2
