@<TRIPOS>MOLECULE
tmp/3sioE02.pdb
 79 75 0 0 0
SMALL
GASTEIGER

@<TRIPOS>ATOM
      1  N        -21.4220    6.1150  -24.5650 N.3    41  TYR41      -0.1241
      2  CA       -21.3990    4.7470  -24.0660 C.3    41  TYR41       0.1605
      3  C        -22.5240    3.9470  -24.7090 C.2    41  TYR41       0.2264
      4  O        -23.6740    4.3990  -24.7570 O.2    41  TYR41      -0.2867
      5  CB       -21.5290    4.7020  -22.5380 C.3    41  TYR41       0.0534
      6  CG       -20.3260    5.2700  -21.8020 C.ar   41  TYR41      -0.0201
      7  CD1      -19.2230    4.4660  -21.4840 C.ar   41  TYR41      -0.0009
      8  CD2      -20.2920    6.6050  -21.4200 C.ar   41  TYR41      -0.0009
      9  CE1      -18.1160    4.9880  -20.8130 C.ar   41  TYR41       0.0417
     10  CE2      -19.1920    7.1370  -20.7490 C.ar   41  TYR41       0.0417
     11  CZ       -18.1090    6.3270  -20.4500 C.ar   41  TYR41       0.1957
     12  OH       -17.0350    6.8740  -19.7830 O.3    41  TYR41      -0.2866
     13  N        -25.6460    6.5010  -23.8660 N.3    68  SER68      -0.1217
     14  CA       -25.6190    7.6080  -22.9170 C.3    68  SER68       0.1889
     15  C        -24.3990    8.4800  -23.1490 C.2    68  SER68       0.2288
     16  O        -23.3640    8.0140  -23.6240 O.2    68  SER68      -0.2866
     17  CB       -25.6750    7.1210  -21.4640 C.3    68  SER68       0.2089
     18  OG       -24.7100    6.1220  -21.2420 O.3    68  SER68      -0.2183
     19  N        -34.3120   16.3870   -9.9330 N.3    85  THR85      -0.1218
     20  CA       -32.9920   15.8830  -10.3140 C.3    85  THR85       0.1862
     21  C        -32.8840   15.2510  -11.7050 C.2    85  THR85       0.2287
     22  O        -31.7760   15.0160  -12.2020 O.2    85  THR85      -0.2866
     23  CB       -32.4950   14.8840   -9.2600 C.3    85  THR85       0.1770
     24  OG1      -33.4590   13.8290   -9.1260 O.3    85  THR85      -0.2211
     25  CG2      -32.3390   15.5870   -7.9190 C.3    85  THR85       0.0375
     26  N        -30.5670   13.9250  -16.7040 N.3   119  ASN119     -0.1225
     27  CA       -30.3330   14.2170  -15.2900 C.3   119  ASN119      0.1785
     28  C        -29.5700   15.5160  -15.0690 C.2   119  ASN119      0.2598
     29  O        -28.9800   16.0480  -16.0080 O.2   119  ASN119     -0.2718
     30  CB       -29.8070   12.9980  -14.4810 C.3   119  ASN119      0.1169
     31  CG       -28.2910   12.7660  -14.6010 C.2   119  ASN119      0.2627
     32  OD1      -27.5300   13.5700  -15.1700 O.2   119  ASN119     -0.2716
     33  ND2      -27.8530   11.6440  -14.0170 N.am  119  ASN119     -0.0877
     34  N        -29.6600   16.0540  -13.8520 N.am  120  SER120     -0.1938
     35  CA       -29.1630   17.3980  -13.5190 C.3   120  SER120      0.2055
     36  C        -27.6860   17.6440  -13.8320 C.2   120  SER120      0.2643
     37  O        -27.2800   18.7770  -14.0820 O.2   120  SER120     -0.2714
     38  CB       -29.4610   17.7420  -12.0470 C.3   120  SER120      0.2130
     39  OG       -28.7290   16.9310  -11.1320 O.3   120  SER120     -0.2179
     40  N        -26.8960   16.5790  -13.8670 N.am  121  SER121     -0.1949
     41  CA       -25.4800   16.6940  -14.2310 C.3   121  SER121      0.1924
     42  C        -25.2780   16.6720  -15.7570 C.2   121  SER121      0.2314
     43  O        -24.1500   16.6890  -16.2420 O.2   121  SER121     -0.2863
     44  CB       -24.6320   15.6170  -13.5420 C.3   121  SER121      0.2116
     45  OG       -25.0980   14.3220  -13.8680 O.3   121  SER121     -0.2180
     46  N        -26.4480   14.3830  -18.0160 N.3   123  HIS123     -0.1226
     47  CA       -26.3260   13.0680  -18.6250 C.3   123  HIS123      0.1752
     48  C        -27.6320   12.6670  -19.3150 C.2   123  HIS123      0.2596
     49  O        -28.7310   12.9210  -18.8190 O.2   123  HIS123     -0.2718
     50  CB       -25.9230   12.0060  -17.5860 C.3   123  HIS123      0.0759
     51  CG       -24.5240   12.1510  -17.0610 C.ar  123  HIS123      0.0818
     52  ND1      -23.4440   11.4950  -17.6190 N.ar  123  HIS123     -0.2268
     53  CD2      -24.0340   12.8530  -16.0080 C.ar  123  HIS123      0.1154
     54  CE1      -22.3490   11.7990  -16.9420 C.ar  123  HIS123      0.1986
     55  NE2      -22.6780   12.6260  -15.9630 N.ar  123  HIS123     -0.2212
     56  N        -27.5100   12.0420  -20.4720 N.am  124  VAL124     -0.1966
     57  CA       -28.6850   11.5850  -21.1980 C.3   124  VAL124      0.1727
     58  C        -28.6340   10.0880  -21.3120 C.2   124  VAL124      0.2616
     59  O        -27.5880    9.5150  -21.6140 O.2   124  VAL124     -0.2715
     60  CB       -28.7560   12.1730  -22.6230 C.3   124  VAL124      0.0290
     61  CG1      -29.9590   11.6130  -23.3650 C.3   124  VAL124      0.0023
     62  CG2      -28.8280   13.6780  -22.5630 C.3   124  VAL124      0.0023
     63  N        -29.7640    9.4530  -21.0480 N.am  125  GLN125     -0.1977
     64  CA       -29.8710    8.0220  -21.2220 C.3   125  GLN125      0.1601
     65  C        -30.9950    7.7310  -22.2180 C.2   125  GLN125      0.2287
     66  O        -32.1340    8.1600  -22.0280 O.2   125  GLN125     -0.2864
     67  CB       -30.1240    7.3460  -19.8810 C.3   125  GLN125      0.0394
     68  CG       -30.3880    5.8660  -19.9870 C.3   125  GLN125      0.0908
     69  CD       -30.5320    5.2180  -18.6200 C.2   125  GLN125      0.2608
     70  OE1      -31.3620    4.3230  -18.4270 O.2   125  GLN125     -0.2717
     71  NE2      -29.7260    5.6740  -17.6570 N.am  125  GLN125     -0.0878
     72  N        -19.7390   -0.1180  -21.1800 N.3   168  ASP168     -0.1239
     73  CA       -19.7260   -0.4460  -19.7590 C.3   168  ASP168      0.1674
     74  C        -19.0290   -1.7950  -19.5550 C.2   168  ASP168      0.2266
     75  O        -18.0740   -1.9000  -18.7880 O.2   168  ASP168     -0.2867
     76  CB       -21.1540   -0.4990  -19.2180 C.3   168  ASP168      0.1410
     77  CG       -21.9730    0.7280  -19.6120 C.2   168  ASP168      0.3668
     78  OD1      -21.4640    1.8630  -19.4610 O.co2 168  ASP168     -0.2456
     79  OD2      -23.1220    0.5620  -20.0820 O.co2 168  ASP168     -0.2456
@<TRIPOS>BOND
     1     4     3    2
     2     3     2    1
     3     1     2    1
     4     2     5    1
     5    13    14    1
     6    16    15    2
     7    61    60    1
     8    15    14    1
     9    14    17    1
    10    60    62    1
    11    60    57    1
    12     5     6    1
    13    65    66    2
    14    65    64    1
    15     6     7   ar
    16     6     8   ar
    17    59    58    2
    18     7     9   ar
    19    17    18    1
    20     8    10   ar
    21    58    57    1
    22    58    63   am
    23    64    63    1
    24    64    67    1
    25    57    56    1
    26    72    73    1
    27     9    11   ar
    28    10    11   ar
    29    56    48   am
    30    11    12    1
    31    79    77   ar
    32    68    67    1
    33    68    69    1
    34    73    74    1
    35    73    76    1
    36    77    78   ar
    37    77    76    1
    38    74    75    2
    39    48    49    2
    40    48    47    1
    41    47    46    1
    42    47    50    1
    43    69    70    2
    44    69    71   am
    45    52    51   ar
    46    52    54   ar
    47    50    51    1
    48    51    53   ar
    49    54    55   ar
    50    26    27    1
    51    43    42    2
    52    29    28    2
    53    53    55   ar
    54    42    41    1
    55    27    28    1
    56    27    30    1
    57    32    31    2
    58    28    34   am
    59    31    30    1
    60    31    33   am
    61    41    40    1
    62    41    44    1
    63    37    36    2
    64    45    44    1
    65    40    36   am
    66    34    35    1
    67    36    35    1
    68    35    38    1
    69    22    21    2
    70    38    39    1
    71    21    20    1
    72    20    19    1
    73    20    23    1
    74    23    24    1
    75    23    25    1
