@<TRIPOS>MOLECULE
tmp/3sioC02.pdb
 134 133 0 0 0
SMALL
GASTEIGER

@<TRIPOS>ATOM
      1  N        -56.0580    5.1390  -62.8290 N.3    98  TYR98      -0.1227
      2  CA       -57.3890    4.8240  -62.2960 C.3    98  TYR98       0.1736
      3  C        -57.5190    3.4180  -61.7330 C.2    98  TYR98       0.2596
      4  O        -58.3450    3.1700  -60.8760 O.2    98  TYR98      -0.2718
      5  CB       -58.4530    5.0440  -63.3790 C.3    98  TYR98       0.0548
      6  CG       -58.6690    6.5080  -63.7300 C.ar   98  TYR98      -0.0200
      7  CD1      -58.5050    7.4990  -62.7680 C.ar   98  TYR98      -0.0009
      8  CD2      -59.0190    6.9000  -65.0090 C.ar   98  TYR98      -0.0009
      9  CE1      -58.7040    8.8390  -63.0650 C.ar   98  TYR98       0.0417
     10  CE2      -59.2280    8.2490  -65.3180 C.ar   98  TYR98       0.0417
     11  CZ       -59.0660    9.2090  -64.3330 C.ar   98  TYR98       0.1957
     12  OH       -59.2480   10.5410  -64.6030 O.3    98  TYR98      -0.2866
     13  N        -56.7620    2.4940  -62.3070 N.am   99  SER99      -0.1952
     14  CA       -56.7100    1.0790  -61.9250 C.3    99  SER99       0.1924
     15  C        -55.4690    0.5680  -61.1320 C.2    99  SER99       0.2314
     16  O        -55.0820   -0.5970  -61.2790 O.2    99  SER99      -0.2863
     17  CB       -56.9760    0.1580  -63.1220 C.3    99  SER99       0.2116
     18  OG       -55.9170    0.2340  -64.0450 O.3    99  SER99      -0.2180
     19  N        -54.4200   -3.3870  -62.2480 N.3   131  MET131     -0.1245
     20  CA       -55.2310   -4.5910  -62.4380 C.3   131  MET131      0.1570
     21  C        -55.0010   -5.0950  -63.8450 C.2   131  MET131      0.2261
     22  O        -55.1710   -4.3580  -64.8120 O.2   131  MET131     -0.2867
     23  CB       -56.7130   -4.2820  -62.2380 C.3   131  MET131      0.0387
     24  CG       -57.0570   -3.6630  -60.8870 C.3   131  MET131      0.0595
     25  SD       -58.6080   -2.7570  -60.9900 S.3   131  MET131     -0.1393
     26  CE       -58.6000   -1.8380  -59.4260 C.3   131  MET131      0.0692
     27  N        -55.7930    3.3690  -67.4470 N.3   148  LYS148     -0.1245
     28  CA       -56.1510    4.7280  -67.8090 C.3   148  LYS148      0.1561
     29  C        -55.6190    5.7310  -66.7860 C.2   148  LYS148      0.2260
     30  O        -55.6400    5.4750  -65.5880 O.2   148  LYS148     -0.2867
     31  CB       -57.6680    4.8540  -67.9450 C.3   148  LYS148      0.0271
     32  CG       -58.2470    3.8440  -68.9190 C.3   148  LYS148      0.0035
     33  CD       -59.7600    3.9670  -69.0990 C.3   148  LYS148      0.0206
     34  CE       -60.2340    2.9230  -70.1150 C.3   148  LYS148      0.1093
     35  NZ       -61.6670    3.0350  -70.4820 N.3   148  LYS148     -0.1314
     36  N        -56.9890   13.1290  -64.4600 N.3   151  SER151     -0.1202
     37  CA       -57.1990   13.8870  -63.2300 C.3   151  SER151      0.2020
     38  C        -58.1530   13.1190  -62.3250 C.2   151  SER151      0.2619
     39  O        -59.1210   12.5130  -62.7920 O.2   151  SER151     -0.2717
     40  CB       -57.8010   15.2430  -63.5660 C.3   151  SER151      0.2103
     41  OG       -58.1940   15.9340  -62.3990 O.3   151  SER151     -0.2182
     42  N        -57.8760   13.1050  -61.0290 N.am  152  TRP152     -0.1961
     43  CA       -58.8190   12.4890  -60.1100 C.3   152  TRP152      0.1771
     44  C        -60.0110   13.4130  -59.8470 C.2   152  TRP152      0.2620
     45  O        -61.1520   12.9710  -59.7860 O.2   152  TRP152     -0.2715
     46  CB       -58.1370   12.0930  -58.7990 C.3   152  TRP152      0.0590
     47  CG       -59.0020   11.2440  -57.9050 C.ar  152  TRP152      0.0006
     48  CD1      -59.5400   11.6010  -56.7020 C.ar  152  TRP152      0.0946
     49  CD2      -59.4540    9.9120  -58.1650 C.ar  152  TRP152      0.0152
     50  NE1      -60.2890   10.5670  -56.1890 N.ar  152  TRP152     -0.2442
     51  CE2      -60.2500    9.5170  -57.0700 C.ar  152  TRP152      0.0810
     52  CE3      -59.2480    9.0060  -59.2080 C.ar  152  TRP152      0.0012
     53  CZ2      -60.8410    8.2610  -56.9930 C.ar  152  TRP152      0.0191
     54  CZ3      -59.8390    7.7630  -59.1310 C.ar  152  TRP152      0.0001
     55  CH2      -60.6300    7.4010  -58.0320 C.ar  152  TRP152      0.0015
     56  N        -59.7120   14.6720  -59.5710 N.am  153  SER153     -0.1936
     57  CA       -60.7290   15.6470  -59.1990 C.3   153  SER153      0.2055
     58  C        -61.2300   16.6840  -60.2050 C.2   153  SER153      0.2643
     59  O        -62.1280   17.4440  -59.8710 O.2   153  SER153     -0.2714
     60  CB       -60.3230   16.3270  -57.8930 C.3   153  SER153      0.2130
     61  OG       -60.3500   15.3810  -56.8350 O.3   153  SER153     -0.2179
     62  N        -60.6570   16.7380  -61.4050 N.am  154  TYR154     -0.1973
     63  CA       -61.0230   17.7680  -62.3820 C.3   154  TYR154      0.1639
     64  C        -61.5980   17.1820  -63.6610 C.2   154  TYR154      0.2290
     65  O        -61.0430   16.2420  -64.2260 O.2   154  TYR154     -0.2864
     66  CB       -59.8180   18.6030  -62.7970 C.3   154  TYR154      0.0560
     67  CG       -59.2530   19.5080  -61.7480 C.ar  154  TYR154     -0.0198
     68  CD1      -59.7810   20.7800  -61.5500 C.ar  154  TYR154     -0.0009
     69  CD2      -58.1630   19.1100  -60.9670 C.ar  154  TYR154     -0.0009
     70  CE1      -59.2570   21.6220  -60.6030 C.ar  154  TYR154      0.0417
     71  CE2      -57.6270   19.9580  -60.0150 C.ar  154  TYR154      0.0417
     72  CZ       -58.1800   21.2090  -59.8370 C.ar  154  TYR154      0.1957
     73  OH       -57.6620   22.0550  -58.8960 O.3   154  TYR154     -0.2866
     74  N        -64.9960   10.5330  -72.0690 N.3   191  GLN191     -0.1245
     75  CA       -66.0640    9.7700  -71.4260 C.3   191  GLN191      0.1566
     76  C        -67.0970   10.7210  -70.8250 C.2   191  GLN191      0.2260
     77  O        -66.7700   11.8370  -70.4200 O.2   191  GLN191     -0.2867
     78  CB       -65.4710    8.8720  -70.3310 C.3   191  GLN191      0.0367
     79  CG       -66.4850    8.2360  -69.3920 C.3   191  GLN191      0.0905
     80  CD       -67.0900    6.9610  -69.9510 C.2   191  GLN191      0.2608
     81  OE1      -66.7000    5.8590  -69.5630 O.2   191  GLN191     -0.2717
     82  NE2      -68.0470    7.1040  -70.8670 N.am  191  GLN191     -0.0878
     83  N        -70.6990   10.9930  -68.1220 N.3   193  TYR193     -0.1241
     84  CA       -71.5400   10.3560  -67.1130 C.3   193  TYR193      0.1605
     85  C        -72.9300   10.9910  -67.1670 C.2   193  TYR193      0.2264
     86  O        -73.0630   12.1840  -67.4230 O.2   193  TYR193     -0.2867
     87  CB       -70.8880   10.4750  -65.7250 C.3   193  TYR193      0.0534
     88  CG       -69.4990    9.8690  -65.7120 C.ar  193  TYR193     -0.0201
     89  CD1      -68.3650   10.6640  -65.8870 C.ar  193  TYR193     -0.0009
     90  CD2      -69.3220    8.4970  -65.5860 C.ar  193  TYR193     -0.0009
     91  CE1      -67.0890   10.1050  -65.9080 C.ar  193  TYR193      0.0417
     92  CE2      -68.0540    7.9260  -65.6090 C.ar  193  TYR193      0.0417
     93  CZ       -66.9420    8.7350  -65.7690 C.ar  193  TYR193      0.1957
     94  OH       -65.6850    8.1700  -65.7910 O.3   193  TYR193     -0.2866
     95  N        -75.1190   11.7230  -64.9800 N.3   195  CYS195     -0.1221
     96  CA       -75.3300   12.6950  -63.9090 C.3   195  CYS195      0.1808
     97  C        -74.6800   14.0480  -64.1820 C.2   195  CYS195      0.2601
     98  O        -74.9250   15.0070  -63.4540 O.2   195  CYS195     -0.2717
     99  CB       -74.7030   12.1630  -62.6200 C.3   195  CYS195      0.0970
    100  SG       -72.8940   12.3090  -62.6480 S.3   195  CYS195     -0.0800
    101  N        -73.8100   14.1180  -65.1880 N.am  196  CYS196     -0.1970
    102  CA       -72.9620   15.2990  -65.3560 C.3   196  CYS196      0.1712
    103  C        -72.8310   15.7490  -66.8180 C.2   196  CYS196      0.2296
    104  O        -72.7490   14.9320  -67.7350 O.2   196  CYS196     -0.2864
    105  CB       -71.5810   15.0120  -64.7450 C.3   196  CYS196      0.0983
    106  SG       -71.6200   13.7250  -63.4190 S.3   196  CYS196     -0.0798
    107  N        -65.0860   13.9500  -69.5460 N.3   200  TYR200     -0.1227
    108  CA       -63.9400   13.5390  -68.7320 C.3   200  TYR200      0.1736
    109  C        -62.9200   12.8520  -69.6150 C.2   200  TYR200      0.2595
    110  O        -63.2470   11.9220  -70.3480 O.2   200  TYR200     -0.2718
    111  CB       -64.3490   12.6630  -67.5400 C.3   200  TYR200      0.0548
    112  CG       -65.2120   13.4160  -66.5750 C.ar  200  TYR200     -0.0200
    113  CD1      -64.6730   14.0410  -65.4590 C.ar  200  TYR200     -0.0009
    114  CD2      -66.5780   13.5530  -66.8150 C.ar  200  TYR200     -0.0009
    115  CE1      -65.4810   14.7620  -64.5840 C.ar  200  TYR200      0.0417
    116  CE2      -67.3890   14.2610  -65.9550 C.ar  200  TYR200      0.0417
    117  CZ       -66.8420   14.8660  -64.8430 C.ar  200  TYR200      0.1957
    118  OH       -67.6730   15.5730  -64.0050 O.3   200  TYR200     -0.2866
    119  N        -61.6870   13.3370  -69.5350 N.am  201  ILE201     -0.1966
    120  CA       -60.6250   12.9000  -70.4080 C.3   201  ILE201      0.1727
    121  C        -59.6740   11.9650  -69.6710 C.2   201  ILE201      0.2616
    122  O        -59.3920   12.1530  -68.4900 O.2   201  ILE201     -0.2715
    123  CB       -59.8120   14.1130  -70.8930 C.3   201  ILE201      0.0290
    124  CG1      -60.7450   15.2810  -71.2120 C.3   201  ILE201      0.0022
    125  CG2      -58.9240   13.7340  -72.0740 C.3   201  ILE201      0.0023
    126  CD1      -61.7900   14.9560  -72.2560 C.3   201  ILE201      0.0001
    127  N        -59.1730   10.9630  -70.3810 N.am  202  ASP202     -0.1971
    128  CA       -58.1650   10.0750  -69.8430 C.3   202  ASP202      0.1709
    129  C        -57.2350    9.6800  -70.9740 C.2   202  ASP202      0.2293
    130  O        -57.5870    9.8030  -72.1400 O.2   202  ASP202     -0.2864
    131  CB       -58.8000    8.8320  -69.1950 C.3   202  ASP202      0.1436
    132  CG       -59.3910    7.8580  -70.2200 C.2   202  ASP202      0.3671
    133  OD1      -58.6190    7.1070  -70.8500 O.co2 202  ASP202     -0.2456
    134  OD2      -60.6280    7.8130  -70.3710 O.co2 202  ASP202     -0.2456
@<TRIPOS>BOND
     1   126   124    1
     2   130   129    2
     3   125   123    1
     4    74    75    1
     5    75    76    1
     6    75    78    1
     7   124   123    1
     8   129   128    1
     9   123   120    1
    10    82    80   am
    11   133   132   ar
    12    76    77    2
    13    35    34    1
    14   120   121    1
    15   120   119    1
    16   127   128    1
    17   127   121   am
    18   134   132   ar
    19   110   109    2
    20    78    79    1
    21   132   131    1
    22    34    33    1
    23    80    81    2
    24    80    79    1
    25   128   131    1
    26   121   122    2
    27   109   119   am
    28   109   108    1
    29   107   108    1
    30    33    32    1
    31    32    31    1
    32   108   111    1
    33    83    84    1
    34    31    28    1
    35    28    27    1
    36    28    29    1
    37   104   103    2
    38   111   112    1
    39    86    85    2
    40    85    84    1
    41    84    87    1
    42   103   102    1
    43   114   112   ar
    44   114   116   ar
    45    29    30    2
    46   112   113   ar
    47   116   117   ar
    48    91    89   ar
    49    91    93   ar
    50    89    88   ar
    51    94    93    1
    52    93    92   ar
    53    87    88    1
    54    88    90   ar
    55    92    90   ar
    56   113   115   ar
    57   102   101    1
    58   102   105    1
    59    10     8   ar
    60    10    11   ar
    61   101    97   am
    62     8     6   ar
    63    95    96    1
    64   117   115   ar
    65   117   118    1
    66    22    21    2
    67   105   106    1
    68    12    11    1
    69    36    37    1
    70    11     9   ar
    71    65    64    2
    72    97    96    1
    73    97    98    2
    74    18    17    1
    75    96    99    1
    76    21    20    1
    77     6     5    1
    78     6     7   ar
    79    64    63    1
    80    40    37    1
    81    40    41    1
    82   106   100    1
    83     5     2    1
    84    37    38    1
    85    17    14    1
    86     9     7   ar
    87     1     2    1
    88    66    63    1
    89    66    67    1
    90    39    38    2
    91   100    99    1
    92    20    19    1
    93    20    23    1
    94    63    62    1
    95    38    42   am
    96    13    14    1
    97    13     3   am
    98     2     3    1
    99    23    24    1
   100    14    15    1
   101    67    68   ar
   102    67    69   ar
   103     3     4    2
   104    68    70   ar
   105    62    58   am
   106    16    15    2
   107    42    43    1
   108    25    24    1
   109    25    26    1
   110    69    71   ar
   111    70    72   ar
   112    58    59    2
   113    58    57    1
   114    43    44    1
   115    43    46    1
   116    71    72   ar
   117    44    45    2
   118    44    56   am
   119    72    73    1
   120    56    57    1
   121    52    54   ar
   122    52    49   ar
   123    57    60    1
   124    54    55   ar
   125    46    47    1
   126    49    47   ar
   127    49    51   ar
   128    55    53   ar
   129    47    48   ar
   130    60    61    1
   131    51    53   ar
   132    51    50   ar
   133    48    50   ar
