@<TRIPOS>MOLECULE
tmp/3sitB00.pdb
 94 89 0 0 0
SMALL
GASTEIGER

@<TRIPOS>ATOM
      1  N         -8.4130  -24.7530   89.1910 N.3    38  ARG38      -0.1245
      2  CA        -7.5700  -24.0430   88.2360 C.3    38  ARG38       0.1563
      3  C         -7.8160  -24.5330   86.8180 C.2    38  ARG38       0.2260
      4  O         -7.5890  -25.7010   86.5060 O.2    38  ARG38      -0.2867
      5  CB        -6.0810  -24.1810   88.5920 C.3    38  ARG38       0.0307
      6  CG        -5.1250  -23.4290   87.6490 C.3    38  ARG38       0.0489
      7  CD        -5.2790  -21.9110   87.7590 C.3    38  ARG38       0.2205
      8  NE        -4.9060  -21.4140   89.0830 N.pl3  38  ARG38      -0.0865
      9  CZ        -5.0390  -20.1510   89.4790 C.cat  38  ARG38       0.5346
     10  NH1       -5.5320  -19.2380   88.6500 N.pl3  38  ARG38       0.1354
     11  NH2       -4.6640  -19.7960   90.7040 N.pl3  38  ARG38       0.1354
     12  N         -7.6010  -17.4470   82.9360 N.3    81  SER81      -0.1217
     13  CA        -7.8180  -18.3520   84.0620 C.3    81  SER81       0.1889
     14  C         -9.1600  -18.1920   84.7590 C.2    81  SER81       0.2288
     15  O         -9.7030  -17.0910   84.8490 O.2    81  SER81      -0.2866
     16  CB        -6.6880  -18.1940   85.0870 C.3    81  SER81       0.2089
     17  OG        -6.7110  -19.2520   86.0330 O.3    81  SER81      -0.2183
     18  N        -11.0480  -20.1130   88.4620 N.3    83  THR83      -0.1218
     19  CA       -10.6950  -20.8970   89.6460 C.3    83  THR83       0.1862
     20  C        -11.8780  -21.6870   90.2080 C.2    83  THR83       0.2287
     21  O        -11.7600  -22.3430   91.2460 O.2    83  THR83      -0.2866
     22  CB       -10.0610  -20.0140   90.7480 C.3    83  THR83       0.1770
     23  OG1      -10.9110  -18.8920   91.0150 O.3    83  THR83      -0.2211
     24  CG2       -8.6810  -19.5140   90.3160 C.3    83  THR83       0.0375
     25  N        -10.5680  -14.5900   83.5280 N.3    90  THR90      -0.1218
     26  CA        -9.8900  -13.2970   83.5910 C.3    90  THR90       0.1862
     27  C         -8.4960  -13.4180   82.9860 C.2    90  THR90       0.2287
     28  O         -7.9180  -14.5100   82.9500 O.2    90  THR90      -0.2866
     29  CB        -9.7990  -12.7430   85.0360 C.3    90  THR90       0.1770
     30  OG1       -9.2720  -13.7470   85.9130 O.3    90  THR90      -0.2211
     31  CG2      -11.1760  -12.3020   85.5390 C.3    90  THR90       0.0375
     32  N         -4.4180  -12.6030   82.6010 N.3    92  HIS92      -0.1226
     33  CA        -3.2690  -12.4460   83.4910 C.3    92  HIS92       0.1752
     34  C         -1.9440  -12.6460   82.7680 C.2    92  HIS92       0.2596
     35  O         -1.8960  -13.2310   81.6820 O.2    92  HIS92      -0.2718
     36  CB        -3.3570  -13.4420   84.6540 C.3    92  HIS92       0.0759
     37  CG        -4.6330  -13.3520   85.4260 C.ar   92  HIS92       0.0818
     38  ND1       -4.8330  -12.4220   86.4220 N.ar   92  HIS92      -0.2268
     39  CD2       -5.7830  -14.0600   85.3330 C.ar   92  HIS92       0.1154
     40  CE1       -6.0520  -12.5610   86.9120 C.ar   92  HIS92       0.1986
     41  NE2       -6.6490  -13.5480   86.2680 N.ar   92  HIS92      -0.2212
     42  N         -0.8760  -12.1650   83.4040 N.am   93  GLY93      -0.1957
     43  CA         0.5070  -12.3830   82.9670 C.3    93  GLY93       0.1869
     44  C          0.7960  -12.2420   81.4810 C.2    93  GLY93       0.2309
     45  O          1.3410  -13.1680   80.8680 O.2    93  GLY93      -0.2863
     46  N          4.3590  -19.6850   84.0470 N.3   113  THR113     -0.1218
     47  CA         4.4250  -19.2070   82.6680 C.3   113  THR113      0.1862
     48  C          5.3850  -18.0110   82.6130 C.2   113  THR113      0.2287
     49  O          5.9770  -17.6470   83.6300 O.2   113  THR113     -0.2866
     50  CB         3.0320  -18.7920   82.1080 C.3   113  THR113      0.1770
     51  OG1        2.5890  -17.5890   82.7430 O.3   113  THR113     -0.2211
     52  CG2        1.9760  -19.8830   82.3000 C.3   113  THR113      0.0375
     53  N          6.0700  -13.8440   81.5840 N.3   115  ASN115     -0.1240
     54  CA         5.3950  -12.5500   81.4490 C.3   115  ASN115      0.1653
     55  C          6.3730  -11.4050   81.2320 C.2   115  ASN115      0.2266
     56  O          7.5730  -11.5480   81.4780 O.2   115  ASN115     -0.2867
     57  CB         4.4630  -12.2540   82.6410 C.3   115  ASN115      0.1155
     58  CG         5.0310  -12.7040   83.9850 C.2   115  ASN115      0.2627
     59  OD1        4.3260  -13.3200   84.7820 O.2   115  ASN115     -0.2716
     60  ND2        6.2920  -12.3840   84.2490 N.am  115  ASN115     -0.0877
     61  N          6.2180  -16.1050   85.9190 N.3   124  GLY124     -0.1210
     62  CA         5.0720  -15.8520   86.7870 C.3   124  GLY124      0.1956
     63  C          4.4250  -17.1910   87.0850 C.2   124  GLY124      0.2612
     64  O          4.7580  -18.1890   86.4460 O.2   124  GLY124     -0.2717
     65  N          3.5120  -17.2340   88.0510 N.am  125  TYR125     -0.1962
     66  CA         2.9030  -18.5150   88.4310 C.3   125  TYR125      0.1771
     67  C          1.4410  -18.4300   88.8540 C.2   125  TYR125      0.2620
     68  O          0.9250  -17.3540   89.1560 O.2   125  TYR125     -0.2715
     69  CB         3.7260  -19.2100   89.5240 C.3   125  TYR125      0.0574
     70  CG         3.9770  -18.3450   90.7360 C.ar  125  TYR125     -0.0198
     71  CD1        3.0160  -18.2130   91.7370 C.ar  125  TYR125     -0.0009
     72  CD2        5.1790  -17.6560   90.8780 C.ar  125  TYR125     -0.0009
     73  CE1        3.2500  -17.4110   92.8500 C.ar  125  TYR125      0.0417
     74  CE2        5.4210  -16.8560   91.9840 C.ar  125  TYR125      0.0417
     75  CZ         4.4550  -16.7380   92.9630 C.ar  125  TYR125      0.1957
     76  OH         4.7020  -15.9430   94.0580 O.3   125  TYR125     -0.2866
     77  N          0.7950  -19.5930   88.8800 N.am  126  TYR126     -0.1960
     78  CA        -0.6140  -19.7230   89.2170 C.3   126  TYR126      0.1771
     79  C         -0.7560  -20.9050   90.1600 C.2   126  TYR126      0.2620
     80  O         -0.4870  -22.0420   89.7720 O.2   126  TYR126     -0.2715
     81  CB        -1.4460  -19.9510   87.9500 C.3   126  TYR126      0.0574
     82  CG        -1.3050  -18.8210   86.9540 C.ar  126  TYR126     -0.0198
     83  CD1       -2.1240  -17.7000   87.0320 C.ar  126  TYR126     -0.0009
     84  CD2       -0.3300  -18.8620   85.9560 C.ar  126  TYR126     -0.0009
     85  CE1       -1.9890  -16.6440   86.1310 C.ar  126  TYR126      0.0417
     86  CE2       -0.1830  -17.8140   85.0540 C.ar  126  TYR126      0.0417
     87  CZ        -1.0170  -16.7100   85.1500 C.ar  126  TYR126      0.1957
     88  OH        -0.8820  -15.6630   84.2680 O.3   126  TYR126     -0.2866
     89  N         -1.1570  -20.6240   91.3980 N.am  127  SER127     -0.1950
     90  CA        -1.3270  -21.6610   92.4190 C.3   127  SER127      0.1924
     91  C         -2.3620  -22.6910   91.9820 C.2   127  SER127      0.2314
     92  O         -3.4550  -22.3420   91.5330 O.2   127  SER127     -0.2863
     93  CB        -1.7090  -21.0350   93.7600 C.3   127  SER127      0.2116
     94  OG        -0.6500  -20.2180   94.2340 O.3   127  SER127     -0.2180
@<TRIPOS>BOND
     1    45    44    2
     2    55    54    1
     3    55    56    2
     4    54    53    1
     5    54    57    1
     6    44    43    1
     7    35    34    2
     8    50    52    1
     9    50    47    1
    10    50    51    1
    11    32    33    1
    12    48    47    1
    13    48    49    2
    14    57    58    1
    15    47    46    1
    16    34    42   am
    17    34    33    1
    18    12    13    1
    19    28    27    2
    20    43    42    1
    21    27    26    1
    22    33    36    1
    23    25    26    1
    24    26    29    1
    25    58    60   am
    26    58    59    2
    27    13    14    1
    28    13    16    1
    29    88    87    1
    30    36    37    1
    31    14    15    2
    32    29    31    1
    33    29    30    1
    34    86    87   ar
    35    86    84   ar
    36    16    17    1
    37    87    85   ar
    38    39    37   ar
    39    39    41   ar
    40    37    38   ar
    41    61    62    1
    42    84    82   ar
    43    85    83   ar
    44    41    40   ar
    45    38    40   ar
    46    64    63    2
    47     4     3    2
    48    62    63    1
    49     3     2    1
    50    82    83   ar
    51    82    81    1
    52    63    65   am
    53     6     7    1
    54     6     5    1
    55     7     8    1
    56    81    78    1
    57    65    66    1
    58     2     5    1
    59     2     1    1
    60    66    67    1
    61    66    69    1
    62    18    19    1
    63    10     9    1
    64    67    77   am
    65    67    68    2
    66    77    78    1
    67     8     9    2
    68    78    79    1
    69     9    11    1
    70    69    70    1
    71    19    20    1
    72    19    22    1
    73    80    79    2
    74    79    89   am
    75    20    21    2
    76    24    22    1
    77    70    72   ar
    78    70    71   ar
    79    22    23    1
    80    72    74   ar
    81    89    90    1
    82    92    91    2
    83    71    73   ar
    84    91    90    1
    85    74    75   ar
    86    90    93    1
    87    73    75   ar
    88    75    76    1
    89    93    94    1
