@<TRIPOS>MOLECULE
tmp/3sixA00.pdb
 128 123 0 0 0
SMALL
GASTEIGER

@<TRIPOS>ATOM
      1  N         12.5920   52.5890    5.6130 N.3    11  THR11      -0.1203
      2  CA        13.4170   51.5900    6.3280 C.3    11  THR11       0.1994
      3  C         13.6160   50.3960    5.3830 C.2    11  THR11       0.2618
      4  O         13.4940   50.5610    4.1660 O.2    11  THR11      -0.2717
      5  CB        12.7310   51.1210    7.6450 C.3    11  THR11       0.1784
      6  OG1       11.4080   50.6590    7.3240 O.3    11  THR11      -0.2211
      7  CG2       12.6400   52.2450    8.6800 C.3    11  THR11       0.0376
      8  N         13.8590   49.1980    5.9150 N.am   12  GLY12      -0.1942
      9  CA        14.0190   48.0030    5.0680 C.3    12  GLY12       0.2014
     10  C         12.7720   47.7320    4.2380 C.2    12  GLY12       0.2639
     11  O         11.6500   48.1380    4.6150 O.2    12  GLY12      -0.2714
     12  N         12.9590   47.0700    3.1070 N.am   13  PHE13      -0.1959
     13  CA        11.8940   46.8190    2.1510 C.3    13  PHE13       0.1771
     14  C         10.7540   45.9630    2.6990 C.2    13  PHE13       0.2620
     15  O          9.6290   46.1340    2.2720 O.2    13  PHE13      -0.2715
     16  CB        12.4580   46.1830    0.8760 C.3    13  PHE13       0.0574
     17  CG        13.2530   47.1380    0.0270 C.ar   13  PHE13      -0.0200
     18  CD1       12.6490   48.2310   -0.5610 C.ar   13  PHE13      -0.0042
     19  CD2       14.5640   46.9220   -0.2000 C.ar   13  PHE13      -0.0042
     20  CE1       13.3870   49.1250   -1.3330 C.ar   13  PHE13      -0.0003
     21  CE2       15.3020   47.7750   -0.9700 C.ar   13  PHE13      -0.0003
     22  CZ        14.7180   48.8870   -1.5350 C.ar   13  PHE13      -0.0000
     23  N         11.0260   45.0340    3.6080 N.am   14  GLY14      -0.1954
     24  CA         9.9540   44.2110    4.1630 C.3    14  GLY14       0.1869
     25  C          8.9210   45.0750    4.9060 C.2    14  GLY14       0.2309
     26  O          7.6920   44.8910    4.7640 O.2    14  GLY14      -0.2863
     27  N         16.5540   54.7870    3.1990 N.3    42  CYS42      -0.1221
     28  CA        17.9120   54.5050    3.6560 C.3    42  CYS42       0.1808
     29  C         18.8110   54.0540    2.5040 C.2    42  CYS42       0.2601
     30  O         20.0370   54.0710    2.6150 O.2    42  CYS42      -0.2717
     31  CB        17.8970   53.4430    4.7570 C.3    42  CYS42       0.0970
     32  SG        17.1200   51.8820    4.2780 S.3    42  CYS42      -0.0800
     33  N         18.1890   53.6510    1.4000 N.am   43  TYR43      -0.1976
     34  CA        18.9150   53.1800    0.2040 C.3    43  TYR43       0.1639
     35  C         19.2260   54.2340   -0.8490 C.2    43  TYR43       0.2290
     36  O         19.8730   53.9140   -1.8310 O.2    43  TYR43      -0.2864
     37  CB        18.1160   52.0840   -0.4830 C.3    43  TYR43       0.0560
     38  CG        17.9060   50.9030    0.3890 C.ar   43  TYR43      -0.0198
     39  CD1       18.9960   50.1620    0.8170 C.ar   43  TYR43      -0.0009
     40  CD2       16.6580   50.5550    0.8450 C.ar   43  TYR43      -0.0009
     41  CE1       18.8460   49.1110    1.6440 C.ar   43  TYR43       0.0417
     42  CE2       16.5010   49.4580    1.6850 C.ar   43  TYR43       0.0417
     43  CZ        17.6060   48.7620    2.0780 C.ar   43  TYR43       0.1957
     44  OH        17.5300   47.6790    2.9080 O.3    43  TYR43      -0.2866
     45  N         18.0620   32.9020    6.8390 N.3   173  HIS173     -0.1241
     46  CA        18.2010   34.3090    7.0800 C.3   173  HIS173      0.1621
     47  C         18.7260   34.4970    8.4730 C.2   173  HIS173      0.2264
     48  O         18.0330   34.1430    9.4330 O.2   173  HIS173     -0.2867
     49  CB        16.8590   35.0490    6.9670 C.3   173  HIS173      0.0745
     50  CG        16.9780   36.5280    7.1690 C.ar  173  HIS173      0.0817
     51  ND1       16.3570   37.1940    8.2100 N.ar  173  HIS173     -0.2268
     52  CD2       17.7200   37.4600    6.5070 C.ar  173  HIS173      0.1154
     53  CE1       16.6560   38.4830    8.1340 C.ar  173  HIS173      0.1986
     54  NE2       17.4860   38.6710    7.1160 N.ar  173  HIS173     -0.2212
     55  N         20.1890   37.3310   11.0230 N.3   175  ARG175     -0.1231
     56  CA        20.4520   38.7380   11.2950 C.3   175  ARG175      0.1694
     57  C         21.3940   38.8220   12.4930 C.2   175  ARG175      0.2592
     58  O         21.1040   38.2660   13.5710 O.2   175  ARG175     -0.2718
     59  CB        19.1530   39.5150   11.5160 C.3   175  ARG175      0.0321
     60  CG        19.1420   40.9330   10.8990 C.3   175  ARG175      0.0489
     61  CD        19.6450   40.9750    9.4530 C.3   175  ARG175      0.2205
     62  NE        20.5180   42.1290    9.1910 N.pl3 175  ARG175     -0.0865
     63  CZ        21.3220   42.2690    8.1290 C.cat 175  ARG175      0.5346
     64  NH1       21.4250   41.3180    7.1940 N.pl3 175  ARG175      0.1354
     65  NH2       22.0500   43.3830    8.0110 N.pl3 175  ARG175      0.1354
     66  N         22.5240   39.4910   12.2510 N.am  176  HIS176     -0.1976
     67  CA        23.7350   39.4720   13.1000 C.3   176  HIS176      0.1656
     68  C         24.5090   38.1360   12.9320 C.2   176  HIS176      0.2291
     69  O         24.9040   37.4530   13.8910 O.2   176  HIS176     -0.2864
     70  CB        23.4190   39.8290   14.5560 C.3   176  HIS176      0.0771
     71  CG        22.7400   41.1590   14.7100 C.ar  176  HIS176      0.0820
     72  ND1       22.8140   41.9010   15.8710 N.ar  176  HIS176     -0.2267
     73  CD2       22.0050   41.8970   13.8410 C.ar  176  HIS176      0.1154
     74  CE1       22.1390   43.0280   15.7180 C.ar  176  HIS176      0.1986
     75  NE2       21.6340   43.0490   14.4960 N.ar  176  HIS176     -0.2212
     76  N         21.7420   33.8440    3.8360 N.3   207  CYS207     -0.1221
     77  CA        21.6240   35.3110    3.7430 C.3   207  CYS207      0.1808
     78  C         21.9990   35.9220    5.0850 C.2   207  CYS207      0.2601
     79  O         21.2370   35.8830    6.0470 O.2   207  CYS207     -0.2717
     80  CB        20.2000   35.7150    3.3880 C.3   207  CYS207      0.0970
     81  SG        19.6270   35.2460    1.7410 S.3   207  CYS207     -0.0800
     82  N         23.2130   36.4310    5.1620 N.am  208  THR208     -0.1953
     83  CA        23.7610   36.9770    6.3720 C.3   208  THR208      0.1897
     84  C         24.6830   38.1570    6.0170 C.2   208  THR208      0.2313
     85  O         25.2690   38.2170    4.9260 O.2   208  THR208     -0.2863
     86  CB        24.5570   35.8930    7.1240 C.3   208  THR208      0.1794
     87  OG1       25.0940   36.4090    8.3580 O.3   208  THR208     -0.2208
     88  CG2       25.7050   35.3930    6.2640 C.3   208  THR208      0.0378
     89  N         23.0710   48.4220   -2.2940 N.3   238  GLY238     -0.1225
     90  CA        22.5190   47.8410   -1.0520 C.3   238  GLY238      0.1811
     91  C         21.0140   47.5050   -1.1650 C.2   238  GLY238      0.2280
     92  O         20.5710   46.4410   -0.7430 O.2   238  GLY238     -0.2866
     93  N         20.6540   44.4270   -3.6300 N.3   241  SER241     -0.1202
     94  CA        21.0160   43.1190   -3.0590 C.3   241  SER241      0.2020
     95  C         20.0650   42.6810   -1.9220 C.2   241  SER241      0.2618
     96  O         19.7790   41.4640   -1.7770 O.2   241  SER241     -0.2717
     97  CB        22.5060   43.0500   -2.6730 C.3   241  SER241      0.2103
     98  OG        22.7620   43.6940   -1.4720 O.3   241  SER241     -0.2182
     99  N         19.5220   43.6380   -1.1640 N.am  242  ALA242     -0.1979
    100  CA        18.4720   43.3200   -0.1810 C.3   242  ALA242      0.1597
    101  C         17.2420   42.6840   -0.8810 C.2   242  ALA242      0.2287
    102  O         16.7360   41.6510   -0.4700 O.2   242  ALA242     -0.2864
    103  CB        18.0600   44.6010    0.6510 C.3   242  ALA242      0.0319
    104  N         18.0460   39.0030   -2.2740 N.3   245  ASP245     -0.1239
    105  CA        17.8950   38.0100   -1.2050 C.3   245  ASP245      0.1674
    106  C         16.4310   37.8190   -0.7740 C.2   245  ASP245      0.2266
    107  O         15.9790   36.6950   -0.5890 O.2   245  ASP245     -0.2867
    108  CB        18.6870   38.4450    0.0100 C.3   245  ASP245      0.1410
    109  CG        20.1860   38.1690   -0.1050 C.2   245  ASP245      0.3668
    110  OD1       20.6660   37.4950   -1.0500 O.co2 245  ASP245     -0.2456
    111  OD2       20.8650   38.6420    0.8100 O.co2 245  ASP245     -0.2456
    112  N         11.7310   39.4370   11.9470 N.3   262  SER262     -0.1217
    113  CA        12.1610   40.2420   10.8120 C.3   262  SER262      0.1889
    114  C         11.0990   40.3200    9.7020 C.2   262  SER262      0.2288
    115  O         10.6650   39.3040    9.2010 O.2   262  SER262     -0.2866
    116  CB        13.4250   39.6210   10.1740 C.3   262  SER262      0.2089
    117  OG        14.1200   40.5990    9.4420 O.3   262  SER262     -0.2183
    118  N         11.9020   41.2030    6.8480 N.3   264  PHE264     -0.1241
    119  CA        12.6790   40.8020    5.6700 C.3   264  PHE264      0.1605
    120  C         12.2690   39.4490    5.0730 C.2   264  PHE264      0.2264
    121  O         12.3230   39.2190    3.8380 O.2   264  PHE264     -0.2867
    122  CB        14.1840   40.7850    6.0010 C.3   264  PHE264      0.0534
    123  CG        15.0810   40.5790    4.7770 C.ar  264  PHE264     -0.0203
    124  CD1       15.5520   39.3380    4.4510 C.ar  264  PHE264     -0.0042
    125  CD2       15.4660   41.6780    3.9700 C.ar  264  PHE264     -0.0042
    126  CE1       16.3800   39.1380    3.3040 C.ar  264  PHE264     -0.0003
    127  CE2       16.2760   41.5060    2.8470 C.ar  264  PHE264     -0.0003
    128  CZ        16.7310   40.2190    2.5110 C.ar  264  PHE264     -0.0000
@<TRIPOS>BOND
     1    93    94    1
     2    94    97    1
     3    94    95    1
     4    97    98    1
     5    89    90    1
     6   104   105    1
     7    95    96    2
     8    95    99   am
     9    36    35    2
    10    22    20   ar
    11    22    21   ar
    12    20    18   ar
    13   105   106    1
    14   105   108    1
    15    91    90    1
    16    91    92    2
    17    99   100    1
    18   110   109   ar
    19    21    19   ar
    20   101   102    2
    21   101   100    1
    22    35    34    1
    23   106   107    2
    24    18    17   ar
    25    37    34    1
    26    37    38    1
    27    19    17   ar
    28   100   103    1
    29   109   108    1
    30   109   111   ar
    31    17    16    1
    32    34    33    1
    33    38    39   ar
    34    38    40   ar
    35    39    41   ar
    36    40    42   ar
    37    16    13    1
    38    33    29   am
    39    41    43   ar
    40    42    43   ar
    41    81    80    1
    42    43    44    1
    43    13    14    1
    44    13    12    1
    45    15    14    2
    46    29    30    2
    47    29    28    1
    48   128   127   ar
    49   128   126   ar
    50    14    23   am
    51   127   125   ar
    52    12    10   am
    53    27    28    1
    54   126   124   ar
    55    80    77    1
    56    23    24    1
    57    28    31    1
    58    77    76    1
    59    77    78    1
    60   121   120    2
    61   125   123   ar
    62    24    25    1
    63     4     3    2
    64    10    11    2
    65    10     9    1
    66    32    31    1
    67   124   123   ar
    68    26    25    2
    69   123   122    1
    70    85    84    2
    71     9     8    1
    72   120   119    1
    73    78    82   am
    74    78    79    2
    75    82    83    1
    76     3     8   am
    77     3     2    1
    78     1     2    1
    79   119   122    1
    80   119   118    1
    81    84    83    1
    82    88    86    1
    83     2     5    1
    84    83    86    1
    85    52    54   ar
    86    52    50   ar
    87    45    46    1
    88    49    46    1
    89    49    50    1
    90    46    47    1
    91    54    53   ar
    92    86    87    1
    93    50    51   ar
    94    64    63    1
    95     6     5    1
    96     5     7    1
    97    65    63    1
    98    63    62    2
    99    53    51   ar
   100    47    48    2
   101    62    61    1
   102   115   114    2
   103   117   116    1
   104    61    60    1
   105   114   113    1
   106   116   113    1
   107   113   112    1
   108    60    59    1
   109    55    56    1
   110    56    59    1
   111    56    57    1
   112    66    57   am
   113    66    67    1
   114    57    58    2
   115    68    67    1
   116    68    69    2
   117    67    70    1
   118    73    75   ar
   119    73    71   ar
   120    75    74   ar
   121    70    71    1
   122    71    72   ar
   123    74    72   ar
