@<TRIPOS>MOLECULE
tmp/3sj7B01.pdb
 138 130 0 0 0
SMALL
GASTEIGER

@<TRIPOS>ATOM
      1  N         21.8300   28.8250   17.7700 N.3   139  SER139     -0.1202
      2  CA        22.8940   29.5280   17.0880 C.3   139  SER139      0.2020
      3  C         23.1480   30.8630   17.7170 C.2   139  SER139      0.2619
      4  O         22.2000   31.4960   18.2210 O.2   139  SER139     -0.2717
      5  CB        22.5090   29.7890   15.6440 C.3   139  SER139      0.2103
      6  OG        23.1890   30.9260   15.2120 O.3   139  SER139     -0.2182
      7  N         24.3930   31.3340   17.6300 N.am  140  VAL140     -0.1965
      8  CA        24.7210   32.6800   18.1530 C.3   140  VAL140      0.1727
      9  C         23.7040   33.7320   17.7340 C.2   140  VAL140      0.2616
     10  O         23.3280   34.5640   18.5460 O.2   140  VAL140     -0.2715
     11  CB        26.2080   33.1300   17.8780 C.3   140  VAL140      0.0290
     12  CG1       26.5340   33.2800   16.3550 C.3   140  VAL140      0.0023
     13  CG2       26.5260   34.3890   18.6220 C.3   140  VAL140      0.0023
     14  N         23.2160   33.6710   16.4990 N.am  141  VAL141     -0.1977
     15  CA        22.2510   34.6970   16.0360 C.3   141  VAL141      0.1596
     16  C         20.9000   34.6590   16.7850 C.2   141  VAL141      0.2287
     17  O         20.1230   35.6490   16.7820 O.2   141  VAL141     -0.2864
     18  CB        22.0460   34.6840   14.4730 C.3   141  VAL141      0.0276
     19  CG1       23.4100   34.7780   13.7690 C.3   141  VAL141      0.0022
     20  CG2       21.2900   33.4360   14.0120 C.3   141  VAL141      0.0022
     21  N         21.7440   37.3220   19.3980 N.3   144  VAL144     -0.1231
     22  CA        22.1380   38.6880   19.0980 C.3   144  VAL144      0.1692
     23  C         21.3650   39.2840   17.9580 C.2   144  VAL144      0.2593
     24  O         21.3890   40.4630   17.8120 O.2   144  VAL144     -0.2718
     25  CB        23.6970   38.8790   18.8350 C.3   144  VAL144      0.0266
     26  CG1       24.4810   38.1520   19.8740 C.3   144  VAL144      0.0020
     27  CG2       24.0990   38.4780   17.4320 C.3   144  VAL144      0.0020
     28  N         20.6590   38.4520   17.1930 N.am  145  GLY145     -0.1942
     29  CA        19.9050   38.8770   16.0180 C.3   145  GLY145      0.2014
     30  C         20.8860   39.1170   14.8820 C.2   145  GLY145      0.2639
     31  O         22.0960   39.2480   15.1090 O.2   145  GLY145     -0.2714
     32  N         20.3960   39.1870   13.6550 N.am  146  ASN146     -0.1958
     33  CA        21.3050   39.3540   12.5490 C.3   146  ASN146      0.1804
     34  C         20.5210   39.8210   11.3790 C.2   146  ASN146      0.2463
     35  O         19.5430   39.1530   10.9950 O.2   146  ASN146     -0.2730
     36  CB        21.9370   37.9930   12.2710 C.3   146  ASN146      0.1195
     37  CG        22.9650   38.0160   11.1910 C.2   146  ASN146      0.2630
     38  OD1       23.7800   38.9420   11.0660 O.2   146  ASN146     -0.2716
     39  ND2       22.9380   36.9930   10.3920 N.am  146  ASN146     -0.0877
     40  N         20.9080   40.9580   10.7970 N.am  147  PRO147     -0.2727
     41  CA        20.1350   41.4150    9.6350 C.3   147  PRO147      0.1402
     42  C         20.1340   40.3400    8.5360 C.2   147  PRO147      0.2269
     43  O         21.0800   39.5700    8.4460 O.2   147  PRO147     -0.2865
     44  CB        20.8830   42.6800    9.1690 C.3   147  PRO147      0.0296
     45  CG        22.2090   42.6250    9.7310 C.3   147  PRO147      0.0237
     46  CD        22.1620   41.7090   10.9690 C.3   147  PRO147      0.0939
     47  N         18.3720   37.6250    8.2210 N.3   149  GLN149     -0.1245
     48  CA        18.0600   36.2630    8.7210 C.3   149  GLN149      0.1566
     49  C         16.8750   36.2420    9.7230 C.2   149  GLN149      0.2260
     50  O         16.7860   35.3380   10.5800 O.2   149  GLN149     -0.2867
     51  CB        19.2440   35.7010    9.4820 C.3   149  GLN149      0.0367
     52  CG        20.4890   35.6050    8.7660 C.3   149  GLN149      0.0905
     53  CD        21.2300   34.3550    9.1660 C.2   149  GLN149      0.2608
     54  OE1       21.1140   33.3260    8.5040 O.2   149  GLN149     -0.2717
     55  NE2       21.9650   34.4220   10.2590 N.am  149  GLN149     -0.0878
     56  N         15.2850   32.8680   10.3550 N.3   152  TYR152     -0.1241
     57  CA        16.1840   31.9340   10.9900 C.3   152  TYR152      0.1605
     58  C         16.3760   32.2960   12.4550 C.2   152  TYR152      0.2264
     59  O         16.2930   31.4220   13.3400 O.2   152  TYR152     -0.2867
     60  CB        17.5130   31.9420   10.2350 C.3   152  TYR152      0.0534
     61  CG        18.5610   31.0460   10.8130 C.ar  152  TYR152     -0.0201
     62  CD1       19.6220   31.5790   11.5380 C.ar  152  TYR152     -0.0009
     63  CD2       18.5000   29.6710   10.6370 C.ar  152  TYR152     -0.0009
     64  CE1       20.6010   30.7750   12.0570 C.ar  152  TYR152      0.0417
     65  CE2       19.4610   28.8520   11.1590 C.ar  152  TYR152      0.0417
     66  CZ        20.5160   29.4030   11.8660 C.ar  152  TYR152      0.1957
     67  OH        21.5050   28.5750   12.3840 O.3   152  TYR152     -0.2866
     68  N         28.7590   29.6030   17.2930 N.3   183  GLY183     -0.1210
     69  CA        29.0990   30.8650   16.6150 C.3   183  GLY183      0.1956
     70  C         29.5540   30.5160   15.2020 C.2   183  GLY183      0.2612
     71  O         28.8040   29.8440   14.4720 O.2   183  GLY183     -0.2717
     72  N         30.7710   30.9370   14.8120 N.am  184  PHE184     -0.1962
     73  CA        31.2840   30.6360   13.4740 C.3   184  PHE184      0.1771
     74  C         32.0440   29.3180   13.4350 C.2   184  PHE184      0.2619
     75  O         33.1040   29.1820   14.0160 O.2   184  PHE184     -0.2715
     76  CB        32.2020   31.7310   12.9450 C.3   184  PHE184      0.0574
     77  CG        31.5240   33.0240   12.6460 C.ar  184  PHE184     -0.0200
     78  CD1       30.3770   33.0740   11.8700 C.ar  184  PHE184     -0.0042
     79  CD2       32.0690   34.2170   13.1000 C.ar  184  PHE184     -0.0042
     80  CE1       29.7830   34.3070   11.5650 C.ar  184  PHE184     -0.0003
     81  CE2       31.4690   35.4360   12.8190 C.ar  184  PHE184     -0.0003
     82  CZ        30.3390   35.4890   12.0580 C.ar  184  PHE184     -0.0000
     83  N         31.4940   28.3540   12.7150 N.am  185  ILE185     -0.1977
     84  CA        32.0390   26.9960   12.6370 C.3   185  ILE185      0.1596
     85  C         32.4310   26.7590   11.1700 C.2   185  ILE185      0.2287
     86  O         31.6580   27.1050   10.2620 O.2   185  ILE185     -0.2864
     87  CB        30.9980   25.9210   13.1060 C.3   185  ILE185      0.0276
     88  CG1       30.8880   25.7880   14.6280 C.3   185  ILE185      0.0022
     89  CG2       31.4600   24.5150   12.7090 C.3   185  ILE185      0.0022
     90  CD1       30.7990   26.9900   15.4670 C.3   185  ILE185      0.0001
     91  N         31.0610   25.2900    4.9060 N.3   188  ASP188     -0.1239
     92  CA        31.0350   25.6380    3.4540 C.3   188  ASP188      0.1674
     93  C         32.3930   26.0830    2.9200 C.2   188  ASP188      0.2266
     94  O         32.5000   27.0440    2.1470 O.2   188  ASP188     -0.2867
     95  CB        29.9360   26.6910    3.1090 C.3   188  ASP188      0.1410
     96  CG        29.8650   27.8740    4.1200 C.2   188  ASP188      0.3668
     97  OD1       30.0500   27.6340    5.3450 O.co2 188  ASP188     -0.2456
     98  OD2       29.6100   29.0450    3.7120 O.co2 188  ASP188     -0.2456
     99  N         32.4710   28.5370    4.8710 N.3   189  THR189     -0.1218
    100  CA        33.7790   29.0480    5.2510 C.3   189  THR189      0.1862
    101  C         34.9860   28.4770    4.4380 C.2   189  THR189      0.2287
    102  O         36.0850   29.0230    4.5330 O.2   189  THR189     -0.2866
    103  CB        34.0280   28.8990    6.7940 C.3   189  THR189      0.1770
    104  OG1       34.6300   27.6200    7.0690 O.3   189  THR189     -0.2211
    105  CG2       32.7150   29.0950    7.6220 C.3   189  THR189      0.0375
    106  N         35.1930   30.7860    1.1480 N.3   192  LEU192     -0.1245
    107  CA        35.1440   32.2100    1.4290 C.3   192  LEU192      0.1561
    108  C         36.5260   32.8260    1.1680 C.2   192  LEU192      0.2260
    109  O         37.5500   32.1270    1.1900 O.2   192  LEU192     -0.2867
    110  CB        34.6960   32.4740    2.8530 C.3   192  LEU192      0.0270
    111  CG        33.2100   32.3060    3.2120 C.3   192  LEU192      0.0019
    112  CD1       33.0280   31.9320    4.7040 C.3   192  LEU192      0.0001
    113  CD2       32.4380   33.5710    2.9130 C.3   192  LEU192      0.0001
    114  N         35.1450   38.2490    9.4960 N.3   200  MET200     -0.1245
    115  CA        34.5690   37.3260   10.4750 C.3   200  MET200      0.1570
    116  C         35.4430   37.0940   11.7420 C.2   200  MET200      0.2261
    117  O         34.9130   37.1020   12.8550 O.2   200  MET200     -0.2867
    118  CB        34.1830   36.0010    9.8190 C.3   200  MET200      0.0387
    119  CG        33.0650   36.1140    8.7860 C.3   200  MET200      0.0595
    120  SD        32.8850   34.6570    7.7030 S.3   200  MET200     -0.1393
    121  CE        32.6040   33.3250    8.8660 C.3   200  MET200      0.0692
    122  N         35.5960   39.3630   14.8010 N.3   203  GLN203     -0.1245
    123  CA        34.4810   39.2440   15.7490 C.3   203  GLN203      0.1566
    124  C         34.7110   38.2230   16.8370 C.2   203  GLN203      0.2260
    125  O         33.9360   38.1660   17.7680 O.2   203  GLN203     -0.2867
    126  CB        33.1620   38.9370   15.0450 C.3   203  GLN203      0.0367
    127  CG        32.6890   40.0270   14.0650 C.3   203  GLN203      0.0905
    128  CD        31.3410   39.6620   13.4510 C.2   203  GLN203      0.2608
    129  OE1       31.2610   39.2100   12.2950 O.2   203  GLN203     -0.2717
    130  NE2       30.2720   39.8150   14.2460 N.am  203  GLN203     -0.0878
    131  N         32.7100   35.3040   20.8370 N.3   241  MET241     -0.1245
    132  CA        31.8890   36.1800   20.0100 C.3   241  MET241      0.1570
    133  C         30.6780   36.7790   20.7410 C.2   241  MET241      0.2261
    134  O         30.3250   37.9280   20.5610 O.2   241  MET241     -0.2867
    135  CB        31.3730   35.3080   18.8780 C.3   241  MET241      0.0387
    136  CG        31.1340   35.9790   17.5820 C.3   241  MET241      0.0595
    137  SD        30.2440   34.7230   16.6670 S.3   241  MET241     -0.1393
    138  CE        29.0690   35.8950   16.0120 C.3   241  MET241      0.0692
@<TRIPOS>BOND
     1   106   107    1
     2   108   109    2
     3   108   107    1
     4   107   110    1
     5    94    93    2
     6   110   111    1
     7   113   111    1
     8    93    92    1
     9    95    92    1
    10    95    96    1
    11   111   112    1
    12    92    91    1
    13    98    96   ar
    14    96    97   ar
    15   101   102    2
    16   101   100    1
    17    99   100    1
    18   100   103    1
    19   103   104    1
    20   103   105    1
    21   120   119    1
    22   120   121    1
    23    47    48    1
    24    43    42    2
    25    54    53    2
    26    42    41    1
    27    48    51    1
    28    48    49    1
    29    52    53    1
    30    52    51    1
    31   119   118    1
    32    53    55   am
    33    44    41    1
    34    44    45    1
    35   114   115    1
    36    41    40    1
    37    49    50    2
    38    45    46    1
    39   118   115    1
    40    60    61    1
    41    60    57    1
    42    86    85    2
    43    56    57    1
    44    39    37   am
    45   115   116    1
    46    63    61   ar
    47    63    65   ar
    48    40    46    1
    49    40    34   am
    50    61    62   ar
    51    57    58    1
    52    35    34    2
    53    38    37    2
    54    65    66   ar
    55    85    84    1
    56    37    36    1
    57    34    33    1
    58    62    64   ar
    59    80    78   ar
    60    80    82   ar
    61   116   117    2
    62    66    64   ar
    63    66    67    1
    64    78    77   ar
    65    82    81   ar
    66    36    33    1
    67   129   128    2
    68    58    59    2
    69    33    32    1
    70    84    83    1
    71    84    87    1
    72    77    76    1
    73    77    79   ar
    74    89    87    1
    75    83    74   am
    76    81    79   ar
    77    76    73    1
    78    87    88    1
    79    74    73    1
    80    74    75    2
    81   128   127    1
    82   128   130   am
    83    73    72    1
    84    32    30   am
    85    19    18    1
    86    20    18    1
    87   127   126    1
    88    71    70    2
    89    18    15    1
    90    88    90    1
    91   122   123    1
    92    72    70   am
    93    30    31    2
    94    30    29    1
    95   126   123    1
    96    70    69    1
    97     6     5    1
    98     5     2    1
    99   123   124    1
   100   138   137    1
   101    29    28    1
   102    15    14    1
   103    15    16    1
   104    12    11    1
   105    14     9   am
   106    69    68    1
   107   137   136    1
   108    17    16    2
   109   124   125    2
   110     2     3    1
   111     2     1    1
   112    28    23   am
   113    27    25    1
   114   136   135    1
   115     7     3   am
   116     7     8    1
   117     3     4    2
   118     9     8    1
   119     9    10    2
   120    24    23    2
   121    11     8    1
   122    11    13    1
   123    23    22    1
   124    25    22    1
   125    25    26    1
   126   135   132    1
   127    22    21    1
   128   132   133    1
   129   132   131    1
   130   134   133    2
