@<TRIPOS>MOLECULE
tmp/3sjdC00.pdb
 135 129 0 0 0
SMALL
GASTEIGER

@<TRIPOS>ATOM
      1  N         27.4620   -4.5630    7.3760 N.3    22  GLY22      -0.1225
      2  CA        26.4590   -5.2580    6.5930 C.3    22  GLY22       0.1811
      3  C         26.5400   -4.8870    5.1290 C.2    22  GLY22       0.2280
      4  O         25.8250   -3.9990    4.6730 O.2    22  GLY22      -0.2866
      5  N         26.0520   -3.6390    2.1620 N.3    24  GLY24      -0.1210
      6  CA        24.8380   -3.2200    1.5110 C.3    24  GLY24       0.1956
      7  C         24.3460   -1.8940    2.0150 C.2    24  GLY24       0.2612
      8  O         24.6670   -1.4610    3.1140 O.2    24  GLY24      -0.2717
      9  N         23.5810   -1.2300    1.1690 N.am   25  GLY25      -0.1956
     10  CA        22.7460   -0.1470    1.6070 C.3    25  GLY25       0.1869
     11  C         21.5850   -0.8710    2.2380 C.2    25  GLY25       0.2309
     12  O         20.4440   -0.7720    1.8170 O.2    25  GLY25      -0.2863
     13  N         21.4280   -0.5970    5.3810 N.3    27  GLY27      -0.1210
     14  CA        21.2110    0.3270    6.4570 C.3    27  GLY27       0.1956
     15  C         21.6640   -0.2750    7.7580 C.2    27  GLY27       0.2612
     16  O         20.8910   -1.0290    8.4080 O.2    27  GLY27      -0.2717
     17  N         22.8880    0.0970    8.1480 N.am   28  LYS28      -0.1965
     18  CA        23.5380   -0.4040    9.3520 C.3    28  LYS28       0.1728
     19  C         24.1190    0.8300    9.9980 C.2    28  LYS28       0.2617
     20  O         24.6290    0.8070   11.1110 O.2    28  LYS28      -0.2715
     21  CB        24.6150   -1.4240    8.9540 C.3    28  LYS28       0.0311
     22  CG        25.8090   -1.5470    9.8610 C.3    28  LYS28       0.0038
     23  CD        27.0330   -1.1150    9.0980 C.3    28  LYS28       0.0206
     24  CE        26.9050    0.3330    8.6020 C.3    28  LYS28       0.1093
     25  NZ        27.0050    1.3750    9.7000 N.3    28  LYS28      -0.1314
     26  N         24.0240    1.9230    9.2510 N.am   29  THR29      -0.1937
     27  CA        24.5420    3.1990    9.6730 C.3    29  THR29       0.2028
     28  C         23.7380    3.5820   10.8850 C.2    29  THR29       0.2642
     29  O         24.2800    3.9560   11.9270 O.2    29  THR29      -0.2714
     30  CB        24.3230    4.2040    8.5710 C.3    29  THR29       0.1808
     31  OG1       24.1920    3.5080    7.3000 O.3    29  THR29      -0.2208
     32  CG2       25.4850    5.2260    8.5920 C.3    29  THR29       0.0379
     33  N         22.4310    3.4180   10.7270 N.am   30  THR30      -0.1950
     34  CA        21.4450    3.7730   11.7300 C.3    30  THR30       0.1897
     35  C         21.4300    2.7210   12.7350 C.2    30  THR30       0.2313
     36  O         21.2100    2.9430   13.9150 O.2    30  THR30      -0.2863
     37  CB        20.0860    3.6890   11.1440 C.3    30  THR30       0.1794
     38  OG1       19.8720    4.8900   10.3930 O.3    30  THR30      -0.2208
     39  CG2       19.0010    3.4760   12.2380 C.3    30  THR30       0.0378
     40  N         28.4020    9.8420    7.0280 N.3    58  ASN58      -0.1240
     41  CA        27.0270    9.3920    7.1880 C.3    58  ASN58       0.1653
     42  C         26.4560    9.6240    8.5790 C.2    58  ASN58       0.2266
     43  O         25.2890    9.9580    8.7180 O.2    58  ASN58      -0.2867
     44  CB        26.9770    7.9030    6.9000 C.3    58  ASN58       0.1155
     45  CG        28.0680    7.1440    7.6310 C.2    58  ASN58       0.2627
     46  OD1       28.8710    7.7330    8.3530 O.2    58  ASN58      -0.2716
     47  ND2       28.0990    5.8360    7.4530 N.am   58  ASN58      -0.0877
     48  N         31.3510    1.0080    4.6100 N.3   130  PRO130     -0.2116
     49  CA        30.4280    0.3610    3.6820 C.3   130  PRO130      0.1372
     50  C         31.2320   -0.6400    2.8640 C.2   130  PRO130      0.2244
     51  O         30.6890   -1.6140    2.3480 O.2   130  PRO130     -0.2868
     52  CB        29.9480    1.5220    2.8070 C.3   130  PRO130      0.0268
     53  CG        30.1410    2.7410    3.6480 C.3   130  PRO130      0.0207
     54  CD        31.3850    2.4710    4.4390 C.3   130  PRO130      0.0892
     55  N         16.0340   -5.7540    8.6370 N.3   212  ASN212     -0.1225
     56  CA        15.6970   -4.3200    8.5630 C.3   212  ASN212      0.1785
     57  C         14.7290   -4.0480    7.3910 C.2   212  ASN212      0.2597
     58  O         14.5560   -4.8860    6.5070 O.2   212  ASN212     -0.2718
     59  CB        17.0260   -3.5540    8.4010 C.3   212  ASN212      0.1169
     60  CG        16.8650   -2.0860    8.1230 C.2   212  ASN212      0.2627
     61  OD1       15.8000   -1.5220    8.2840 O.2   212  ASN212     -0.2716
     62  ND2       17.9580   -1.4510    7.7220 N.am  212  ASN212     -0.0877
     63  N         14.0660   -2.9040    7.3880 N.am  213  GLN213     -0.1979
     64  CA        13.2180   -2.5910    6.2620 C.3   213  GLN213      0.1601
     65  C         12.3520   -3.8030    5.9490 C.2   213  GLN213      0.2287
     66  O         12.2720   -4.2340    4.8180 O.2   213  GLN213     -0.2864
     67  CB        14.0940   -2.2470    5.0570 C.3   213  GLN213      0.0394
     68  CG        15.2800   -1.2860    5.3780 C.3   213  GLN213      0.0908
     69  CD        15.9450   -0.6630    4.1260 C.2   213  GLN213      0.2608
     70  OE1       15.6060   -1.0220    3.0000 O.2   213  GLN213     -0.2717
     71  NE2       16.8810    0.2740    4.3320 N.am  213  GLN213     -0.0878
     72  N         11.0950   -3.3620   12.0070 N.3   255  PRO255     -0.2102
     73  CA        10.0860   -2.8510   11.0800 C.3   255  PRO255      0.1504
     74  C         10.6100   -1.6510   10.3050 C.2   255  PRO255      0.2576
     75  O         11.7210   -1.2060   10.5610 O.2   255  PRO255     -0.2718
     76  CB         8.9840   -2.4000   12.0270 C.3   255  PRO255      0.0282
     77  CG         9.7640   -1.8220   13.1760 C.3   255  PRO255      0.0208
     78  CD        11.0600   -2.6250   13.2790 C.3   255  PRO255      0.0893
     79  N          9.8080   -1.1110    9.3960 N.am  256  LEU256     -0.1966
     80  CA        10.2760   -0.0460    8.5160 C.3   256  LEU256      0.1728
     81  C          9.3810    1.1970    8.4780 C.2   256  LEU256      0.2616
     82  O          8.3690    1.2370    7.7750 O.2   256  LEU256     -0.2715
     83  CB        10.4450   -0.5920    7.1110 C.3   256  LEU256      0.0311
     84  CG        10.6450    0.5190    6.1030 C.3   256  LEU256      0.0022
     85  CD1       12.0180    0.3860    5.5070 C.3   256  LEU256      0.0001
     86  CD2        9.5680    0.4290    5.0430 C.3   256  LEU256      0.0001
     87  N          9.7810    2.2200    9.2210 N.am  257  CYS257     -0.1968
     88  CA         9.0200    3.4600    9.3020 C.3   257  CYS257      0.1712
     89  C          9.2840    4.2890    8.0630 C.2   257  CYS257      0.2296
     90  O         10.4200    4.3730    7.6290 O.2   257  CYS257     -0.2864
     91  CB         9.4450    4.2380   10.5410 C.3   257  CYS257      0.0983
     92  SG        11.2260    4.1960   10.8170 S.3   257  CYS257     -0.0798
     93  N         10.3550    6.5860    5.3000 N.3   259  GLY259     -0.1210
     94  CA        11.2510    7.6380    4.8890 C.3   259  GLY259      0.1956
     95  C         12.0830    8.2250    5.9950 C.2   259  GLY259      0.2612
     96  O         11.9820    7.8380    7.1580 O.2   259  GLY259     -0.2717
     97  N         12.8890    9.2050    5.6100 N.am  260  GLU260     -0.1965
     98  CA        13.9320    9.7230    6.4740 C.3   260  GLU260      0.1733
     99  C         13.6060    9.6170    7.9440 C.2   260  GLU260      0.2616
    100  O         12.4600    9.7540    8.3840 O.2   260  GLU260     -0.2715
    101  CB        14.3510   11.1450    6.0880 C.3   260  GLU260      0.0429
    102  CG        15.0550   11.2340    4.7380 C.3   260  GLU260      0.1163
    103  CD        15.9430   10.0310    4.4320 C.2   260  GLU260      0.3649
    104  OE1       15.5000    8.8700    4.5960 O.co2 260  GLU260     -0.2457
    105  OE2       17.0860   10.2460    3.9860 O.co2 260  GLU260     -0.2457
    106  N         14.6610    9.3610    8.6920 N.am  261  ILE261     -0.1963
    107  CA        14.5670    9.0650   10.0920 C.3   261  ILE261      0.1727
    108  C         15.9270    9.3990   10.6280 C.2   261  ILE261      0.2616
    109  O         16.9250    8.7150   10.3950 O.2   261  ILE261     -0.2715
    110  CB        14.2310    7.6040   10.2920 C.3   261  ILE261      0.0290
    111  CG1       14.7920    7.0610   11.6180 C.3   261  ILE261      0.0022
    112  CG2       14.7720    6.8360    9.1290 C.3   261  ILE261      0.0023
    113  CD1       16.2080    6.5540   11.5650 C.3   261  ILE261      0.0001
    114  N         15.9540   10.5350   11.2810 N.am  262  ARG262     -0.1977
    115  CA        17.1470   11.0280   11.8810 C.3   262  ARG262      0.1597
    116  C         16.6650   11.9190   12.9880 C.2   262  ARG262      0.2287
    117  O         15.5310   11.8050   13.4430 O.2   262  ARG262     -0.2864
    118  CB        17.9500   11.8250   10.8610 C.3   262  ARG262      0.0334
    119  CG        17.1440   12.8440   10.0590 C.3   262  ARG262      0.0492
    120  CD        18.0300   13.5350    9.0320 C.3   262  ARG262      0.2205
    121  NE        18.7390   12.5230    8.2650 N.pl3 262  ARG262     -0.0865
    122  CZ        18.3290   12.0600    7.0920 C.cat 262  ARG262      0.5346
    123  NH1       17.2280   12.5520    6.5410 N.pl3 262  ARG262      0.1354
    124  NH2       19.0280   11.1150    6.4700 N.pl3 262  ARG262      0.1354
    125  N         13.1230    5.2830   18.1120 N.3   270  PHE270     -0.1241
    126  CA        13.1980    4.1730   17.1880 C.3   270  PHE270      0.1605
    127  C         13.8110    3.0290   17.9570 C.2   270  PHE270      0.2264
    128  O         13.1610    2.0320   18.2710 O.2   270  PHE270     -0.2867
    129  CB        14.1190    4.6050   16.0430 C.3   270  PHE270      0.0534
    130  CG        14.4430    3.5340   15.0370 C.ar  270  PHE270     -0.0203
    131  CD1       13.8170    3.5020   13.8070 C.ar  270  PHE270     -0.0042
    132  CD2       15.4280    2.6090   15.2870 C.ar  270  PHE270     -0.0042
    133  CE1       14.1380    2.5390   12.8740 C.ar  270  PHE270     -0.0003
    134  CE2       15.7490    1.6400   14.3450 C.ar  270  PHE270     -0.0003
    135  CZ        15.1030    1.6070   13.1470 C.ar  270  PHE270     -0.0000
@<TRIPOS>BOND
     1     9    10    1
     2     9     7   am
     3     6     7    1
     4     6     5    1
     5    10    11    1
     6    12    11    2
     7     7     8    2
     8    51    50    2
     9    52    53    1
    10    52    49    1
    11    50    49    1
    12    70    69    2
    13    53    54    1
    14    49    48    1
    15   105   103   ar
    16    69    71   am
    17    69    68    1
    18   103   104   ar
    19   103   102    1
    20    54    48    1
    21     4     3    2
    22   102   101    1
    23    66    65    2
    24    94    93    1
    25    94    95    1
    26    86    84    1
    27    67    68    1
    28    67    64    1
    29     3     2    1
    30    13    14    1
    31    85    84    1
    32    97    95   am
    33    97    98    1
    34    65    64    1
    35    95    96    2
    36   101    98    1
    37    84    83    1
    38    64    63    1
    39    14    15    1
    40   124   122    1
    41    98    99    1
    42    58    57    2
    43   123   122    1
    44     2     1    1
    45    44    41    1
    46    44    45    1
    47    40    41    1
    48   122   121    2
    49    83    80    1
    50    41    42    1
    51    31    30    1
    52    63    57   am
    53    57    56    1
    54    47    45   am
    55    90    89    2
    56    45    46    2
    57    62    60   am
    58    15    17   am
    59    15    16    2
    60    82    81    2
    61    99   100    2
    62    99   106   am
    63    89    88    1
    64    60    61    2
    65    60    59    1
    66    17    18    1
    67   121   120    1
    68    59    56    1
    69    81    80    1
    70    81    87   am
    71    80    79    1
    72    56    55    1
    73    30    32    1
    74    30    27    1
    75    42    43    2
    76    24    23    1
    77    24    25    1
    78   106   107    1
    79    21    18    1
    80    21    22    1
    81   120   119    1
    82    23    22    1
    83   112   110    1
    84    87    88    1
    85    26    27    1
    86    26    19   am
    87    88    91    1
    88    18    19    1
    89    79    74   am
    90    27    28    1
    91    19    20    2
    92   119   118    1
    93   107   110    1
    94   107   108    1
    95   110   111    1
    96    74    75    2
    97    74    73    1
    98    38    37    1
    99   109   108    2
   100    91    92    1
   101   108   114   am
   102    33    28   am
   103    33    34    1
   104   118   115    1
   105    28    29    2
   106    73    72    1
   107    73    76    1
   108    37    34    1
   109    37    39    1
   110   114   115    1
   111   113   111    1
   112    34    35    1
   113   115   116    1
   114    72    78    1
   115    76    77    1
   116    35    36    2
   117   133   135   ar
   118   133   131   ar
   119   116   117    2
   120   135   134   ar
   121    77    78    1
   122   131   130   ar
   123   134   132   ar
   124   130   132   ar
   125   130   129    1
   126   129   126    1
   127   126   127    1
   128   126   125    1
   129   127   128    2
