@<TRIPOS>MOLECULE
tmp/3sjkA00.pdb
 128 121 0 0 0
SMALL
GASTEIGER

@<TRIPOS>ATOM
      1  N          6.6490   28.1480   11.9700 N.3    55  ASP55      -0.1225
      2  CA         7.8480   27.7230   12.6800 C.3    55  ASP55       0.1805
      3  C          8.9720   27.4100   11.6960 C.2    55  ASP55       0.2598
      4  O          8.7250   26.9270   10.5850 O.2    55  ASP55      -0.2718
      5  CB         7.5510   26.5010   13.5560 C.3    55  ASP55       0.1424
      6  CG         8.6100   26.2760   14.6160 C.2    55  ASP55       0.3668
      7  OD1        9.4410   27.1850   14.8280 O.co2  55  ASP55      -0.2456
      8  OD2        8.6100   25.1940   15.2430 O.co2  55  ASP55      -0.2456
      9  N         10.2050   27.7000   12.1020 N.am   56  ALA56      -0.1966
     10  CA        11.3710   27.4320   11.2680 C.3    56  ALA56       0.1728
     11  C         12.5610   27.0120   12.1220 C.2    56  ALA56       0.2616
     12  O         13.1060   27.8110   12.8840 O.2    56  ALA56      -0.2715
     13  CB        11.7200   28.6530   10.4220 C.3    56  ALA56       0.0334
     14  N         12.9600   25.7520   11.9850 N.am   57  VAL57      -0.1963
     15  CA        14.0400   25.1910   12.7850 C.3    57  VAL57       0.1727
     16  C         15.1390   24.6090   11.9010 C.2    57  VAL57       0.2616
     17  O         14.8800   23.7670   11.0420 O.2    57  VAL57      -0.2715
     18  CB        13.5150   24.0890   13.7210 C.3    57  VAL57       0.0290
     19  CG1       14.6260   23.5850   14.6360 C.3    57  VAL57       0.0023
     20  CG2       12.3340   24.6030   14.5320 C.3    57  VAL57       0.0023
     21  N         16.3690   25.0560   12.1270 N.am   58  GLU58      -0.1963
     22  CA        17.5140   24.5690   11.3720 C.3    58  GLU58       0.1733
     23  C         18.2220   23.3990   12.0510 C.2    58  GLU58       0.2616
     24  O         18.5830   23.4640   13.2220 O.2    58  GLU58      -0.2715
     25  CB        18.4820   25.7150   11.0800 C.3    58  GLU58       0.0429
     26  CG        17.8460   26.7810   10.2070 C.3    58  GLU58       0.1163
     27  CD        18.7550   27.9490    9.9370 C.2    58  GLU58       0.3649
     28  OE1       19.9740   27.8300   10.1730 O.co2  58  GLU58      -0.2457
     29  OE2       18.2420   28.9900    9.4830 O.co2  58  GLU58      -0.2457
     30  N         18.4100   22.3270   11.2930 N.am   59  LEU59      -0.1963
     31  CA        18.9790   21.0910   11.8160 C.3    59  LEU59       0.1728
     32  C         20.5050   21.0990   11.8520 C.2    59  LEU59       0.2616
     33  O         21.1700   21.4860   10.8900 O.2    59  LEU59      -0.2715
     34  CB        18.4830   19.8950   10.9980 C.3    59  LEU59       0.0311
     35  CG        17.2560   19.1510   11.5320 C.3    59  LEU59       0.0022
     36  CD1       16.4230   20.0130   12.4890 C.3    59  LEU59       0.0001
     37  CD2       16.4120   18.6210   10.3890 C.3    59  LEU59       0.0001
     38  N         21.0510   20.6490   12.9720 N.am   60  VAL60      -0.1963
     39  CA        22.4880   20.5340   13.1270 C.3    60  VAL60       0.1727
     40  C         22.7860   19.1570   13.6960 C.2    60  VAL60       0.2616
     41  O         21.9120   18.5220   14.2900 O.2    60  VAL60      -0.2715
     42  CB        23.0370   21.6200   14.0600 C.3    60  VAL60       0.0290
     43  CG1       22.7730   23.0040   13.4680 C.3    60  VAL60       0.0023
     44  CG2       22.4120   21.4980   15.4330 C.3    60  VAL60       0.0023
     45  N         24.0100   18.6790   13.5070 N.am   61  ASP61      -0.1957
     46  CA        24.3400   17.3440   13.9840 C.3    61  ASP61       0.1840
     47  C         24.6880   17.3450   15.4720 C.2    61  ASP61       0.2621
     48  O         24.6900   18.3900   16.1260 O.2    61  ASP61      -0.2715
     49  CB        25.4500   16.7000   13.1410 C.3    61  ASP61       0.1450
     50  CG        26.8260   17.2540   13.4510 C.2    61  ASP61       0.3671
     51  OD1       27.7860   16.8330   12.7760 O.co2  61  ASP61      -0.2456
     52  OD2       26.9590   18.0980   14.3640 O.co2  61  ASP61      -0.2456
     53  N         24.9780   16.1580   15.9900 N.am   62  GLU62      -0.1977
     54  CA        25.2740   15.9540   17.4050 C.3    62  GLU62       0.1602
     55  C         26.2760   16.9640   17.9700 C.2    62  GLU62       0.2287
     56  O         26.2460   17.2810   19.1590 O.2    62  GLU62      -0.2864
     57  CB        25.7790   14.5230   17.5980 C.3    62  GLU62       0.0415
     58  CG        26.1760   13.8570   16.2700 C.3    62  GLU62       0.1163
     59  CD        25.4270   12.5640   16.0120 C.2    62  GLU62       0.3649
     60  OE1       24.2700   12.4360   16.4660 O.co2  62  GLU62      -0.2457
     61  OE2       26.0020   11.6690   15.3560 O.co2  62  GLU62      -0.2457
     62  N         26.6240   20.0930   16.7130 N.3    64  GLY64      -0.1225
     63  CA        26.1710   21.4270   16.3650 C.3    64  GLY64       0.1811
     64  C         26.5680   21.8900   14.9740 C.2    64  GLY64       0.2280
     65  O         26.4650   23.0730   14.6590 O.2    64  GLY64      -0.2866
     66  N         23.5150   20.7980    9.0490 N.3    67  LEU67      -0.1245
     67  CA        23.0770   19.6920    8.1990 C.3    67  LEU67       0.1561
     68  C         22.4210   20.2160    6.9240 C.2    67  LEU67       0.2260
     69  O         22.0600   19.4390    6.0400 O.2    67  LEU67      -0.2867
     70  CB        22.1100   18.7610    8.9400 C.3    67  LEU67       0.0270
     71  CG        22.6090   18.0060   10.1760 C.3    67  LEU67       0.0019
     72  CD1       21.4680   17.1720   10.7670 C.3    67  LEU67       0.0001
     73  CD2       23.8060   17.1210    9.8410 C.3    67  LEU67       0.0001
     74  N         13.4490   22.8990    8.6760 N.3    71  LEU71      -0.1245
     75  CA        12.1140   22.3360    8.8470 C.3    71  LEU71       0.1561
     76  C         11.1090   23.4260    9.1930 C.2    71  LEU71       0.2260
     77  O         11.2110   24.0620   10.2510 O.2    71  LEU71      -0.2867
     78  CB        12.1230   21.3090    9.9830 C.3    71  LEU71       0.0270
     79  CG        12.2940   19.8320    9.6310 C.3    71  LEU71       0.0019
     80  CD1       13.4160   19.6390    8.6320 C.3    71  LEU71       0.0001
     81  CD2       12.5390   19.0180   10.8910 C.3    71  LEU71       0.0001
     82  N         26.6990   14.9000    7.0210 N.3   131  ARG131     -0.1245
     83  CA        25.6520   13.9620    6.6080 C.3   131  ARG131      0.1563
     84  C         25.2190   14.1560    5.1560 C.2   131  ARG131      0.2260
     85  O         24.0450   13.9600    4.8070 O.2   131  ARG131     -0.2867
     86  CB        24.4450   14.0380    7.5510 C.3   131  ARG131      0.0307
     87  CG        24.7740   13.6700    9.0000 C.3   131  ARG131      0.0489
     88  CD        23.5140   13.5920    9.8810 C.3   131  ARG131      0.2205
     89  NE        23.8550   13.5170   11.3000 N.pl3 131  ARG131     -0.0865
     90  CZ        22.9680   13.3720   12.2820 C.cat 131  ARG131      0.5346
     91  NH1       21.6710   13.2770   12.0120 N.pl3 131  ARG131      0.1354
     92  NH2       23.3800   13.3120   13.5400 N.pl3 131  ARG131      0.1354
     93  N         16.8210   11.2140    7.2580 N.3   172  LYS172     -0.1245
     94  CA        16.4750   10.1710    8.2200 C.3   172  LYS172      0.1561
     95  C         15.0380   10.3950    8.6390 C.2   172  LYS172      0.2260
     96  O         14.5750   11.5370    8.6940 O.2   172  LYS172     -0.2867
     97  CB        17.3500   10.2560    9.4710 C.3   172  LYS172      0.0271
     98  CG        18.8360   10.3180    9.2100 C.3   172  LYS172      0.0035
     99  CD        19.6110   10.3900   10.5220 C.3   172  LYS172      0.0206
    100  CE        19.3590    9.1610   11.3800 C.3   172  LYS172      0.1093
    101  NZ        20.3320    9.0690   12.5020 N.3   172  LYS172     -0.1314
    102  N         13.8280   10.1560   11.5390 N.3   174  SER174     -0.1202
    103  CA        13.7950   10.8190   12.8430 C.3   174  SER174      0.2020
    104  C         13.6560   12.3370   12.7280 C.2   174  SER174      0.2618
    105  O         13.1330   12.9880   13.6360 O.2   174  SER174     -0.2717
    106  CB        15.0390   10.4630   13.6680 C.3   174  SER174      0.2103
    107  OG        16.2160   11.0030   13.0890 O.3   174  SER174     -0.2182
    108  N         14.1300   12.9010   11.6190 N.am  175  TYR175     -0.1975
    109  CA        14.0490   14.3450   11.4240 C.3   175  TYR175      0.1639
    110  C         12.6010   14.8210   11.4380 C.2   175  TYR175      0.2290
    111  O         12.3380   16.0010   11.6490 O.2   175  TYR175     -0.2864
    112  CB        14.6830   14.7770   10.0910 C.3   175  TYR175      0.0560
    113  CG        16.1820   14.6040    9.9810 C.ar  175  TYR175     -0.0198
    114  CD1       16.9780   14.4550   11.1100 C.ar  175  TYR175     -0.0009
    115  CD2       16.8040   14.6010    8.7350 C.ar  175  TYR175     -0.0009
    116  CE1       18.3480   14.3030   10.9980 C.ar  175  TYR175      0.0417
    117  CE2       18.1730   14.4490    8.6130 C.ar  175  TYR175      0.0417
    118  CZ        18.9380   14.3010    9.7410 C.ar  175  TYR175      0.1957
    119  OH        20.2970   14.1460    9.6220 O.3   175  TYR175     -0.2866
    120  N          5.5470   16.3900   15.5080 N.3   179  GLU179     -0.1245
    121  CA         5.9150   17.6630   16.1270 C.3   179  GLU179      0.1567
    122  C          7.3090   17.6250   16.7520 C.2   179  GLU179      0.2260
    123  O          8.2710   18.1350   16.1750 O.2   179  GLU179     -0.2867
    124  CB         4.8730   18.1070   17.1600 C.3   179  GLU179      0.0388
    125  CG         4.5190   19.5860   17.0530 C.3   179  GLU179      0.1160
    126  CD         4.2370   20.2330   18.3970 C.2   179  GLU179      0.3649
    127  OE1        3.5030   19.6330   19.2080 O.co2 179  GLU179     -0.2457
    128  OE2        4.7490   21.3490   18.6370 O.co2 179  GLU179     -0.2457
@<TRIPOS>BOND
     1    85    84    2
     2    84    83    1
     3    69    68    2
     4    83    82    1
     5    83    86    1
     6    68    67    1
     7    93    94    1
     8    86    87    1
     9    67    70    1
    10    67    66    1
    11    94    95    1
    12    94    97    1
    13   117   115   ar
    14   117   118   ar
    15    80    79    1
    16    95    96    2
    17    74    75    1
    18   115   113   ar
    19    75    76    1
    20    75    78    1
    21    70    71    1
    22    87    88    1
    23    76    77    2
    24    98    97    1
    25    98    99    1
    26    29    27   ar
    27   119   118    1
    28    79    78    1
    29    79    81    1
    30   118   116   ar
    31    73    71    1
    32    88    89    1
    33    27    28   ar
    34    27    26    1
    35   113   112    1
    36   113   114   ar
    37   112   109    1
    38    71    72    1
    39    26    25    1
    40    37    35    1
    41    13    10    1
    42    99   100    1
    43     4     3    2
    44    33    32    2
    45   116   114   ar
    46    34    35    1
    47    34    31    1
    48    17    16    2
    49    25    22    1
    50    10     9    1
    51    10    11    1
    52    30    31    1
    53    30    23   am
    54    89    90    2
    55    22    23    1
    56    22    21    1
    57   100   101    1
    58   109   110    1
    59   109   108    1
    60   110   111    2
    61    35    36    1
    62   102   103    1
    63   108   104   am
    64     3     9   am
    65     3     2    1
    66    31    32    1
    67    32    38   am
    68    16    21   am
    69    16    15    1
    70     1     2    1
    71    14    11   am
    72    14    15    1
    73    91    90    1
    74    23    24    2
    75    11    12    2
    76    90    92    1
    77     2     5    1
    78   104   103    1
    79   104   105    2
    80    51    50   ar
    81    15    18    1
    82   103   106    1
    83    38    39    1
    84   107   106    1
    85    39    40    1
    86    39    42    1
    87    49    50    1
    88    49    46    1
    89    50    52   ar
    90    43    42    1
    91    45    40   am
    92    45    46    1
    93     5     6    1
    94    40    41    2
    95    18    20    1
    96    18    19    1
    97    46    47    1
    98    42    44    1
    99     6     7   ar
   100     6     8   ar
   101    65    64    2
   102    64    63    1
   103    61    59   ar
   104    47    53   am
   105    47    48    2
   106   120   121    1
   107    53    54    1
   108    59    58    1
   109    59    60   ar
   110   121   122    1
   111   121   124    1
   112   123   122    2
   113    58    57    1
   114    63    62    1
   115   125   124    1
   116   125   126    1
   117    54    57    1
   118    54    55    1
   119    55    56    2
   120   126   128   ar
   121   126   127   ar
