@<TRIPOS>MOLECULE
tmp/3sjlA02.pdb
 83 77 0 0 0
SMALL
GASTEIGER

@<TRIPOS>ATOM
      1  N         19.6920  -48.1750   79.3000 N.3    80  LYS80      -0.1231
      2  CA        20.3130  -48.9430   80.4020 C.3    80  LYS80       0.1693
      3  C         21.8220  -49.1580   80.0980 C.2    80  LYS80       0.2591
      4  O         22.6740  -48.9990   80.9810 O.2    80  LYS80      -0.2718
      5  CB        19.5990  -50.2740   80.5760 C.3    80  LYS80       0.0285
      6  CG        20.2880  -51.1000   81.6380 C.3    80  LYS80       0.0035
      7  CD        19.4280  -52.4220   81.8360 C.3    80  LYS80       0.0206
      8  CE        20.2520  -53.3140   82.7570 C.3    80  LYS80       0.1093
      9  NZ        19.5800  -54.6610   82.9890 N.3    80  LYS80      -0.1314
     10  N         22.1820  -49.5410   78.8490 N.am   81  GLN81      -0.1979
     11  CA        23.5880  -49.6840   78.5290 C.3    81  GLN81       0.1601
     12  C         24.3330  -48.3540   78.6740 C.2    81  GLN81       0.2287
     13  O         25.4420  -48.3300   79.1180 O.2    81  GLN81      -0.2864
     14  CB        23.7700  -50.2650   77.1330 C.3    81  GLN81       0.0394
     15  CG        23.1470  -51.6410   77.0460 C.3    81  GLN81       0.0908
     16  CD        23.7250  -52.6250   78.1080 C.2    81  GLN81       0.2608
     17  OE1       24.9010  -52.8710   78.0950 O.2    81  GLN81      -0.2717
     18  NE2       22.8760  -53.2150   78.9590 N.am   81  GLN81      -0.0878
     19  N         25.2130  -47.6590   82.3750 N.3    84  GLY84      -0.1210
     20  CA        26.3970  -48.4320   82.7770 C.3    84  GLY84       0.1956
     21  C         27.6690  -47.8370   82.1720 C.2    84  GLY84       0.2611
     22  O         28.6460  -47.6330   82.8870 O.2    84  GLY84      -0.2717
     23  N         27.5990  -47.4640   80.8820 N.am   85  GLN85      -0.1979
     24  CA        28.7800  -46.8170   80.2980 C.3    85  GLN85       0.1601
     25  C         29.0750  -45.5020   81.0170 C.2    85  GLN85       0.2287
     26  O         30.2670  -45.1890   81.2580 O.2    85  GLN85      -0.2864
     27  CB        28.6370  -46.5670   78.8050 C.3    85  GLN85       0.0394
     28  CG        28.6320  -47.9980   78.1170 C.3    85  GLN85       0.0908
     29  CD        28.7440  -47.9250   76.5930 C.2    85  GLN85       0.2608
     30  OE1       29.4200  -47.0510   76.0470 O.2    85  GLN85      -0.2717
     31  NE2       28.0690  -48.8750   75.9020 N.am   85  GLN85      -0.0878
     32  N         31.0340  -45.6200   84.2770 N.3    88  LEU88      -0.1245
     33  CA        32.5060  -45.8960   84.1400 C.3    88  LEU88       0.1561
     34  C         33.2050  -44.9980   83.1290 C.2    88  LEU88       0.2260
     35  O         34.4390  -45.1800   82.8430 O.2    88  LEU88      -0.2867
     36  CB        32.6820  -47.3530   83.5720 C.3    88  LEU88       0.0270
     37  CG        32.0080  -48.3300   84.5730 C.3    88  LEU88       0.0019
     38  CD1       32.2330  -49.6880   83.8880 C.3    88  LEU88       0.0001
     39  CD2       32.6860  -48.3090   85.9630 C.3    88  LEU88       0.0001
     40  N         33.1180  -51.6340   88.2990 N.3    98  ARG98      -0.1245
     41  CA        31.8550  -51.9950   88.8610 C.3    98  ARG98       0.1563
     42  C         31.8930  -52.2780   90.3250 C.2    98  ARG98       0.2260
     43  O         30.9420  -51.8680   91.0370 O.2    98  ARG98      -0.2867
     44  CB        31.3090  -53.2120   88.0920 C.3    98  ARG98       0.0307
     45  CG        31.0450  -52.8670   86.6320 C.3    98  ARG98       0.0489
     46  CD        30.5080  -54.1940   85.9650 C.3    98  ARG98       0.2205
     47  NE        30.1410  -53.9340   84.5740 N.pl3  98  ARG98      -0.0865
     48  CZ        31.0060  -53.6960   83.5940 C.cat  98  ARG98       0.5346
     49  NH1       32.3080  -53.7020   83.8390 N.pl3  98  ARG98       0.1354
     50  NH2       30.5750  -53.4720   82.3380 N.pl3  98  ARG98       0.1354
     51  N         28.4050  -57.1730   89.9710 N.3   128  GLU128     -0.1245
     52  CA        27.7720  -57.1640   88.6770 C.3   128  GLU128      0.1567
     53  C         26.2550  -56.9180   88.7470 C.2   128  GLU128      0.2260
     54  O         25.7120  -56.1820   87.9010 O.2   128  GLU128     -0.2867
     55  CB        27.9760  -58.5380   87.9170 C.3   128  GLU128      0.0388
     56  CG        29.4230  -58.8090   87.7730 C.3   128  GLU128      0.1160
     57  CD        30.0970  -57.8730   86.7390 C.2   128  GLU128      0.3649
     58  OE1       29.4440  -57.5620   85.7120 O.co2 128  GLU128     -0.2457
     59  OE2       31.2930  -57.5400   86.9640 O.co2 128  GLU128     -0.2457
     60  N         25.6600  -53.1330   89.8790 N.3   131  PHE131     -0.1227
     61  CA        25.8600  -52.2060   88.8130 C.3   131  PHE131      0.1736
     62  C         24.7240  -52.3030   87.7840 C.2   131  PHE131      0.2595
     63  O         24.1640  -51.2700   87.3360 O.2   131  PHE131     -0.2718
     64  CB        27.2350  -52.5670   88.2120 C.3   131  PHE131      0.0547
     65  CG        27.7080  -51.6240   87.1150 C.ar  131  PHE131     -0.0202
     66  CD1       28.3810  -50.4150   87.4770 C.ar  131  PHE131     -0.0042
     67  CD2       27.4600  -51.9680   85.7730 C.ar  131  PHE131     -0.0042
     68  CE1       28.8800  -49.5560   86.4780 C.ar  131  PHE131     -0.0003
     69  CE2       27.9420  -51.0780   84.7420 C.ar  131  PHE131     -0.0003
     70  CZ        28.6650  -49.9110   85.1500 C.ar  131  PHE131     -0.0000
     71  N         24.3780  -53.5330   87.3760 N.am  132  ASP132     -0.1974
     72  CA        23.3180  -53.6540   86.4200 C.3   132  ASP132      0.1709
     73  C         21.9750  -53.0710   86.8960 C.2   132  ASP132      0.2293
     74  O         21.2630  -52.4560   86.1340 O.2   132  ASP132     -0.2864
     75  CB        23.1720  -55.1650   85.9790 C.3   132  ASP132      0.1436
     76  CG        22.3680  -55.3140   84.6650 C.2   132  ASP132      0.3671
     77  OD1       22.9220  -55.0460   83.5890 O.co2 132  ASP132     -0.2456
     78  OD2       21.2130  -55.6850   84.7680 O.co2 132  ASP132     -0.2456
     79  N         22.0110  -49.2850   86.7240 N.3   135  ALA135     -0.1245
     80  CA        21.8260  -48.7920   85.3950 C.3   135  ALA135      0.1562
     81  C         20.3400  -48.9650   84.9790 C.2   135  ALA135      0.2260
     82  O         19.7770  -48.0280   84.3510 O.2   135  ALA135     -0.2867
     83  CB        22.6660  -49.6630   84.4700 C.3   135  ALA135      0.0290
@<TRIPOS>BOND
     1    31    29   am
     2    30    29    2
     3    29    28    1
     4    15    14    1
     5    15    16    1
     6    14    11    1
     7    17    16    2
     8    16    18   am
     9    28    27    1
    10    11    12    1
    11    11    10    1
    12    12    13    2
    13    27    24    1
    14    10     3   am
    15     1     2    1
    16     3     2    1
    17     3     4    2
    18    24    23    1
    19    24    25    1
    20     2     5    1
    21     5     6    1
    22    23    21   am
    23    25    26    2
    24     6     7    1
    25     7     8    1
    26    21    20    1
    27    21    22    2
    28    50    48    1
    29    19    20    1
    30     8     9    1
    31    35    34    2
    32    34    33    1
    33    36    33    1
    34    36    37    1
    35    77    76   ar
    36    48    49    1
    37    48    47    2
    38    38    37    1
    39    33    32    1
    40    82    81    2
    41    83    80    1
    42    37    39    1
    43    47    46    1
    44    76    78   ar
    45    76    75    1
    46    69    70   ar
    47    69    67   ar
    48    81    80    1
    49    70    68   ar
    50    80    79    1
    51    58    57   ar
    52    67    65   ar
    53    46    45    1
    54    75    72    1
    55    74    73    2
    56    72    73    1
    57    72    71    1
    58    68    66   ar
    59    45    44    1
    60    57    59   ar
    61    57    56    1
    62    65    66   ar
    63    65    64    1
    64    63    62    2
    65    71    62   am
    66    56    55    1
    67    62    61    1
    68    54    53    2
    69    55    52    1
    70    44    41    1
    71    64    61    1
    72    40    41    1
    73    52    53    1
    74    52    51    1
    75    61    60    1
    76    41    42    1
    77    42    43    2
