@<TRIPOS>MOLECULE
tmp/3sjnA00.pdb
 91 85 0 0 0
SMALL
GASTEIGER

@<TRIPOS>ATOM
      1  N        -53.7050  -21.6300   35.5740 N.3   135  ARG135     -0.1245
      2  CA       -53.0360  -22.3940   36.6300 C.3   135  ARG135      0.1563
      3  C        -51.6370  -22.8480   36.2180 C.2   135  ARG135      0.2260
      4  O        -51.4120  -23.2910   35.0840 O.2   135  ARG135     -0.2867
      5  CB       -53.8950  -23.5880   37.0630 C.3   135  ARG135      0.0307
      6  CG       -53.5500  -24.1250   38.4540 C.3   135  ARG135      0.0489
      7  CD       -54.6440  -25.0150   39.0340 C.3   135  ARG135      0.2205
      8  NE       -54.6750  -26.3320   38.4040 N.pl3 135  ARG135     -0.0865
      9  CZ       -53.9340  -27.3750   38.7760 C.cat 135  ARG135      0.5346
     10  NH1      -53.0890  -27.2800   39.7960 N.pl3 135  ARG135      0.1354
     11  NH2      -54.0450  -28.5240   38.1250 N.pl3 135  ARG135      0.1354
     12  N        -50.1150  -31.7490   43.8650 N.3   194  GLU194     -0.1245
     13  CA       -49.7310  -32.4990   42.6680 C.3   194  GLU194      0.1567
     14  C        -48.2100  -32.4820   42.6010 C.2   194  GLU194      0.2260
     15  O        -47.5900  -31.4220   42.6850 O.2   194  GLU194     -0.2867
     16  CB       -50.3090  -31.8600   41.4010 C.3   194  GLU194      0.0388
     17  CG       -51.8160  -31.9590   41.2380 C.3   194  GLU194      0.1160
     18  CD       -52.3190  -31.3090   39.9500 C.2   194  GLU194      0.3649
     19  OE1      -51.5040  -30.7340   39.1940 O.co2 194  GLU194     -0.2457
     20  OE2      -53.5390  -31.3700   39.6940 O.co2 194  GLU194     -0.2457
     21  N        -48.1860  -37.3330   39.8390 N.3   222  ASN222     -0.1225
     22  CA       -49.2020  -36.8630   38.9060 C.3   222  ASN222      0.1785
     23  C        -48.8270  -37.2720   37.4760 C.2   222  ASN222      0.2597
     24  O        -49.6790  -37.7400   36.7170 O.2   222  ASN222     -0.2718
     25  CB       -49.3520  -35.3540   39.0720 C.3   222  ASN222      0.1169
     26  CG       -50.4830  -34.7510   38.2550 C.2   222  ASN222      0.2627
     27  OD1      -50.4370  -33.5640   37.9520 O.2   222  ASN222     -0.2716
     28  ND2      -51.4980  -35.5370   37.9170 N.am  222  ASN222     -0.0877
     29  N        -47.5500  -37.1060   37.1310 N.am  223  TRP223     -0.1976
     30  CA       -46.9890  -37.7190   35.9250 C.3   223  TRP223      0.1640
     31  C        -45.4910  -38.0350   35.9960 C.2   223  TRP223      0.2290
     32  O        -44.7720  -37.5650   36.8920 O.2   223  TRP223     -0.2864
     33  CB       -47.3510  -36.9290   34.6490 C.3   223  TRP223      0.0576
     34  CG       -46.6100  -35.6480   34.3960 C.ar  223  TRP223      0.0006
     35  CD1      -45.3170  -35.5180   33.9780 C.ar  223  TRP223      0.0946
     36  CD2      -47.1280  -34.3200   34.5110 C.ar  223  TRP223      0.0152
     37  NE1      -44.9970  -34.2000   33.8260 N.ar  223  TRP223     -0.2442
     38  CE2      -46.0920  -33.4380   34.1420 C.ar  223  TRP223      0.0810
     39  CE3      -48.3720  -33.7880   34.8910 C.ar  223  TRP223      0.0012
     40  CZ2      -46.2510  -32.0470   34.1430 C.ar  223  TRP223      0.0191
     41  CZ3      -48.5340  -32.4080   34.8890 C.ar  223  TRP223      0.0001
     42  CH2      -47.4760  -31.5520   34.5220 C.ar  223  TRP223      0.0015
     43  N        -49.4330  -41.2310   35.0170 N.3   246  LYS246     -0.1245
     44  CA       -49.4730  -40.6350   33.6810 C.3   246  LYS246      0.1561
     45  C        -48.0660  -40.5380   33.0780 C.2   246  LYS246      0.2260
     46  O        -47.0830  -40.3460   33.8030 O.2   246  LYS246     -0.2867
     47  CB       -50.1700  -39.2670   33.6940 C.3   246  LYS246      0.0271
     48  CG       -51.6860  -39.3430   33.8690 C.3   246  LYS246      0.0035
     49  CD       -52.3050  -37.9740   34.1390 C.3   246  LYS246      0.0206
     50  CE       -53.7680  -38.1180   34.5360 C.3   246  LYS246      0.1093
     51  NZ       -54.4220  -36.8160   34.8590 N.3   246  LYS246     -0.1314
     52  N        -49.9420  -37.2340   28.1760 N.3   270  ILE270     -0.1245
     53  CA       -49.6450  -35.8120   28.1500 C.3   270  ILE270      0.1561
     54  C        -48.5900  -35.5350   27.0820 C.2   270  ILE270      0.2260
     55  O        -47.5360  -36.1800   27.0560 O.2   270  ILE270     -0.2867
     56  CB       -49.1520  -35.3340   29.5360 C.3   270  ILE270      0.0252
     57  CG1      -50.3080  -35.3110   30.5380 C.3   270  ILE270      0.0019
     58  CG2      -48.5160  -33.9390   29.4670 C.3   270  ILE270      0.0019
     59  CD1      -49.8570  -35.4600   31.9660 C.3   270  ILE270      0.0001
     60  N        -53.8410  -34.8930   26.5780 N.3   297  GLN297     -0.1245
     61  CA       -53.7280  -33.5630   27.1840 C.3   297  GLN297      0.1566
     62  C        -52.4590  -32.8470   26.7190 C.2   297  GLN297      0.2260
     63  O        -51.3620  -33.4000   26.7570 O.2   297  GLN297     -0.2867
     64  CB       -53.7970  -33.6400   28.7210 C.3   297  GLN297      0.0367
     65  CG       -53.6950  -32.2850   29.4360 C.3   297  GLN297      0.0905
     66  CD       -55.0120  -31.5210   29.4880 C.2   297  GLN297      0.2608
     67  OE1      -56.0740  -32.0630   29.1850 O.2   297  GLN297     -0.2717
     68  NE2      -54.9420  -30.2520   29.8810 N.am  297  GLN297     -0.0878
     69  N        -49.9600  -30.0260   27.5400 N.3   299  ILE299     -0.1245
     70  CA       -49.4180  -29.1120   28.5540 C.3   299  ILE299      0.1561
     71  C        -48.0960  -28.6030   28.0170 C.2   299  ILE299      0.2260
     72  O        -47.1340  -29.3620   27.9880 O.2   299  ILE299     -0.2867
     73  CB       -49.1800  -29.8490   29.9120 C.3   299  ILE299      0.0252
     74  CG1      -50.4810  -30.4840   30.4020 C.3   299  ILE299      0.0019
     75  CG2      -48.5570  -28.8810   30.9630 C.3   299  ILE299      0.0019
     76  CD1      -50.3490  -31.3220   31.6700 C.3   299  ILE299      0.0001
     77  N        -55.6010  -25.4030   30.4630 N.3   323  THR323     -0.1203
     78  CA       -55.8640  -25.2560   31.8890 C.3   323  THR323      0.1994
     79  C        -54.6130  -25.3570   32.7620 C.2   323  THR323      0.2617
     80  O        -54.6970  -25.1790   33.9730 O.2   323  THR323     -0.2717
     81  CB       -56.9410  -26.2620   32.3720 C.3   323  THR323      0.1784
     82  OG1      -56.5520  -27.5940   32.0150 O.3   323  THR323     -0.2211
     83  CG2      -58.2950  -25.9490   31.7350 C.3   323  THR323      0.0376
     84  N        -53.4570  -25.6180   32.1480 N.am  324  LEU324     -0.1979
     85  CA       -52.2110  -25.7770   32.9030 C.3   324  LEU324      0.1596
     86  C        -50.9570  -25.3920   32.1280 C.2   324  LEU324      0.2287
     87  O        -50.7570  -25.8130   30.9890 O.2   324  LEU324     -0.2864
     88  CB       -52.0680  -27.2140   33.4320 C.3   324  LEU324      0.0297
     89  CG       -50.9800  -27.4300   34.4930 C.3   324  LEU324      0.0022
     90  CD1      -51.3860  -26.8060   35.8340 C.3   324  LEU324      0.0001
     91  CD2      -50.6630  -28.9010   34.6600 C.3   324  LEU324      0.0001
@<TRIPOS>BOND
     1    60    61    1
     2    62    63    2
     3    62    61    1
     4    55    54    2
     5    54    53    1
     6    61    64    1
     7    69    70    1
     8    72    71    2
     9    71    70    1
    10    53    52    1
    11    53    56    1
    12    70    73    1
    13    64    65    1
    14    67    66    2
    15    65    66    1
    16    58    56    1
    17    66    68   am
    18    56    57    1
    19    73    74    1
    20    73    75    1
    21    74    76    1
    22    77    78    1
    23    57    59    1
    24    87    86    2
    25    83    81    1
    26    78    81    1
    27    78    79    1
    28    82    81    1
    29    86    85    1
    30    84    79   am
    31    84    85    1
    32    79    80    2
    33    85    88    1
    34    45    44    1
    35    45    46    2
    36    88    89    1
    37    44    47    1
    38    44    43    1
    39    47    48    1
    40    37    35   ar
    41    37    38   ar
    42    48    49    1
    43    35    34   ar
    44    49    50    1
    45    38    40   ar
    46    38    36   ar
    47    40    42   ar
    48    34    36   ar
    49    34    33    1
    50    89    91    1
    51    89    90    1
    52    36    39   ar
    53    42    41   ar
    54    50    51    1
    55    33    30    1
    56    41    39   ar
    57     4     3    2
    58     1     2    1
    59    30    31    1
    60    30    29    1
    61    31    32    2
    62     3     2    1
    63     2     5    1
    64    24    23    2
    65     5     6    1
    66    29    23   am
    67    23    22    1
    68    28    26   am
    69    27    26    2
    70    11     9    1
    71    26    25    1
    72     8     9    2
    73     8     7    1
    74     6     7    1
    75     9    10    1
    76    22    25    1
    77    22    21    1
    78    19    18   ar
    79    20    18   ar
    80    18    17    1
    81    17    16    1
    82    16    13    1
    83    14    13    1
    84    14    15    2
    85    13    12    1
