@<TRIPOS>MOLECULE
tmp/3sjqB00.pdb
 95 88 0 0 0
SMALL
GASTEIGER

@<TRIPOS>ATOM
      1  N         -2.2080  -18.2630  -11.1780 N.3    18  PHE18      -0.1241
      2  CA        -1.9890  -17.5840  -12.4660 C.3    18  PHE18       0.1605
      3  C         -1.0640  -18.3900  -13.3690 C.2    18  PHE18       0.2264
      4  O         -1.2040  -18.3920  -14.6040 O.2    18  PHE18      -0.2867
      5  CB        -1.3340  -16.2190  -12.2400 C.3    18  PHE18       0.0534
      6  CG        -2.1290  -15.3100  -11.3420 C.ar   18  PHE18      -0.0203
      7  CD1       -3.0530  -14.4430  -11.8760 C.ar   18  PHE18      -0.0042
      8  CD2       -1.9680  -15.3570   -9.9700 C.ar   18  PHE18      -0.0042
      9  CE1       -3.8090  -13.6040  -11.0410 C.ar   18  PHE18      -0.0003
     10  CE2       -2.7090  -14.5260   -9.1420 C.ar   18  PHE18      -0.0003
     11  CZ        -3.6330  -13.6580   -9.6860 C.ar   18  PHE18      -0.0000
     12  N          4.4210  -16.1910  -15.3680 N.3    26  ILE26      -0.1245
     13  CA         3.0660  -15.9710  -15.8630 C.3    26  ILE26       0.1561
     14  C          3.1820  -15.2800  -17.2020 C.2    26  ILE26       0.2260
     15  O          3.8810  -14.2780  -17.3200 O.2    26  ILE26      -0.2867
     16  CB         2.2740  -15.0590  -14.9330 C.3    26  ILE26       0.0252
     17  CG1        2.2240  -15.6510  -13.5150 C.3    26  ILE26       0.0019
     18  CG2        0.8540  -14.8530  -15.4800 C.3    26  ILE26       0.0019
     19  CD1        1.8450  -14.5820  -12.4510 C.3    26  ILE26       0.0001
     20  N         -2.6520  -15.1770  -18.4920 N.3    31  LEU31      -0.1245
     21  CA        -3.5990  -14.1760  -18.0060 C.3    31  LEU31       0.1561
     22  C         -4.8980  -14.2160  -18.7960 C.2    31  LEU31       0.2260
     23  O         -5.9630  -13.9240  -18.2490 O.2    31  LEU31      -0.2867
     24  CB        -3.0370  -12.7520  -18.0290 C.3    31  LEU31       0.0270
     25  CG        -1.8740  -12.4110  -17.0980 C.3    31  LEU31       0.0019
     26  CD1       -1.6240  -10.9030  -17.1530 C.3    31  LEU31       0.0001
     27  CD2       -2.1820  -12.8490  -15.6670 C.3    31  LEU31       0.0001
     28  N         -1.1500   -5.7210  -19.0640 N.3    50  MET50      -0.1245
     29  CA        -1.1530   -6.2590  -17.7050 C.3    50  MET50       0.1570
     30  C          0.1190   -7.0170  -17.3660 C.2    50  MET50       0.2261
     31  O          0.5510   -7.0250  -16.2160 O.2    50  MET50      -0.2867
     32  CB        -2.3840   -7.1170  -17.4680 C.3    50  MET50       0.0387
     33  CG        -3.6120   -6.2280  -17.4010 C.3    50  MET50       0.0595
     34  SD        -5.0040   -6.9820  -16.5920 S.3    50  MET50      -0.1393
     35  CE        -5.4810   -8.1910  -17.7860 C.3    50  MET50       0.0692
     36  N          3.0020   -4.1170  -17.0390 N.3    53  GLU53      -0.1231
     37  CA         2.9250   -3.3140  -15.8090 C.3    53  GLU53       0.1699
     38  C          3.7230   -3.9440  -14.6760 C.2    53  GLU53       0.2592
     39  O          4.1930   -3.2620  -13.7660 O.2    53  GLU53      -0.2718
     40  CB         1.4680   -3.1780  -15.3300 C.3    53  GLU53       0.0402
     41  CG         0.5710   -2.3190  -16.1940 C.3    53  GLU53       0.1161
     42  CD        -0.8580   -2.2250  -15.6570 C.2    53  GLU53       0.3649
     43  OE1       -1.1570   -2.8300  -14.6010 O.co2  53  GLU53      -0.2457
     44  OE2       -1.6880   -1.5420  -16.3020 O.co2  53  GLU53      -0.2457
     45  N          3.8200   -5.2600  -14.7110 N.am   54  VAL54      -0.1980
     46  CA         4.4260   -6.0160  -13.6230 C.3    54  VAL54       0.1595
     47  C          5.8340   -6.5120  -14.0020 C.2    54  VAL54       0.2287
     48  O          6.6560   -6.8230  -13.1350 O.2    54  VAL54      -0.2864
     49  CB         3.5290   -7.2060  -13.2430 C.3    54  VAL54       0.0276
     50  CG1        4.0750   -7.9320  -12.0350 C.3    54  VAL54       0.0022
     51  CG2        2.0930   -6.7250  -12.9500 C.3    54  VAL54       0.0022
     52  N          6.0310  -12.7800  -16.1130 N.3    62  ILE62      -0.1245
     53  CA         6.0990  -12.3660  -14.7110 C.3    62  ILE62       0.1561
     54  C          6.5950  -13.4960  -13.8380 C.2    62  ILE62       0.2260
     55  O          5.9950  -14.5700  -13.8060 O.2    62  ILE62      -0.2867
     56  CB         4.7050  -11.9200  -14.1930 C.3    62  ILE62       0.0252
     57  CG1        4.2040  -10.7260  -15.0000 C.3    62  ILE62       0.0019
     58  CG2        4.7700  -11.5590  -12.7130 C.3    62  ILE62       0.0019
     59  CD1        2.7790  -10.3610  -14.6710 C.3    62  ILE62       0.0001
     60  N          5.9060  -10.4870   -9.3150 N.3    67  PHE67      -0.1241
     61  CA         4.5110  -10.6180   -8.8490 C.3    67  PHE67       0.1605
     62  C          4.3920  -10.1660   -7.4000 C.2    67  PHE67       0.2264
     63  O          3.4660   -9.4510   -7.0300 O.2    67  PHE67      -0.2867
     64  CB         4.1080  -12.0950   -8.9360 C.3    67  PHE67       0.0534
     65  CG         2.7380  -12.4120   -8.3480 C.ar   67  PHE67      -0.0203
     66  CD1        1.5830  -12.1160   -9.0500 C.ar   67  PHE67      -0.0042
     67  CD2        2.6280  -13.0630   -7.1180 C.ar   67  PHE67      -0.0042
     68  CE1        0.3220  -12.4280   -8.5220 C.ar   67  PHE67      -0.0003
     69  CE2        1.3800  -13.3970   -6.5910 C.ar   67  PHE67      -0.0003
     70  CZ         0.2330  -13.0780   -7.2850 C.ar   67  PHE67      -0.0000
     71  N          4.8320   -6.3160   -6.8400 N.3    70  MET70      -0.1230
     72  CA         3.5830   -5.6460   -7.2320 C.3    70  MET70       0.1702
     73  C          2.5040   -5.8380   -6.1740 C.2    70  MET70       0.2592
     74  O          1.7760   -4.8910   -5.8270 O.2    70  MET70      -0.2718
     75  CB         3.0990   -6.2020   -8.5780 C.3    70  MET70       0.0401
     76  CG         1.7640   -5.6620   -9.0580 C.3    70  MET70       0.0596
     77  SD         0.3620   -6.5270   -8.3200 S.3    70  MET70      -0.1393
     78  CE         0.4900   -8.1770   -9.0470 C.3    70  MET70       0.0692
     79  N          2.3800   -7.0590   -5.6630 N.am   71  MET71      -0.1979
     80  CA         1.3550   -7.3270   -4.6520 C.3    71  MET71       0.1605
     81  C          1.6460   -6.5360   -3.3760 C.2    71  MET71       0.2287
     82  O          0.7270   -6.0730   -2.7190 O.2    71  MET71      -0.2864
     83  CB         1.2160   -8.8280   -4.3570 C.3    71  MET71       0.0413
     84  CG         0.5140   -9.6230   -5.4660 C.3    71  MET71       0.0598
     85  SD        -1.1220   -8.9580   -5.8690 S.3    71  MET71      -0.1393
     86  CE        -1.9420   -9.0000   -4.2730 C.3    71  MET71       0.0692
     87  N          0.3710   -3.1280   -3.9550 N.3    74  LYS74      -0.1245
     88  CA        -1.0910   -3.1000   -3.9690 C.3    74  LYS74       0.1561
     89  C         -1.6620   -3.2080   -2.5630 C.2    74  LYS74       0.2260
     90  O         -2.6860   -2.5960   -2.2530 O.2    74  LYS74      -0.2867
     91  CB        -1.6510   -4.2390   -4.8250 C.3    74  LYS74       0.0271
     92  CG        -1.2320   -4.1880   -6.2800 C.3    74  LYS74       0.0035
     93  CD        -1.8140   -2.9770   -6.9690 C.3    74  LYS74       0.0206
     94  CE        -1.7020   -3.1020   -8.4760 C.3    74  LYS74       0.1093
     95  NZ        -2.0220   -1.8110   -9.1440 N.3    74  LYS74      -0.1314
@<TRIPOS>BOND
     1    28    29    1
     2    22    23    2
     3    22    21    1
     4    20    21    1
     5    24    21    1
     6    24    25    1
     7    35    34    1
     8    29    32    1
     9    29    30    1
    10    32    33    1
    11    33    34    1
    12    30    31    2
    13    15    14    2
    14    14    13    1
    15    26    25    1
    16    25    27    1
    17    36    37    1
    18    44    42   ar
    19    41    42    1
    20    41    40    1
    21    52    53    1
    22    13    12    1
    23    13    16    1
    24    37    40    1
    25    37    38    1
    26    42    43   ar
    27    18    16    1
    28    57    59    1
    29    57    56    1
    30    16    17    1
    31    45    38   am
    32    45    46    1
    33    53    56    1
    34    53    54    1
    35    38    39    2
    36     4     3    2
    37    56    58    1
    38    47    46    1
    39    47    48    2
    40    54    55    2
    41    46    49    1
    42    17    19    1
    43     3     2    1
    44    49    51    1
    45    49    50    1
    46     2     5    1
    47     2     1    1
    48     5     6    1
    49     7     6   ar
    50     7     9   ar
    51     6     8   ar
    52     9    11   ar
    53     8    10   ar
    54    11    10   ar
    55    60    61    1
    56    95    94    1
    57    76    75    1
    58    76    77    1
    59    66    68   ar
    60    66    65   ar
    61    78    77    1
    62    64    61    1
    63    64    65    1
    64    61    62    1
    65    75    72    1
    66    68    70   ar
    67    94    93    1
    68    65    67   ar
    69    62    63    2
    70    70    69   ar
    71    72    71    1
    72    72    73    1
    73    67    69   ar
    74    93    92    1
    75    92    91    1
    76    73    74    2
    77    73    79   am
    78    85    84    1
    79    85    86    1
    80    79    80    1
    81    84    83    1
    82    91    88    1
    83    80    83    1
    84    80    81    1
    85    88    87    1
    86    88    89    1
    87    81    82    2
    88    89    90    2
