@<TRIPOS>MOLECULE
tmp/3sjtA00.pdb
 135 124 0 0 0
SMALL
GASTEIGER

@<TRIPOS>ATOM
      1  N         26.6680   -7.4860    8.2630 N.3    96  HIS96      -0.1241
      2  CA        26.5900   -7.3780    6.8080 C.3    96  HIS96       0.1621
      3  C         25.3480   -6.6750    6.2340 C.2    96  HIS96       0.2264
      4  O         25.3080   -6.3840    5.0350 O.2    96  HIS96      -0.2867
      5  CB        26.7800   -8.7430    6.1440 C.3    96  HIS96       0.0745
      6  CG        27.6370   -8.6910    4.9190 C.ar   96  HIS96       0.0817
      7  ND1       28.1720   -9.8170    4.3300 N.ar   96  HIS96      -0.2268
      8  CD2       28.0750   -7.6410    4.1860 C.ar   96  HIS96       0.1154
      9  CE1       28.8870   -9.4630    3.2770 C.ar   96  HIS96       0.1986
     10  NE2       28.8490   -8.1470    3.1710 N.ar   96  HIS96      -0.2212
     11  N         28.0510  -17.3080    2.8420 N.3   121  HIS121     -0.1241
     12  CA        26.6150  -17.1790    2.6220 C.3   121  HIS121      0.1621
     13  C         26.3150  -16.2340    1.4680 C.2   121  HIS121      0.2264
     14  O         27.1200  -15.3610    1.1520 O.2   121  HIS121     -0.2867
     15  CB        25.9510  -16.6450    3.8790 C.3   121  HIS121      0.0745
     16  CG        26.3870  -17.3450    5.1190 C.ar  121  HIS121      0.0817
     17  ND1       27.3780  -16.8570    5.9390 N.ar  121  HIS121     -0.2268
     18  CD2       25.9930  -18.5220    5.6590 C.ar  121  HIS121      0.1154
     19  CE1       27.5610  -17.6920    6.9470 C.ar  121  HIS121      0.1986
     20  NE2       26.7320  -18.7100    6.7990 N.ar  121  HIS121     -0.2212
     21  N         23.5300  -14.2850    1.3990 N.3   123  ASP123     -0.1239
     22  CA        22.8870  -13.1040    1.9700 C.3   123  ASP123      0.1674
     23  C         21.8080  -12.5520    1.0470 C.2   123  ASP123      0.2266
     24  O         21.6840  -11.3410    0.8710 O.2   123  ASP123     -0.2867
     25  CB        23.9220  -12.0210    2.2550 C.3   123  ASP123      0.1410
     26  CG        24.8980  -12.4210    3.3490 C.2   123  ASP123      0.3668
     27  OD1       24.7430  -13.5210    3.9350 O.co2 123  ASP123     -0.2456
     28  OD2       25.8180  -11.6220    3.6150 O.co2 123  ASP123     -0.2456
     29  N         18.4320  -13.8360    1.0890 N.3   125  ASN125     -0.1240
     30  CA        17.0600  -14.0840    1.5540 C.3   125  ASN125      0.1653
     31  C         16.2180  -12.8140    1.4130 C.2   125  ASN125      0.2266
     32  O         16.7160  -11.7060    1.6190 O.2   125  ASN125     -0.2867
     33  CB        17.0370  -14.5670    3.0070 C.3   125  ASN125      0.1155
     34  CG        17.1970  -16.0700    3.1220 C.2   125  ASN125      0.2627
     35  OD1       16.4430  -16.8300    2.5230 O.2   125  ASN125     -0.2716
     36  ND2       18.1730  -16.5040    3.9000 N.am  125  ASN125     -0.0877
     37  N         13.4890  -15.4580    4.3080 N.3   130  THR130     -0.1203
     38  CA        14.2750  -15.6040    5.5280 C.3   130  THR130      0.1994
     39  C         13.5190  -16.4600    6.5390 C.2   130  THR130      0.2619
     40  O         12.3100  -16.3180    6.6880 O.2   130  THR130     -0.2717
     41  CB        14.6100  -14.2310    6.1640 C.3   130  THR130      0.1784
     42  OG1       15.4230  -14.4180    7.3310 O.3   130  THR130     -0.2211
     43  CG2       13.3440  -13.4970    6.5610 C.3   130  THR130      0.0376
     44  N         14.2220  -17.3490    7.2310 N.am  131  THR131     -0.1938
     45  CA        13.6140  -18.0460    8.3640 C.3   131  THR131      0.2028
     46  C         14.1370  -17.4720    9.6830 C.2   131  THR131      0.2642
     47  O         13.4820  -17.5810   10.7230 O.2   131  THR131     -0.2714
     48  CB        13.8720  -19.5690    8.3340 C.3   131  THR131      0.1808
     49  OG1       15.2730  -19.8070    8.1680 O.3   131  THR131     -0.2208
     50  CG2       13.1170  -20.2340    7.1990 C.3   131  THR131      0.0379
     51  N         15.3140  -16.8490    9.6330 N.am  132  SER132     -0.1949
     52  CA        15.9420  -16.3040   10.8310 C.3   132  SER132      0.1924
     53  C         15.3930  -14.9210   11.1800 C.2   132  SER132      0.2314
     54  O         15.3130  -14.5590   12.3560 O.2   132  SER132     -0.2863
     55  CB        17.4790  -16.2470   10.6770 C.3   132  SER132      0.2116
     56  OG        17.8780  -15.2270    9.7650 O.3   132  SER132     -0.2180
     57  N         16.9730  -12.3230   10.5000 N.3   134  ASN134     -0.1240
     58  CA        18.1640  -11.4840   10.6530 C.3   134  ASN134      0.1653
     59  C         18.5130  -10.7920    9.3510 C.2   134  ASN134      0.2266
     60  O         18.7960  -11.4570    8.3580 O.2   134  ASN134     -0.2867
     61  CB        19.3490  -12.3240   11.1350 C.3   134  ASN134      0.1155
     62  CG        19.0710  -12.9990   12.4670 C.2   134  ASN134      0.2627
     63  OD1       18.2290  -12.5390   13.2340 O.2   134  ASN134     -0.2716
     64  ND2       19.7690  -14.0950   12.7430 N.am  134  ASN134     -0.0877
     65  N         21.0750   -9.2410    8.2590 N.3   136  HIS136     -0.1226
     66  CA        22.4130   -9.4100    7.6920 C.3   136  HIS136      0.1752
     67  C         22.4560  -10.5810    6.7050 C.2   136  HIS136      0.2596
     68  O         23.4430  -10.7670    6.0030 O.2   136  HIS136     -0.2718
     69  CB        23.4970   -9.5380    8.7840 C.3   136  HIS136      0.0759
     70  CG        23.5400  -10.8730    9.4660 C.ar  136  HIS136      0.0818
     71  ND1       24.6860  -11.3640   10.0640 N.ar  136  HIS136     -0.2268
     72  CD2       22.5890  -11.8160    9.6610 C.ar  136  HIS136      0.1154
     73  CE1       24.4380  -12.5490   10.5880 C.ar  136  HIS136      0.1986
     74  NE2       23.1710  -12.8500   10.3570 N.ar  136  HIS136     -0.2212
     75  N         21.3760  -11.3580    6.6420 N.am  137  GLY137     -0.1957
     76  CA        21.2770  -12.4660    5.7040 C.3   137  GLY137      0.1869
     77  C         20.3620  -12.1350    4.5340 C.2   137  GLY137      0.2309
     78  O         19.9860  -13.0120    3.7580 O.2   137  GLY137     -0.2863
     79  N         27.1980  -22.3220    2.7370 N.3   176  ASP176     -0.1239
     80  CA        25.9840  -22.5360    3.5330 C.3   176  ASP176      0.1674
     81  C         24.8400  -21.6800    2.9900 C.2   176  ASP176      0.2266
     82  O         24.5380  -20.6120    3.5210 O.2   176  ASP176     -0.2867
     83  CB        26.2400  -22.2490    5.0170 C.3   176  ASP176      0.1410
     84  CG        25.1340  -22.7820    5.9290 C.2   176  ASP176      0.3668
     85  OD1       24.0820  -23.2280    5.4250 O.co2 176  ASP176     -0.2456
     86  OD2       25.3250  -22.7490    7.1630 O.co2 176  ASP176     -0.2456
     87  N         20.8870  -21.1420    1.9270 N.3   178  ASP178     -0.1239
     88  CA        19.5260  -21.5820    2.2200 C.3   178  ASP178      0.1674
     89  C         18.8210  -22.0020    0.9270 C.2   178  ASP178      0.2266
     90  O         19.1870  -21.5490   -0.1620 O.2   178  ASP178     -0.2867
     91  CB        18.7430  -20.4700    2.9180 C.3   178  ASP178      0.1410
     92  CG        19.3150  -20.1100    4.2830 C.2   178  ASP178      0.3668
     93  OD1       20.0030  -20.9580    4.8970 O.co2 178  ASP178     -0.2456
     94  OD2       19.0530  -18.9750    4.7450 O.co2 178  ASP178     -0.2456
     95  N         17.4240  -19.2100   -1.1150 N.3   181  GLU181     -0.1245
     96  CA        18.5690  -18.5100   -1.6950 C.3   181  GLU181      0.1567
     97  C         19.1030  -19.2590   -2.9160 C.2   181  GLU181      0.2260
     98  O         19.4070  -18.6530   -3.9380 O.2   181  GLU181     -0.2867
     99  CB        19.6760  -18.3340   -0.6560 C.3   181  GLU181      0.0388
    100  CG        19.3280  -17.3780    0.4850 C.3   181  GLU181      0.1160
    101  CD        20.4940  -17.1540    1.4250 C.2   181  GLU181      0.3649
    102  OE1       20.7800  -18.0590    2.2300 O.co2 181  GLU181     -0.2457
    103  OE2       21.1270  -16.0860    1.3700 O.co2 181  GLU181     -0.2457
    104  N         32.8750  -10.4660    3.7620 N.3   227  ASP227     -0.1239
    105  CA        32.4220  -10.9980    5.0330 C.3   227  ASP227      0.1674
    106  C         33.5370  -11.9120    5.5160 C.2   227  ASP227      0.2266
    107  O         33.9440  -12.8460    4.8110 O.2   227  ASP227     -0.2867
    108  CB        31.1190  -11.7700    4.8400 C.3   227  ASP227      0.1410
    109  CG        30.5730  -12.3660    6.1320 C.2   227  ASP227      0.3668
    110  OD1       31.3190  -12.5270    7.1220 O.co2 227  ASP227     -0.2456
    111  OD2       29.3690  -12.6870    6.1560 O.co2 227  ASP227     -0.2456
    112  N         33.6570  -14.2170    7.4330 N.3   229  ASP229     -0.1239
    113  CA        33.3060  -15.6320    7.5260 C.3   229  ASP229      0.1674
    114  C         33.4180  -16.3530    6.1810 C.2   229  ASP229      0.2266
    115  O         33.1870  -17.5560    6.0890 O.2   229  ASP229     -0.2867
    116  CB        31.9430  -15.8620    8.1960 C.3   229  ASP229      0.1410
    117  CG        30.7600  -15.5740    7.2830 C.2   229  ASP229      0.3668
    118  OD1       29.6710  -15.3000    7.8440 O.co2 229  ASP229     -0.2456
    119  OD2       30.8830  -15.6520    6.0330 O.co2 229  ASP229     -0.2456
    120  N         28.6830  -16.2550   12.2420 N.3   241  THR241     -0.1218
    121  CA        28.2250  -17.4730   11.5880 C.3   241  THR241      0.1862
    122  C         29.3350  -18.2120   10.8680 C.2   241  THR241      0.2287
    123  O         29.3270  -18.2790    9.6360 O.2   241  THR241     -0.2866
    124  CB        27.1140  -17.1930   10.5780 C.3   241  THR241      0.1770
    125  OG1       26.1570  -16.3080   11.1600 O.3   241  THR241     -0.2211
    126  CG2       26.4220  -18.4910   10.1940 C.3   241  THR241      0.0375
    127  N         31.5630   -8.1760    9.7130 N.3   272  GLU272     -0.1245
    128  CA        31.2480   -9.2960   10.5990 C.3   272  GLU272      0.1567
    129  C         32.3840   -9.7350   11.5290 C.2   272  GLU272      0.2260
    130  O         32.3550  -10.8390   12.0550 O.2   272  GLU272     -0.2867
    131  CB        30.6860  -10.4900    9.8210 C.3   272  GLU272      0.0388
    132  CG        29.3440  -10.2210    9.1180 C.3   272  GLU272      0.1160
    133  CD        28.1490  -10.2220   10.0530 C.2   272  GLU272      0.3649
    134  OE1       28.3120  -10.5110   11.2580 O.co2 272  GLU272     -0.2457
    135  OE2       27.0310   -9.9430    9.5730 O.co2 272  GLU272     -0.2457
@<TRIPOS>BOND
     1    98    97    2
     2    97    96    1
     3    96    95    1
     4    96    99    1
     5    99   100    1
     6    90    89    2
     7   100   101    1
     8    24    23    2
     9    89    88    1
    10    23    22    1
    11    29    30    1
    12    14    13    2
    13   103   101   ar
    14    21    22    1
    15    31    30    1
    16    31    32    2
    17   101   102   ar
    18    13    12    1
    19    30    33    1
    20    87    88    1
    21    22    25    1
    22    88    91    1
    23    25    26    1
    24    35    34    2
    25    12    11    1
    26    12    15    1
    27    79    80    1
    28    91    92    1
    29    81    82    2
    30    81    80    1
    31    33    34    1
    32    34    36   am
    33    10     9   ar
    34    10     8   ar
    35     9     7   ar
    36    26    28   ar
    37    26    27   ar
    38    80    83    1
    39    78    77    2
    40   104   105    1
    41    15    16    1
    42     8     6   ar
    43    92    94   ar
    44    92    93   ar
    45    37    38    1
    46     7     6   ar
    47    77    76    1
    48   107   106    2
    49   108   105    1
    50   108   109    1
    51     6     5    1
    52    83    84    1
    53   105   106    1
    54     4     3    2
    55    16    18   ar
    56    16    17   ar
    57    85    84   ar
    58    38    41    1
    59    38    39    1
    60    18    20   ar
    61    76    75    1
    62    84    86   ar
    63    17    19   ar
    64    68    67    2
    65   119   117   ar
    66   115   114    2
    67   109   111   ar
    68   109   110   ar
    69     5     2    1
    70    41    43    1
    71    41    42    1
    72   114   113    1
    73     3     2    1
    74    39    40    2
    75    39    44   am
    76    75    67   am
    77    67    66    1
    78    20    19   ar
    79     2     1    1
    80    50    48    1
    81    44    45    1
    82   117   118   ar
    83   117   116    1
    84   112   113    1
    85   113   116    1
    86    66    65    1
    87    66    69    1
    88    49    48    1
    89    48    45    1
    90    60    59    2
    91    45    46    1
    92    69    70    1
    93   132   131    1
    94   132   133    1
    95    59    58    1
    96    70    72   ar
    97    70    71   ar
    98   135   133   ar
    99    51    46   am
   100    51    52    1
   101   123   122    2
   102    72    74   ar
   103    46    47    2
   104   127   128    1
   105    56    55    1
   106   131   128    1
   107   133   134   ar
   108    71    73   ar
   109   126   124    1
   110    74    73   ar
   111    57    58    1
   112   124   125    1
   113   124   121    1
   114   128   129    1
   115    58    61    1
   116    55    52    1
   117    52    53    1
   118   122   121    1
   119    61    62    1
   120    53    54    2
   121   129   130    2
   122   121   120    1
   123    62    64   am
   124    62    63    2
