@<TRIPOS>MOLECULE
tmp/3sjxA06.pdb
 211 201 0 0 0
SMALL
GASTEIGER

@<TRIPOS>ATOM
      1  N         21.7330   50.1860   36.1090 N.3   155  PHE155     -0.1227
      2  CA        20.5820   49.2760   36.0870 C.3   155  PHE155      0.1736
      3  C         20.2740   48.8210   34.6620 C.2   155  PHE155      0.2595
      4  O         20.2750   49.6460   33.7440 O.2   155  PHE155     -0.2718
      5  CB        19.3580   49.9940   36.6660 C.3   155  PHE155      0.0547
      6  CG        18.1010   49.2000   36.5940 C.ar  155  PHE155     -0.0202
      7  CD1       18.0140   47.9470   37.1860 C.ar  155  PHE155     -0.0042
      8  CD2       16.9680   49.7380   35.9820 C.ar  155  PHE155     -0.0042
      9  CE1       16.8390   47.2090   37.1290 C.ar  155  PHE155     -0.0003
     10  CE2       15.7750   49.0000   35.9120 C.ar  155  PHE155     -0.0003
     11  CZ        15.7160   47.7260   36.4940 C.ar  155  PHE155     -0.0000
     12  N         20.0130   47.5180   34.4530 N.am  156  ARG156     -0.1980
     13  CA        19.7830   46.9750   33.0630 C.3   156  ARG156      0.1597
     14  C         18.6590   47.5320   32.1320 C.2   156  ARG156      0.2287
     15  O         18.7960   47.5430   30.9290 O.2   156  ARG156     -0.2864
     16  CB        19.6640   45.4370   33.1210 C.3   156  ARG156      0.0334
     17  CG        18.3940   44.9620   33.8750 C.3   156  ARG156      0.0492
     18  CD        18.4110   43.4320   34.0670 C.3   156  ARG156      0.2205
     19  NE        19.2010   43.0390   35.2350 N.pl3 156  ARG156     -0.0865
     20  CZ        18.8100   43.2300   36.5010 C.cat 156  ARG156      0.5346
     21  NH1       17.6400   43.7850   36.7530 N.pl3 156  ARG156      0.1354
     22  NH2       19.5740   42.8490   37.5180 N.pl3 156  ARG156      0.1354
     23  N         14.6780   42.0060   35.9210 N.3   203  ASN203     -0.1240
     24  CA        13.6600   42.6390   35.0890 C.3   203  ASN203      0.1653
     25  C         14.2700   43.8380   34.3970 C.2   203  ASN203      0.2266
     26  O         15.2710   44.4220   34.8690 O.2   203  ASN203     -0.2867
     27  CB        12.4570   43.0600   35.9150 C.3   203  ASN203      0.1155
     28  CG        12.6770   44.3970   36.6410 C.2   203  ASN203      0.2627
     29  OD1       12.6700   45.4610   36.0240 O.2   203  ASN203     -0.2716
     30  ND2       12.7770   44.3450   37.9740 N.am  203  ASN203     -0.0877
     31  N         12.1190   46.3690   33.1050 N.3   205  LEU205     -0.1245
     32  CA        11.0940   47.4350   33.0840 C.3   205  LEU205      0.1561
     33  C         11.7260   48.7860   33.3340 C.2   205  LEU205      0.2260
     34  O         12.6790   48.9120   34.0540 O.2   205  LEU205     -0.2867
     35  CB        10.1040   47.2160   34.2460 C.3   205  LEU205      0.0270
     36  CG         9.1690   46.0070   34.0730 C.3   205  LEU205      0.0019
     37  CD1        8.3160   45.9000   35.3500 C.3   205  LEU205      0.0001
     38  CD2        8.2890   46.1050   32.9230 C.3   205  LEU205      0.0001
     39  N         12.3260   42.3290   50.9750 N.3   323  HIS323     -0.1241
     40  CA        11.5850   41.3430   50.1760 C.3   323  HIS323      0.1621
     41  C         11.9620   39.8940   50.4670 C.2   323  HIS323      0.2264
     42  O         13.0200   39.5920   51.0680 O.2   323  HIS323     -0.2867
     43  CB        11.6590   41.6970   48.6710 C.3   323  HIS323      0.0745
     44  CG        12.9610   41.3490   47.9640 C.ar  323  HIS323      0.0817
     45  ND1       13.0640   40.2600   47.1230 N.ar  323  HIS323     -0.2268
     46  CD2       14.1000   42.0660   47.7860 C.ar  323  HIS323      0.1154
     47  CE1       14.2420   40.2730   46.5180 C.ar  323  HIS323      0.1986
     48  NE2       14.9010   41.3590   46.9070 N.ar  323  HIS323     -0.2212
     49  N         20.4900   37.4000   47.8190 N.3   333  ASP333     -0.1239
     50  CA        19.3940   38.3710   47.4680 C.3   333  ASP333      0.1674
     51  C         18.0910   37.5490   47.3490 C.2   333  ASP333      0.2266
     52  O         17.9210   36.7900   46.3650 O.2   333  ASP333     -0.2867
     53  CB        19.7810   38.9670   46.1210 C.3   333  ASP333      0.1410
     54  CG        18.8150   39.9570   45.6260 C.2   333  ASP333      0.3668
     55  OD1       17.8830   40.2750   46.4210 O.co2 333  ASP333     -0.2456
     56  OD2       18.9750   40.3650   44.4300 O.co2 333  ASP333     -0.2456
     57  N          9.4850   41.8450   44.5620 N.3   370  ALA370     -0.1231
     58  CA        10.4350   42.9540   44.4320 C.3   370  ALA370      0.1694
     59  C         11.2380   42.7820   43.1560 C.2   370  ALA370      0.2591
     60  O         11.5990   43.7800   42.4490 O.2   370  ALA370     -0.2718
     61  CB        11.3730   43.0680   45.6690 C.3   370  ALA370      0.0304
     62  N         11.5420   41.5230   42.8270 N.am  371  GLU371     -0.1979
     63  CA        12.3890   41.2910   41.6600 C.3   371  GLU371      0.1602
     64  C         11.6920   41.6890   40.3580 C.2   371  GLU371      0.2287
     65  O         12.3480   41.8500   39.3320 O.2   371  GLU371     -0.2864
     66  CB        12.8470   39.8270   41.5760 C.3   371  GLU371      0.0415
     67  CG        13.8130   39.3330   42.7130 C.3   371  GLU371      0.1163
     68  CD        15.1770   40.0690   42.7750 C.2   371  GLU371      0.3649
     69  OE1       15.4220   41.0520   42.0570 O.co2 371  GLU371     -0.2457
     70  OE2       16.0460   39.6430   43.5730 O.co2 371  GLU371     -0.2457
     71  N          9.9080   44.4640   39.9860 N.3   373  GLY373     -0.1210
     72  CA         9.6640   45.9180   39.9300 C.3   373  GLY373      0.1956
     73  C          9.2010   46.5420   41.2300 C.2   373  GLY373      0.2611
     74  O          8.4940   47.5530   41.2030 O.2   373  GLY373     -0.2717
     75  N          9.6210   45.9830   42.3600 N.am  374  LEU374     -0.1979
     76  CA         9.2440   46.5190   43.6790 C.3   374  LEU374      0.1596
     77  C          7.7030   46.5020   43.8350 C.2   374  LEU374      0.2287
     78  O          7.1160   47.3880   44.4270 O.2   374  LEU374     -0.2864
     79  CB         9.7490   47.9860   43.8710 C.3   374  LEU374      0.0297
     80  CG        11.2020   48.1640   43.4420 C.3   374  LEU374      0.0022
     81  CD1       11.6290   49.6460   43.6090 C.3   374  LEU374      0.0001
     82  CD2       12.1850   47.2430   44.2130 C.3   374  LEU374      0.0001
     83  N         16.8900   44.3530   52.3020 N.3   399  ASP399     -0.1225
     84  CA        17.3150   43.3700   51.3110 C.3   399  ASP399      0.1805
     85  C         18.6930   42.8330   51.8180 C.2   399  ASP399      0.2598
     86  O         18.9810   42.9430   53.0290 O.2   399  ASP399     -0.2718
     87  CB        17.3780   43.9970   49.9090 C.3   399  ASP399      0.1424
     88  CG        17.3170   42.9720   48.7820 C.2   399  ASP399      0.3668
     89  OD1       17.5190   41.7770   49.0280 O.co2 399  ASP399     -0.2456
     90  OD2       17.1070   43.4110   47.6410 O.co2 399  ASP399     -0.2456
     91  N         19.4780   42.2230   50.9340 N.am  400  SER400     -0.1952
     92  CA        20.7160   41.5260   51.3060 C.3   400  SER400      0.1924
     93  C         21.5450   42.2200   52.3860 C.2   400  SER400      0.2314
     94  O         21.8340   43.4240   52.3030 O.2   400  SER400     -0.2863
     95  CB        21.5450   41.2880   50.0790 C.3   400  SER400      0.2116
     96  OG        20.7510   40.7130   49.0790 O.3   400  SER400     -0.2180
     97  N         27.0930   42.1070   50.5890 N.3   403  GLU403     -0.1245
     98  CA        27.4430   42.0100   49.1730 C.3   403  GLU403      0.1567
     99  C         28.9810   41.9420   49.1040 C.2   403  GLU403      0.2260
    100  O         29.6110   42.0580   48.0260 O.2   403  GLU403     -0.2867
    101  CB        26.8360   43.1850   48.3910 C.3   403  GLU403      0.0388
    102  CG        27.4660   44.5420   48.7740 C.3   403  GLU403      0.1160
    103  CD        26.7440   45.7530   48.2010 C.2   403  GLU403      0.3649
    104  OE1       25.6730   45.5940   47.5560 O.co2 403  GLU403     -0.2457
    105  OE2       27.2530   46.8940   48.4130 O.co2 403  GLU403     -0.2457
    106  N         28.2640   49.5470   54.6500 N.3   409  ARG409     -0.1245
    107  CA        27.7280   50.4770   53.6900 C.3   409  ARG409      0.1563
    108  C         26.4020   50.9940   54.2310 C.2   409  ARG409      0.2260
    109  O         25.5350   50.2180   54.6110 O.2   409  ARG409     -0.2867
    110  CB        27.5210   49.7770   52.3220 C.3   409  ARG409      0.0307
    111  CG        26.6230   50.5750   51.4030 C.3   409  ARG409      0.0489
    112  CD        26.4600   49.9180   50.0460 C.3   409  ARG409      0.2205
    113  NE        25.3690   50.6000   49.3160 N.pl3 409  ARG409     -0.0865
    114  CZ        24.7500   50.1040   48.2490 C.cat 409  ARG409      0.5346
    115  NH1       25.1150   48.9140   47.7320 N.pl3 409  ARG409      0.1354
    116  NH2       23.7840   50.8100   47.6740 N.pl3 409  ARG409      0.1354
    117  N         17.1500   54.2150   43.6700 N.3   463  SER463     -0.1202
    118  CA        16.0790   53.2330   43.6100 C.3   463  SER463      0.2020
    119  C         16.7320   51.8700   43.4520 C.2   463  SER463      0.2619
    120  O         17.9350   51.6700   43.7440 O.2   463  SER463     -0.2717
    121  CB        15.0340   53.4530   42.5040 C.3   463  SER463      0.2103
    122  OG        13.8800   52.5170   42.5460 O.3   463  SER463     -0.2182
    123  N         15.9300   50.9370   42.9890 N.am  464  GLY464     -0.1942
    124  CA        16.4000   49.5900   42.7950 C.3   464  GLY464      0.2014
    125  C         16.1160   48.7600   44.0450 C.2   464  GLY464      0.2638
    126  O         16.4990   47.5890   44.0990 O.2   464  GLY464     -0.2714
    127  N         15.4560   49.3640   45.0620 N.am  465  ASN465     -0.1972
    128  CA        15.0400   48.5710   46.2230 C.3   465  ASN465      0.1688
    129  C         13.7810   49.0990   46.9010 C.2   465  ASN465      0.2292
    130  O         13.3070   50.1650   46.5090 O.2   465  ASN465     -0.2864
    131  CB        16.2390   48.3470   47.1900 C.3   465  ASN465      0.1181
    132  CG        16.3160   46.9100   47.6460 C.2   465  ASN465      0.2629
    133  OD1       15.3630   46.4030   48.3010 O.2   465  ASN465     -0.2716
    134  ND2       17.3930   46.2110   47.2340 N.am  465  ASN465     -0.0877
    135  N         19.1660   52.3950   54.6310 N.3   480  ARG480     -0.1245
    136  CA        19.5310   50.9960   54.4160 C.3   480  ARG480      0.1563
    137  C         20.9900   50.8260   54.8320 C.2   480  ARG480      0.2260
    138  O         21.7730   51.7860   54.8520 O.2   480  ARG480     -0.2867
    139  CB        19.3460   50.6440   52.9360 C.3   480  ARG480      0.0307
    140  CG        20.3690   51.3320   52.0230 C.3   480  ARG480      0.0489
    141  CD        20.0010   51.1630   50.5790 C.3   480  ARG480      0.2205
    142  NE        19.9990   49.7300   50.2010 N.pl3 480  ARG480     -0.0865
    143  CZ        20.0860   49.3060   48.9530 C.cat 480  ARG480      0.5346
    144  NH1       19.9430   48.0140   48.7040 N.pl3 480  ARG480      0.1354
    145  NH2       20.2480   50.1820   47.9450 N.pl3 480  ARG480      0.1354
    146  N         24.2370   47.5780   54.8840 N.3   482  ARG482     -0.1245
    147  CA        24.6660   46.1910   54.6170 C.3   482  ARG482      0.1563
    148  C         26.1790   46.1650   54.6440 C.2   482  ARG482      0.2260
    149  O         26.8230   47.2060   54.5670 O.2   482  ARG482     -0.2867
    150  CB        24.1890   45.6840   53.2070 C.3   482  ARG482      0.0307
    151  CG        24.6290   46.5770   52.0220 C.3   482  ARG482      0.0489
    152  CD        24.3870   45.8470   50.6500 C.3   482  ARG482      0.2205
    153  NE        22.9830   45.4350   50.5220 N.pl3 482  ARG482     -0.0865
    154  CZ        22.2770   45.4330   49.3910 C.cat 482  ARG482      0.5346
    155  NH1       21.0070   45.0690   49.4090 N.pl3 482  ARG482      0.1354
    156  NH2       22.8200   45.8050   48.2250 N.pl3 482  ARG482      0.1354
    157  N         27.9910   41.9190   42.8510 N.3   491  TYR491     -0.1241
    158  CA        28.8220   40.7820   43.3260 C.3   491  TYR491      0.1605
    159  C         28.7280   39.7360   42.2220 C.2   491  TYR491      0.2264
    160  O         27.7590   39.7010   41.4720 O.2   491  TYR491     -0.2867
    161  CB        28.4120   40.2120   44.7000 C.3   491  TYR491      0.0534
    162  CG        26.9310   39.8980   44.8290 C.ar  491  TYR491     -0.0201
    163  CD1       26.4600   38.5940   44.6660 C.ar  491  TYR491     -0.0009
    164  CD2       26.0210   40.9050   45.1530 C.ar  491  TYR491     -0.0009
    165  CE1       25.0880   38.3090   44.7660 C.ar  491  TYR491      0.0417
    166  CE2       24.6480   40.6190   45.2680 C.ar  491  TYR491      0.0417
    167  CZ        24.2170   39.3280   45.0870 C.ar  491  TYR491      0.1957
    168  OH        22.8810   39.0420   45.1730 O.3   491  TYR491     -0.2866
    169  N         25.4790   37.5160   41.5260 N.3   494  TYR494     -0.1227
    170  CA        24.1860   38.2550   41.5310 C.3   494  TYR494      0.1736
    171  C         23.1380   37.7030   40.5600 C.2   494  TYR494      0.2595
    172  O         23.3740   37.6290   39.3330 O.2   494  TYR494     -0.2718
    173  CB        24.5620   39.6810   41.1690 C.3   494  TYR494      0.0548
    174  CG        23.4230   40.6370   41.0050 C.ar  494  TYR494     -0.0200
    175  CD1       22.4930   40.8200   42.0190 C.ar  494  TYR494     -0.0009
    176  CD2       23.3120   41.3710   39.8230 C.ar  494  TYR494     -0.0009
    177  CE1       21.4410   41.7440   41.8530 C.ar  494  TYR494      0.0417
    178  CE2       22.2730   42.3160   39.6650 C.ar  494  TYR494      0.0417
    179  CZ        21.3700   42.4640   40.6700 C.ar  494  TYR494      0.1957
    180  OH        20.3230   43.3910   40.4530 O.3   494  TYR494     -0.2866
    181  N         21.9890   37.2980   41.1060 N.am  495  HIS495     -0.1975
    182  CA        20.7920   36.8730   40.3150 C.3   495  HIS495      0.1656
    183  C         21.0400   35.6170   39.4670 C.2   495  HIS495      0.2291
    184  O         20.2840   35.3220   38.5190 O.2   495  HIS495     -0.2864
    185  CB        20.2660   38.0080   39.4290 C.3   495  HIS495      0.0771
    186  CG        19.5010   39.0900   40.1640 C.ar  495  HIS495      0.0820
    187  ND1       18.9390   40.1550   39.4910 N.ar  495  HIS495     -0.2267
    188  CD2       19.2070   39.2780   41.4760 C.ar  495  HIS495      0.1154
    189  CE1       18.3090   40.9490   40.3560 C.ar  495  HIS495      0.1986
    190  NE2       18.4320   40.4220   41.5630 N.ar  495  HIS495     -0.2212
    191  N         18.9560   53.7670   37.5620 N.3   639  LYS639     -0.1231
    192  CA        17.9900   53.6560   38.6500 C.3   639  LYS639      0.1693
    193  C         18.6180   53.3710   40.0240 C.2   639  LYS639      0.2592
    194  O         18.0250   53.7180   41.0670 O.2   639  LYS639     -0.2718
    195  CB        16.9850   52.5490   38.3250 C.3   639  LYS639      0.0285
    196  CG        15.8070   52.5320   39.2450 C.3   639  LYS639      0.0035
    197  CD        14.9030   51.3850   38.8190 C.3   639  LYS639      0.0206
    198  CE        13.5390   51.4520   39.4890 C.3   639  LYS639      0.1093
    199  NZ        12.5740   50.9920   38.4280 N.3   639  LYS639     -0.1314
    200  N         19.8050   52.7480   40.0260 N.am  640  TYR640     -0.1976
    201  CA        20.4300   52.3550   41.2820 C.3   640  TYR640      0.1639
    202  C         20.9770   53.5740   42.0190 C.2   640  TYR640      0.2290
    203  O         21.1160   53.5390   43.2320 O.2   640  TYR640     -0.2864
    204  CB        21.5980   51.4070   41.0420 C.3   640  TYR640      0.0560
    205  CG        21.1970   50.0300   40.5520 C.ar  640  TYR640     -0.0198
    206  CD1       20.0850   49.3790   41.0690 C.ar  640  TYR640     -0.0009
    207  CD2       21.9680   49.3700   39.6000 C.ar  640  TYR640     -0.0009
    208  CE1       19.7150   48.0920   40.5960 C.ar  640  TYR640      0.0417
    209  CE2       21.6170   48.0880   39.1220 C.ar  640  TYR640      0.0417
    210  CZ        20.5090   47.4620   39.6340 C.ar  640  TYR640      0.1957
    211  OH        20.1700   46.2150   39.1410 O.3   640  TYR640     -0.2866
@<TRIPOS>BOND
     1    15    14    2
     2    14    13    1
     3    38    36    1
     4    13    16    1
     5    13    12    1
     6    32    31    1
     7    32    33    1
     8    32    35    1
     9    16    17    1
    10    33    34    2
    11     4     3    2
    12    17    18    1
    13    18    19    1
    14    36    35    1
    15    36    37    1
    16    25    26    2
    17    25    24    1
    18    12     3   am
    19     3     2    1
    20    24    27    1
    21    24    23    1
    22    19    20    2
    23    10     8   ar
    24    10    11   ar
    25    27    28    1
    26     8     6   ar
    27    29    28    2
    28     2     1    1
    29     2     5    1
    30    11     9   ar
    31    20    21    1
    32    20    22    1
    33     6     5    1
    34     6     7   ar
    35    28    30   am
    36     9     7   ar
    37   191   192    1
    38   195   192    1
    39   195   196    1
    40   199   198    1
    41   184   183    2
    42   192   193    1
    43   197   196    1
    44   197   198    1
    45   209   207   ar
    46   209   210   ar
    47   211   210    1
    48    65    64    2
    49   172   171    2
    50   185   186    1
    51   185   182    1
    52   183   182    1
    53   187   186   ar
    54   187   189   ar
    55   207   205   ar
    56   210   208   ar
    57   178   176   ar
    58   178   179   ar
    59   176   174   ar
    60    72    71    1
    61    72    73    1
    62   193   200   am
    63   193   194    2
    64   200   201    1
    65   186   188   ar
    66   182   181    1
    67   189   190   ar
    68    64    63    1
    69   180   179    1
    70   205   204    1
    71   205   206   ar
    72   171   181   am
    73   171   170    1
    74   208   206   ar
    75   179   177   ar
    76   174   173    1
    77   174   175   ar
    78   204   201    1
    79   173   170    1
    80    74    73    2
    81    73    75   am
    82   201   202    1
    83   160   159    2
    84   188   190   ar
    85   169   170    1
    86    66    63    1
    87    66    67    1
    88    63    62    1
    89   177   175   ar
    90   202   203    2
    91    69    68   ar
    92   159   158    1
    93    75    76    1
    94    60    59    2
    95   121   122    1
    96   121   118    1
    97    67    68    1
    98    68    70   ar
    99   124   123    1
   100   124   125    1
   101    62    59   am
   102   157   158    1
   103   123   119   am
   104    59    58    1
   105   158   161    1
   106    80    81    1
   107    80    79    1
   108    80    82    1
   109   119   118    1
   110   119   120    2
   111   118   117    1
   112    76    77    1
   113    76    79    1
   114    77    78    2
   115   125   126    2
   116   125   127   am
   117    56    54   ar
   118    58    57    1
   119    58    61    1
   120   163   165   ar
   121   163   162   ar
   122   161   162    1
   123   165   167   ar
   124   162   164   ar
   125   127   128    1
   126   167   168    1
   127   167   166   ar
   128   164   166   ar
   129    54    53    1
   130    54    55   ar
   131    53    50    1
   132   128   129    1
   133   128   131    1
   134    52    51    2
   135   130   129    2
   136    47    48   ar
   137    47    45   ar
   138    48    46   ar
   139    45    44   ar
   140   131   132    1
   141   134   132   am
   142    51    50    1
   143    50    49    1
   144   104   103   ar
   145    90    88   ar
   146   132   133    2
   147   116   114    1
   148   115   114    1
   149    46    44   ar
   150   145   143    1
   151    44    43    1
   152   100    99    2
   153   103   105   ar
   154   103   102    1
   155   156   154    1
   156   114   113    2
   157   101   102    1
   158   101    98    1
   159    43    40    1
   160   144   143    1
   161    88    89   ar
   162    88    87    1
   163   143   142    2
   164    96    95    1
   165    99    98    1
   166    98    97    1
   167   113   112    1
   168   154   155    1
   169   154   153    2
   170    87    84    1
   171   112   111    1
   172    95    92    1
   173    40    41    1
   174    40    39    1
   175   142   141    1
   176    41    42    2
   177   153   152    1
   178   141   140    1
   179   152   151    1
   180    91    92    1
   181    91    85   am
   182    92    93    1
   183    84    85    1
   184    84    83    1
   185   111   110    1
   186    85    86    2
   187   151   150    1
   188   140   139    1
   189    94    93    2
   190   110   107    1
   191   139   136    1
   192   150   147    1
   193   107   108    1
   194   107   106    1
   195   108   109    2
   196   136   135    1
   197   136   137    1
   198   149   148    2
   199   147   148    1
   200   147   146    1
   201   137   138    2
