@<TRIPOS>MOLECULE
tmp/3sk3A00.pdb
 106 100 0 0 0
SMALL
GASTEIGER

@<TRIPOS>ATOM
      1  N          3.4450  -35.2200  -20.0390 N.3   163  ALA163     -0.1245
      2  CA         2.3890  -35.5790  -20.9830 C.3   163  ALA163      0.1562
      3  C          1.0450  -35.4590  -20.2530 C.2   163  ALA163      0.2260
      4  O          0.4000  -36.4540  -19.9770 O.2   163  ALA163     -0.2867
      5  CB         2.6130  -36.9910  -21.5230 C.3   163  ALA163      0.0290
      6  N          9.2180  -30.7110  -15.3650 N.3   176  ARG176     -0.1245
      7  CA        10.5060  -31.2840  -14.9180 C.3   176  ARG176      0.1563
      8  C         11.3990  -30.1450  -14.5040 C.2   176  ARG176      0.2260
      9  O         11.5670  -29.2160  -15.2710 O.2   176  ARG176     -0.2867
     10  CB        11.2220  -32.0030  -16.0640 C.3   176  ARG176      0.0307
     11  CG        10.5140  -33.2060  -16.5140 C.3   176  ARG176      0.0489
     12  CD        11.3160  -33.9740  -17.6110 C.3   176  ARG176      0.2205
     13  NE        10.6290  -35.2520  -17.8040 N.pl3 176  ARG176     -0.0865
     14  CZ         9.4860  -35.3960  -18.4560 C.cat 176  ARG176      0.5346
     15  NH1        8.9090  -34.3380  -19.0390 N.pl3 176  ARG176      0.1354
     16  NH2        8.9190  -36.5940  -18.5160 N.pl3 176  ARG176      0.1354
     17  N         17.4090  -32.1610  -21.8070 N.3   225  ASP225     -0.1239
     18  CA        16.3960  -33.0260  -21.2070 C.3   225  ASP225      0.1674
     19  C         17.0440  -33.7150  -19.9970 C.2   225  ASP225      0.2266
     20  O         18.2810  -33.8670  -19.9390 O.2   225  ASP225     -0.2867
     21  CB        15.9120  -34.0870  -22.2260 C.3   225  ASP225      0.1410
     22  CG        14.5690  -34.7000  -21.8570 C.2   225  ASP225      0.3668
     23  OD1       14.0420  -35.5430  -22.6380 O.co2 225  ASP225     -0.2456
     24  OD2       14.0110  -34.3510  -20.7840 O.co2 225  ASP225     -0.2456
     25  N         16.1810  -36.7910  -16.5860 N.3   227  SER227     -0.1202
     26  CA        15.3190  -37.8120  -16.0930 C.3   227  SER227      0.2020
     27  C         14.8050  -37.4750  -14.7060 C.2   227  SER227      0.2618
     28  O         15.3540  -36.6270  -14.0010 O.2   227  SER227     -0.2717
     29  CB        16.0510  -39.1550  -15.9920 C.3   227  SER227      0.2103
     30  OG        16.9470  -39.1250  -14.8820 O.3   227  SER227     -0.2182
     31  N         13.7880  -38.2060  -14.3010 N.am  228  MET228     -0.1979
     32  CA        13.4360  -38.2420  -12.8690 C.3   228  MET228      0.1605
     33  C         14.5520  -38.8870  -12.0070 C.2   228  MET228      0.2287
     34  O         15.4530  -39.5550  -12.5340 O.2   228  MET228     -0.2864
     35  CB        12.1210  -38.9860  -12.6520 C.3   228  MET228      0.0413
     36  CG        12.1530  -40.4770  -12.9960 C.3   228  MET228      0.0598
     37  SD        10.6280  -41.3230  -12.4640 S.3   228  MET228     -0.1393
     38  CE        10.5850  -40.9200  -10.7190 C.3   228  MET228      0.0692
     39  N          5.4610  -44.2660  -13.4250 N.3   248  ASP248     -0.1225
     40  CA         6.3680  -44.9050  -14.3670 C.3   248  ASP248      0.1805
     41  C          6.2690  -44.2250  -15.7390 C.2   248  ASP248      0.2598
     42  O          7.2740  -43.7860  -16.2800 O.2   248  ASP248     -0.2718
     43  CB         6.0070  -46.3820  -14.4280 C.3   248  ASP248      0.1424
     44  CG         6.9610  -47.2070  -15.2970 C.2   248  ASP248      0.3668
     45  OD1        6.4680  -47.8160  -16.2690 O.co2 248  ASP248     -0.2456
     46  OD2        8.1700  -47.2640  -14.9840 O.co2 248  ASP248     -0.2456
     47  N          5.0530  -44.0480  -16.2450 N.am  249  THR249     -0.1939
     48  CA         4.8400  -43.4450  -17.5610 C.3   249  THR249      0.2028
     49  C          5.1350  -41.9510  -17.6320 C.2   249  THR249      0.2642
     50  O          5.7100  -41.4960  -18.6250 O.2   249  THR249     -0.2714
     51  CB         3.4290  -43.6810  -18.0710 C.3   249  THR249      0.1808
     52  OG1        2.4760  -43.1600  -17.1240 O.3   249  THR249     -0.2208
     53  CG2        3.2130  -45.1860  -18.3580 C.3   249  THR249      0.0379
     54  N          4.7570  -41.1820  -16.5960 N.am  250  LEU250     -0.1963
     55  CA         5.0140  -39.7290  -16.6170 C.3   250  LEU250      0.1728
     56  C          6.4580  -39.3660  -16.3320 C.2   250  LEU250      0.2616
     57  O          6.9500  -38.3270  -16.8080 O.2   250  LEU250     -0.2715
     58  CB         4.1090  -38.9570  -15.6330 C.3   250  LEU250      0.0311
     59  CG         2.6150  -38.9620  -16.0090 C.3   250  LEU250      0.0022
     60  CD1        1.7730  -38.5420  -14.7750 C.3   250  LEU250      0.0001
     61  CD2        2.3390  -38.0550  -17.2270 C.3   250  LEU250      0.0001
     62  N          7.1260  -40.1930  -15.5350 N.am  251  GLY251     -0.1955
     63  CA         8.4550  -39.8480  -15.0450 C.3   251  GLY251      0.1869
     64  C          8.3850  -38.8380  -13.9130 C.2   251  GLY251      0.2309
     65  O          9.0960  -37.8330  -13.9160 O.2   251  GLY251     -0.2863
     66  N         17.0410  -50.1960  -16.7590 N.3   294  ARG294     -0.1245
     67  CA        16.4620  -48.8790  -16.8010 C.3   294  ARG294      0.1563
     68  C         17.5110  -47.8180  -17.1420 C.2   294  ARG294      0.2260
     69  O         17.2170  -46.8490  -17.8620 O.2   294  ARG294     -0.2867
     70  CB        15.7820  -48.5470  -15.4520 C.3   294  ARG294      0.0307
     71  CG        14.4220  -49.2200  -15.4220 C.3   294  ARG294      0.0489
     72  CD        13.6850  -49.1320  -14.1040 C.3   294  ARG294      0.2205
     73  NE        12.3310  -49.7210  -14.1990 N.pl3 294  ARG294     -0.0865
     74  CZ        11.2050  -49.0000  -14.3040 C.cat 294  ARG294      0.5346
     75  NH1       11.2460  -47.6620  -14.3580 N.pl3 294  ARG294      0.1354
     76  NH2       10.0340  -49.6170  -14.3830 N.pl3 294  ARG294      0.1354
     77  N         17.4530  -45.1930  -20.3800 N.3   298  TYR298     -0.1241
     78  CA        17.6220  -43.7470  -20.3380 C.3   298  TYR298      0.1605
     79  C         18.7000  -43.2760  -21.3200 C.2   298  TYR298      0.2264
     80  O         18.5140  -42.2960  -22.0580 O.2   298  TYR298     -0.2867
     81  CB        17.9660  -43.2670  -18.9170 C.3   298  TYR298      0.0534
     82  CG        16.7440  -43.0850  -18.0400 C.ar  298  TYR298     -0.0201
     83  CD1       15.7130  -42.2280  -18.4210 C.ar  298  TYR298     -0.0009
     84  CD2       16.6400  -43.7520  -16.8140 C.ar  298  TYR298     -0.0009
     85  CE1       14.5530  -42.0490  -17.5850 C.ar  298  TYR298      0.0417
     86  CE2       15.5060  -43.6040  -15.9900 C.ar  298  TYR298      0.0417
     87  CZ        14.4950  -42.7420  -16.3680 C.ar  298  TYR298      0.1957
     88  OH        13.4160  -42.6170  -15.5370 O.3   298  TYR298     -0.2866
     89  N         17.3240  -43.5060  -24.7410 N.3   301  SER301     -0.1202
     90  CA        16.2700  -42.4990  -24.9510 C.3   301  SER301      0.2020
     91  C         16.8340  -41.1460  -25.3170 C.2   301  SER301      0.2618
     92  O         16.2440  -40.4240  -26.1230 O.2   301  SER301     -0.2717
     93  CB        15.3360  -42.3810  -23.7140 C.3   301  SER301      0.2103
     94  OG        15.9180  -41.5180  -22.7430 O.3   301  SER301     -0.2182
     95  N         17.9840  -40.7710  -24.7540 N.am  302  TYR302     -0.1975
     96  CA        18.4900  -39.4410  -25.0270 C.3   302  TYR302      0.1639
     97  C         19.2600  -39.2900  -26.3520 C.2   302  TYR302      0.2290
     98  O         19.6310  -38.1730  -26.7220 O.2   302  TYR302     -0.2864
     99  CB        19.2670  -38.8670  -23.8250 C.3   302  TYR302      0.0560
    100  CG        18.3800  -38.7010  -22.6030 C.ar  302  TYR302     -0.0198
    101  CD1       17.1690  -37.9810  -22.6870 C.ar  302  TYR302     -0.0009
    102  CD2       18.7340  -39.2770  -21.3820 C.ar  302  TYR302     -0.0009
    103  CE1       16.3360  -37.8260  -21.5730 C.ar  302  TYR302      0.0417
    104  CE2       17.9050  -39.1330  -20.2600 C.ar  302  TYR302      0.0417
    105  CZ        16.7290  -38.3890  -20.3630 C.ar  302  TYR302      0.1957
    106  OH        15.9300  -38.2580  -19.2500 O.3   302  TYR302     -0.2866
@<TRIPOS>BOND
     1    98    97    2
     2    97    96    1
     3    92    91    2
     4    91    90    1
     5    91    95   am
     6    96    95    1
     7    96    99    1
     8    90    89    1
     9    90    93    1
    10    99   100    1
    11    93    94    1
    12   101   100   ar
    13   101   103   ar
    14    23    22   ar
    15   100   102   ar
    16    21    22    1
    17    21    18    1
    18    80    79    2
    19    22    24   ar
    20    17    18    1
    21   103   105   ar
    22     5     2    1
    23   102   104   ar
    24    79    78    1
    25    18    19    1
    26     2     3    1
    27     2     1    1
    28    77    78    1
    29   105   104   ar
    30   105   106    1
    31    78    81    1
    32     3     4    2
    33    19    20    2
    34    15    14    1
    35    81    82    1
    36    50    49    2
    37    16    14    1
    38    14    13    2
    39    83    82   ar
    40    83    85   ar
    41    53    51    1
    42    51    48    1
    43    51    52    1
    44    82    84   ar
    45    69    68    2
    46    13    12    1
    47    49    48    1
    48    49    54   am
    49    12    11    1
    50    85    87   ar
    51    48    47    1
    52    61    59    1
    53    68    67    1
    54    84    86   ar
    55    57    56    2
    56    67    66    1
    57    67    70    1
    58    55    54    1
    59    55    56    1
    60    55    58    1
    61    25    26    1
    62    11    10    1
    63    87    86   ar
    64    87    88    1
    65    56    62   am
    66    42    41    2
    67    45    44   ar
    68    47    41   am
    69    26    29    1
    70    26    27    1
    71    10     7    1
    72    59    58    1
    73    59    60    1
    74    29    30    1
    75    41    40    1
    76    62    63    1
    77    70    71    1
    78    71    72    1
    79     6     7    1
    80    44    46   ar
    81    44    43    1
    82     9     8    2
    83    63    64    1
    84     7     8    1
    85    27    31   am
    86    27    28    2
    87    43    40    1
    88    76    74    1
    89    40    39    1
    90    75    74    1
    91    74    73    2
    92    31    32    1
    93    73    72    1
    94    65    64    2
    95    36    35    1
    96    36    37    1
    97    32    35    1
    98    32    33    1
    99    34    33    2
   100    37    38    1
