@<TRIPOS>MOLECULE
tmp/3skcB00.pdb
 177 169 0 0 0
SMALL
GASTEIGER

@<TRIPOS>ATOM
      1  N         41.7150  -43.3610  -16.6920 N.3    16  ILE16      -0.1245
      2  CA        42.3800  -43.0100  -15.4300 C.3    16  ILE16       0.1561
      3  C         42.6140  -44.1590  -14.4460 C.2    16  ILE16       0.2260
      4  O         43.7070  -44.2830  -13.8940 O.2    16  ILE16      -0.2867
      5  CB        41.6280  -41.8910  -14.6770 C.3    16  ILE16       0.0252
      6  CG1       40.1520  -41.9220  -15.0300 C.3    16  ILE16       0.0019
      7  CG2       42.2050  -40.5540  -15.0210 C.3    16  ILE16       0.0019
      8  CD1       39.5300  -40.5650  -15.0500 C.3    16  ILE16       0.0001
      9  N         38.7300  -47.2410  -14.6890 N.3    24  VAL24      -0.1245
     10  CA        37.8940  -46.0560  -14.6320 C.3    24  VAL24       0.1561
     11  C         38.2050  -45.0330  -15.7150 C.2    24  VAL24       0.2260
     12  O         39.3240  -44.5480  -15.8140 O.2    24  VAL24      -0.2867
     13  CB        38.0050  -45.3870  -13.2670 C.3    24  VAL24       0.0252
     14  CG1       37.3500  -44.0420  -13.2880 C.3    24  VAL24       0.0019
     15  CG2       37.3330  -46.2440  -12.2450 C.3    24  VAL24       0.0019
     16  N         31.9010  -40.3600  -14.6440 N.3    34  ALA34      -0.1245
     17  CA        32.9610  -41.3520  -14.5160 C.3    34  ALA34       0.1562
     18  C         32.3510  -42.6920  -14.8520 C.2    34  ALA34       0.2260
     19  O         31.2180  -42.9760  -14.4550 O.2    34  ALA34      -0.2867
     20  CB        33.4880  -41.3740  -13.1110 C.3    34  ALA34       0.0290
     21  N         33.2790  -46.8020  -14.5360 N.3    36  LYS36      -0.1245
     22  CA        34.1720  -47.8600  -14.1040 C.3    36  LYS36       0.1561
     23  C         33.7180  -49.1440  -14.7660 C.2    36  LYS36       0.2260
     24  O         32.6170  -49.6250  -14.5030 O.2    36  LYS36      -0.2867
     25  CB        34.1230  -48.0090  -12.5780 C.3    36  LYS36       0.0271
     26  CG        34.9520  -49.1610  -12.0160 C.3    36  LYS36       0.0035
     27  CD        35.5620  -48.8050  -10.6660 C.3    36  LYS36       0.0206
     28  CE        34.8180  -49.4490   -9.5110 C.3    36  LYS36       0.1093
     29  NZ        35.2370  -48.8740   -8.2010 N.3    36  LYS36      -0.1314
     30  N         24.4500  -49.6180   -4.0710 N.3    58  LEU58      -0.1245
     31  CA        24.7300  -48.2530   -4.4900 C.3    58  LEU58       0.1561
     32  C         23.4610  -47.4110   -4.5010 C.2    58  LEU58       0.2260
     33  O         23.4510  -46.2930   -3.9760 O.2    58  LEU58      -0.2867
     34  CB        25.3580  -48.2570   -5.8790 C.3    58  LEU58       0.0270
     35  CG        26.6770  -49.0170   -5.9680 C.3    58  LEU58       0.0019
     36  CD1       27.2230  -48.9370   -7.3670 C.3    58  LEU58       0.0001
     37  CD2       27.6660  -48.4230   -4.9990 C.3    58  LEU58       0.0001
     38  N         21.9210  -45.2480   -1.7650 N.3    61  THR61      -0.1218
     39  CA        22.6390  -44.0470   -1.3310 C.3    61  THR61       0.1862
     40  C         22.1880  -42.7640   -2.0400 C.2    61  THR61       0.2287
     41  O         22.1680  -42.6860   -3.2730 O.2    61  THR61      -0.2866
     42  CB        24.1490  -44.1950   -1.5460 C.3    61  THR61       0.1770
     43  OG1       24.4270  -44.2900   -2.9480 O.3    61  THR61      -0.2211
     44  CG2       24.6500  -45.4280   -0.8510 C.3    61  THR61       0.0375
     45  N         28.1400  -38.8590   -0.1670 N.3    66  ILE66      -0.1231
     46  CA        28.3670  -40.1300   -0.8490 C.3    66  ILE66       0.1692
     47  C         28.3650  -39.9300   -2.3580 C.2    66  ILE66       0.2591
     48  O         27.4160  -39.3560   -2.9040 O.2    66  ILE66      -0.2718
     49  CB        27.2690  -41.1580   -0.4970 C.3    66  ILE66       0.0266
     50  CG1       27.2900  -41.4180    1.0060 C.3    66  ILE66       0.0019
     51  CG2       27.4730  -42.4670   -1.2800 C.3    66  ILE66       0.0020
     52  CD1       28.6820  -41.6200    1.5660 C.3    66  ILE66       0.0001
     53  N         29.4190  -40.4140   -3.0220 N.am   67  LEU67      -0.1980
     54  CA        29.5840  -40.2770   -4.4730 C.3    67  LEU67       0.1596
     55  C         28.2980  -40.6240   -5.1850 C.2    67  LEU67       0.2287
     56  O         27.6650  -41.6300   -4.8660 O.2    67  LEU67      -0.2864
     57  CB        30.6780  -41.2090   -4.9710 C.3    67  LEU67       0.0297
     58  CG        31.0290  -41.1040   -6.4470 C.3    67  LEU67       0.0022
     59  CD1       31.6890  -39.7740   -6.7200 C.3    67  LEU67       0.0001
     60  CD2       31.9540  -42.2400   -6.8240 C.3    67  LEU67       0.0001
     61  N         25.8430  -42.1680   -7.4380 N.3    69  PHE69      -0.1241
     62  CA        25.5900  -43.2090   -8.4080 C.3    69  PHE69       0.1605
     63  C         24.5900  -42.6520   -9.4280 C.2    69  PHE69       0.2264
     64  O         23.5370  -42.1380   -9.0430 O.2    69  PHE69      -0.2867
     65  CB        25.0070  -44.4160   -7.6910 C.3    69  PHE69       0.0534
     66  CG        24.4420  -45.4450   -8.6070 C.ar   69  PHE69      -0.0203
     67  CD1       25.2730  -46.3120   -9.2890 C.ar   69  PHE69      -0.0042
     68  CD2       23.0820  -45.5690   -8.7670 C.ar   69  PHE69      -0.0042
     69  CE1       24.7540  -47.2920  -10.1150 C.ar   69  PHE69      -0.0003
     70  CE2       22.5640  -46.5470   -9.5900 C.ar   69  PHE69      -0.0003
     71  CZ        23.3990  -47.4080  -10.2630 C.ar   69  PHE69      -0.0000
     72  N         29.8330  -49.2680  -14.0590 N.3    80  ILE80      -0.1245
     73  CA        29.1300  -48.4150  -13.1180 C.3    80  ILE80       0.1561
     74  C         29.4500  -46.9590  -13.3790 C.2    80  ILE80       0.2260
     75  O         30.6090  -46.5820  -13.4490 O.2    80  ILE80      -0.2867
     76  CB        29.5070  -48.7610  -11.6870 C.3    80  ILE80       0.0252
     77  CG1       28.9580  -50.1400  -11.3410 C.3    80  ILE80       0.0019
     78  CG2       28.9820  -47.7030  -10.7470 C.3    80  ILE80       0.0019
     79  CD1       29.4190  -50.6270  -10.0130 C.3    80  ILE80       0.0001
     80  N         29.1700  -42.9240  -12.4480 N.3    82  THR82      -0.1203
     81  CA        28.9210  -41.9850  -11.3670 C.3    82  THR82       0.1994
     82  C         29.1610  -40.5580  -11.8510 C.2    82  THR82       0.2618
     83  O         29.7580  -40.3480  -12.9050 O.2    82  THR82      -0.2717
     84  CB        29.8400  -42.2550  -10.1780 C.3    82  THR82       0.1784
     85  OG1       31.1790  -41.9180  -10.5340 O.3    82  THR82      -0.2211
     86  CG2       29.8040  -43.7090   -9.8050 C.3    82  THR82       0.0376
     87  N         28.6830  -39.5850  -11.0840 N.am   83  GLN83      -0.1965
     88  CA        29.0450  -38.2000  -11.3110 C.3    83  GLN83       0.1733
     89  C         30.5410  -38.1470  -11.4950 C.2    83  GLN83       0.2616
     90  O         31.2670  -38.9730  -10.9550 O.2    83  GLN83      -0.2715
     91  CB        28.6680  -37.3350  -10.1080 C.3    83  GLN83       0.0408
     92  CG        29.4730  -37.6180   -8.8300 C.3    83  GLN83       0.0908
     93  CD        29.1880  -36.5990   -7.7300 C.2    83  GLN83       0.2608
     94  OE1       28.7800  -36.9440   -6.6160 O.2    83  GLN83      -0.2717
     95  NE2       29.3990  -35.3360   -8.0460 N.am   83  GLN83      -0.0878
     96  N         30.9970  -37.1680  -12.2610 N.am   84  TRP84      -0.1960
     97  CA        32.4210  -36.9630  -12.4670 C.3    84  TRP84       0.1771
     98  C         32.9100  -35.8850  -11.5290 C.2    84  TRP84       0.2619
     99  O         32.5770  -34.7230  -11.7050 O.2    84  TRP84      -0.2715
    100  CB        32.6900  -36.5160  -13.9010 C.3    84  TRP84       0.0590
    101  CG        34.0650  -35.9780  -14.0530 C.ar   84  TRP84       0.0006
    102  CD1       34.4400  -34.6630  -14.1100 C.ar   84  TRP84       0.0946
    103  CD2       35.2720  -36.7430  -14.1110 C.ar   84  TRP84       0.0152
    104  NE1       35.8110  -34.5680  -14.1950 N.ar   84  TRP84      -0.2442
    105  CE2       36.3430  -35.8300  -14.1970 C.ar   84  TRP84       0.0810
    106  CE3       35.5500  -38.1160  -14.0960 C.ar   84  TRP84       0.0012
    107  CZ2       37.6620  -36.2440  -14.2670 C.ar   84  TRP84       0.0191
    108  CZ3       36.8620  -38.5230  -14.1630 C.ar   84  TRP84       0.0001
    109  CH2       37.9010  -37.5920  -14.2480 C.ar   84  TRP84       0.0015
    110  N         33.7000  -36.2520  -10.5340 N.am   85  CYS85      -0.1968
    111  CA        34.1320  -35.2610   -9.5670 C.3    85  CYS85       0.1712
    112  C         35.2260  -34.3840  -10.1390 C.2    85  CYS85       0.2296
    113  O         36.2980  -34.8620  -10.4850 O.2    85  CYS85      -0.2864
    114  CB        34.6290  -35.9300   -8.2940 C.3    85  CYS85       0.0983
    115  SG        33.3400  -36.6670   -7.2970 S.3    85  CYS85      -0.0798
    116  N         38.1720  -31.9640   -9.6590 N.3    87  GLY87      -0.1210
    117  CA        39.0760  -31.8630   -8.5230 C.3    87  GLY87       0.1956
    118  C         39.8730  -33.1370   -8.3240 C.2    87  GLY87       0.2613
    119  O         39.8770  -34.0030   -9.1940 O.2    87  GLY87      -0.2717
    120  N         40.5560  -33.2670   -7.1940 N.am   88  SER88      -0.1938
    121  CA        41.4460  -34.4110   -7.0030 C.3    88  SER88       0.2055
    122  C         41.0350  -35.2110   -5.7770 C.2    88  SER88       0.2643
    123  O         40.3530  -34.6900   -4.9090 O.2    88  SER88      -0.2714
    124  CB        42.8880  -33.9250   -6.8310 C.3    88  SER88       0.2130
    125  OG        43.2590  -33.0400   -7.8760 O.3    88  SER88      -0.2179
    126  N         41.4560  -36.4670   -5.6870 N.am   89  SER89      -0.1949
    127  CA        41.1740  -37.2580   -4.4870 C.3    89  SER89       0.1924
    128  C         41.9740  -36.7440   -3.2950 C.2    89  SER89       0.2314
    129  O         43.0030  -36.0900   -3.4680 O.2    89  SER89      -0.2863
    130  CB        41.5230  -38.7240   -4.7300 C.3    89  SER89       0.2116
    131  OG        42.9150  -38.8900   -4.9220 O.3    89  SER89      -0.2180
    132  N         37.0090  -38.3100   -2.5120 N.3   136  PHE136     -0.1241
    133  CA        37.2420  -37.3650   -3.6010 C.3   136  PHE136      0.1605
    134  C         36.7670  -35.9970   -3.1300 C.2   136  PHE136      0.2264
    135  O         35.7770  -35.8890   -2.4150 O.2   136  PHE136     -0.2867
    136  CB        36.4990  -37.8200   -4.8670 C.3   136  PHE136      0.0534
    137  CG        36.6850  -39.3070   -5.1890 C.ar  136  PHE136     -0.0203
    138  CD1       35.6580  -40.2200   -4.9630 C.ar  136  PHE136     -0.0042
    139  CD2       37.8890  -39.7920   -5.7170 C.ar  136  PHE136     -0.0042
    140  CE1       35.8260  -41.5810   -5.2560 C.ar  136  PHE136     -0.0003
    141  CE2       38.0600  -41.1590   -6.0120 C.ar  136  PHE136     -0.0003
    142  CZ        37.0300  -42.0450   -5.7810 C.ar  136  PHE136     -0.0000
    143  N         33.6670  -42.6630   -2.2150 N.3   146  GLY146     -0.1210
    144  CA        33.3260  -43.6820   -3.1820 C.3   146  GLY146      0.1956
    145  C         34.1250  -44.9400   -2.9040 C.2   146  GLY146      0.2612
    146  O         35.0380  -44.9430   -2.0720 O.2   146  GLY146     -0.2717
    147  N         33.7790  -46.0120   -3.6000 N.am  147  ASP147     -0.1959
    148  CA        34.6520  -47.1660   -3.7420 C.3   147  ASP147      0.1840
    149  C         34.4980  -48.1380   -2.6110 C.2   147  ASP147      0.2622
    150  O         35.4760  -48.6730   -2.0970 O.2   147  ASP147     -0.2715
    151  CB        36.1060  -46.7430   -3.8570 C.3   147  ASP147      0.1450
    152  CG        36.7580  -47.3370   -5.0500 C.2   147  ASP147      0.3671
    153  OD1       37.0730  -48.5390   -5.0000 O.co2 147  ASP147     -0.2456
    154  OD2       36.9330  -46.6150   -6.0500 O.co2 147  ASP147     -0.2456
    155  N         33.2370  -48.2970   -2.2140 N.am  148  PHE148     -0.1960
    156  CA        32.7800  -49.2920   -1.2590 C.3   148  PHE148      0.1771
    157  C         31.8470  -50.3110   -1.9040 C.2   148  PHE148      0.2620
    158  O         31.3490  -51.2290   -1.2350 O.2   148  PHE148     -0.2715
    159  CB        32.0310  -48.6130   -0.1190 C.3   148  PHE148      0.0574
    160  CG        30.8360  -47.8080   -0.5560 C.ar  148  PHE148     -0.0200
    161  CD1       30.8820  -46.4330   -0.5520 C.ar  148  PHE148     -0.0042
    162  CD2       29.6420  -48.4180   -0.8710 C.ar  148  PHE148     -0.0042
    163  CE1       29.7600  -45.6850   -0.8410 C.ar  148  PHE148     -0.0003
    164  CE2       28.5170  -47.6630   -1.1610 C.ar  148  PHE148     -0.0003
    165  CZ        28.5800  -46.3000   -1.1420 C.ar  148  PHE148     -0.0000
    166  N         31.5840  -50.1360   -3.1940 N.am  149  GLY149     -0.1940
    167  CA        30.6940  -51.0490   -3.8920 C.3   149  GLY149      0.2014
    168  C         31.3490  -52.3820   -4.2030 C.2   149  GLY149      0.2638
    169  O         32.5330  -52.5660   -3.9460 O.2   149  GLY149     -0.2714
    170  N         30.5720  -53.3140   -4.7450 N.am  150  LEU150     -0.1977
    171  CA        31.1040  -54.5610   -5.2990 C.3   150  LEU150      0.1596
    172  C         32.1230  -55.2880   -4.4110 C.2   150  LEU150      0.2287
    173  O         33.0930  -55.8650   -4.9250 O.2   150  LEU150     -0.2864
    174  CB        31.7470  -54.3010   -6.6630 C.3   150  LEU150      0.0297
    175  CG        31.0990  -53.2560   -7.5720 C.3   150  LEU150      0.0022
    176  CD1       32.1740  -52.6480   -8.4410 C.3   150  LEU150      0.0001
    177  CD2       29.9900  -53.8660   -8.4030 C.3   150  LEU150      0.0001
@<TRIPOS>BOND
     1     1     2    1
     2    12    11    2
     3    11    10    1
     4     2     5    1
     5     2     3    1
     6     8     6    1
     7     6     5    1
     8     7     5    1
     9    18    17    1
    10    18    19    2
    11    23    24    2
    12    23    22    1
    13     9    10    1
    14    16    17    1
    15    10    13    1
    16    21    22    1
    17    17    20    1
    18     3     4    2
    19   107   109   ar
    20   107   105   ar
    21   109   108   ar
    22   105   104   ar
    23   105   103   ar
    24   104   102   ar
    25   108   106   ar
    26   103   106   ar
    27   103   101   ar
    28   102   101   ar
    29    22    25    1
    30    72    73    1
    31   101   100    1
    32   100    97    1
    33    75    74    2
    34    74    73    1
    35    14    13    1
    36    13    15    1
    37    73    76    1
    38    83    82    2
    39    25    26    1
    40    97    96    1
    41    97    98    1
    42    80    81    1
    43    96    89   am
    44    26    27    1
    45    82    81    1
    46    82    87   am
    47    99    98    2
    48    76    77    1
    49    76    78    1
    50    98   110   am
    51    89    88    1
    52    89    90    2
    53    81    84    1
    54    77    79    1
    55    88    87    1
    56    88    91    1
    57    27    28    1
    58    85    84    1
    59   110   111    1
    60   113   112    2
    61    71    69   ar
    62    71    70   ar
    63    84    86    1
    64   112   111    1
    65    69    67   ar
    66    91    92    1
    67   116   117    1
    68    70    68   ar
    69   111   114    1
    70    28    29    1
    71    63    64    2
    72    63    62    1
    73    67    66   ar
    74   119   118    2
    75    92    93    1
    76    68    66   ar
    77    66    65    1
    78   117   118    1
    79   176   175    1
    80    62    65    1
    81    62    61    1
    82   177   175    1
    83   118   120   am
    84   114   115    1
    85    95    93   am
    86   125   124    1
    87    93    94    2
    88   175   174    1
    89    36    35    1
    90   120   121    1
    91   121   124    1
    92   121   122    1
    93    60    58    1
    94    59    58    1
    95   174   171    1
    96    58    57    1
    97   154   152   ar
    98   141   142   ar
    99   141   139   ar
   100    35    34    1
   101    35    37    1
   102    34    31    1
   103   142   140   ar
   104   122   126   am
   105   122   123    2
   106   139   137   ar
   107   126   127    1
   108   171   170    1
   109   171   172    1
   110   140   138   ar
   111   137   138   ar
   112   137   136    1
   113    55    56    2
   114    55    54    1
   115   152   153   ar
   116   152   151    1
   117    57    54    1
   118   173   172    2
   119   131   130    1
   120   136   133    1
   121   170   168   am
   122   130   127    1
   123    32    31    1
   124    32    33    2
   125    31    30    1
   126   127   128    1
   127    54    53    1
   128   168   169    2
   129   168   167    1
   130   167   166    1
   131   151   148    1
   132   148   147    1
   133   148   149    1
   134   133   134    1
   135   133   132    1
   136   147   145   am
   137   129   128    2
   138    41    40    2
   139   166   157   am
   140   144   145    1
   141   144   143    1
   142   134   135    2
   143    53    47   am
   144    43    42    1
   145   145   146    2
   146    48    47    2
   147   149   155   am
   148   149   150    2
   149    47    46    1
   150   155   156    1
   151    40    39    1
   152   157   156    1
   153   157   158    2
   154    38    39    1
   155    42    39    1
   156    42    44    1
   157    51    49    1
   158   156   159    1
   159   164   165   ar
   160   164   162   ar
   161   165   163   ar
   162   162   160   ar
   163    46    49    1
   164    46    45    1
   165   163   161   ar
   166   160   161   ar
   167   160   159    1
   168    49    50    1
   169    50    52    1
