@<TRIPOS>MOLECULE
tmp/3skeB00.pdb
 179 171 0 0 0
SMALL
GASTEIGER

@<TRIPOS>ATOM
      1  N         26.5450    4.6440   10.1810 N.3   188  PHE188     -0.1241
      2  CA        27.4390    4.9700    9.0780 C.3   188  PHE188      0.1605
      3  C         28.9230    4.9650    9.4130 C.2   188  PHE188      0.2264
      4  O         29.7470    5.0860    8.5120 O.2   188  PHE188     -0.2867
      5  CB        27.0140    6.2740    8.3880 C.3   188  PHE188      0.0534
      6  CG        25.6740    6.2310    7.6780 C.ar  188  PHE188     -0.0203
      7  CD1       25.5070    5.4810    6.5120 C.ar  188  PHE188     -0.0042
      8  CD2       24.6150    7.0280    8.1070 C.ar  188  PHE188     -0.0042
      9  CE1       24.2780    5.4730    5.8310 C.ar  188  PHE188     -0.0003
     10  CE2       23.3900    7.0230    7.4270 C.ar  188  PHE188     -0.0003
     11  CZ        23.2350    6.2540    6.2880 C.ar  188  PHE188     -0.0000
     12  N         31.0370   -3.0810    6.5340 N.3   192  PRO192     -0.2116
     13  CA        30.1360   -4.2330    6.7210 C.3   192  PRO192      0.1372
     14  C         30.5510   -5.2130    7.8330 C.2   192  PRO192      0.2244
     15  O         29.6890   -5.5960    8.6290 O.2   192  PRO192     -0.2868
     16  CB        30.0870   -4.8700    5.3310 C.3   192  PRO192      0.0268
     17  CG        30.4200   -3.7030    4.3770 C.3   192  PRO192      0.0207
     18  CD        31.4930   -2.9770    5.1320 C.3   192  PRO192      0.0892
     19  N         29.6560   -3.5880   11.2380 N.3   195  ARG195     -0.1245
     20  CA        28.2070   -3.5170   11.4580 C.3   195  ARG195      0.1563
     21  C         27.7280   -4.8820   11.9840 C.2   195  ARG195      0.2260
     22  O         26.9740   -4.9390   12.9490 O.2   195  ARG195     -0.2867
     23  CB        27.4870   -3.1730   10.1370 C.3   195  ARG195      0.0307
     24  CG        25.9510   -3.1840   10.2600 C.3   195  ARG195      0.0489
     25  CD        25.2390   -2.8620    8.9500 C.3   195  ARG195      0.2205
     26  NE        23.7860   -2.8510    9.1780 N.pl3 195  ARG195     -0.0865
     27  CZ        23.0990   -1.7990    9.6090 C.cat 195  ARG195      0.5346
     28  NH1       23.7040   -0.6330    9.7960 N.pl3 195  ARG195      0.1354
     29  NH2       21.7980   -1.9000    9.8360 N.pl3 195  ARG195      0.1354
     30  N         20.6020    4.4160   10.6710 N.3   311  ASN311     -0.1225
     31  CA        21.2220    4.7890    9.3980 C.3   311  ASN311      0.1785
     32  C         20.1280    5.4790    8.5880 C.2   311  ASN311      0.2598
     33  O         19.3450    4.7880    7.9250 O.2   311  ASN311     -0.2718
     34  CB        21.6400    3.5040    8.6100 C.3   311  ASN311      0.1169
     35  CG        22.7900    2.7340    9.1540 C.2   311  ASN311      0.2627
     36  OD1       22.6640    2.0370   10.1490 O.2   311  ASN311     -0.2716
     37  ND2       23.9300    2.7960    8.4650 N.am  311  ASN311     -0.0877
     38  N         20.0670    6.8100    8.6350 N.am  312  GLY312     -0.1942
     39  CA        19.0310    7.5600    7.9240 C.3   312  GLY312      0.2014
     40  C         17.6680    7.2490    8.5070 C.2   312  GLY312      0.2639
     41  O         17.4970    7.3240    9.7220 O.2   312  GLY312     -0.2714
     42  N         16.7250    6.7550    7.6710 N.am  313  ASP313     -0.1957
     43  CA        15.3960    6.3370    8.1530 C.3   313  ASP313      0.1840
     44  C         15.3900    4.8570    8.6410 C.2   313  ASP313      0.2622
     45  O         14.3450    4.3620    9.0900 O.2   313  ASP313     -0.2715
     46  CB        14.3580    6.4930    7.0220 C.3   313  ASP313      0.1450
     47  CG        14.5730    5.6430    5.7680 C.2   313  ASP313      0.3671
     48  OD1       15.6960    5.1010    5.5900 O.co2 313  ASP313     -0.2456
     49  OD2       13.6270    5.5370    4.9530 O.co2 313  ASP313     -0.2456
     50  N         16.5190    4.1500    8.5010 N.am  314  ASP314     -0.1971
     51  CA        16.5860    2.7330    8.8780 C.3   314  ASP314      0.1709
     52  C         16.9330    2.5400   10.3480 C.2   314  ASP314      0.2293
     53  O         17.9560    3.0440   10.8340 O.2   314  ASP314     -0.2864
     54  CB        17.5180    1.9490    7.9560 C.3   314  ASP314      0.1436
     55  CG        17.2600    0.4470    8.0300 C.2   314  ASP314      0.3671
     56  OD1       17.6880   -0.1800    9.0240 O.co2 314  ASP314     -0.2456
     57  OD2       16.6230   -0.0940    7.0950 O.co2 314  ASP314     -0.2456
     58  N         18.4660   -2.3160    6.7890 N.3   361  CYS361     -0.1221
     59  CA        19.1350   -1.8210    5.5840 C.3   361  CYS361      0.1808
     60  C         19.0050   -2.9060    4.4870 C.2   361  CYS361      0.2602
     61  O         19.9620   -3.2110    3.7700 O.2   361  CYS361     -0.2717
     62  CB        20.5820   -1.4070    5.8580 C.3   361  CYS361      0.0970
     63  SG        20.7420   -0.0500    7.0560 S.3   361  CYS361     -0.0800
     64  N         17.7680   -3.5020    4.3950 N.am  362  SER362     -0.1938
     65  CA        17.3540   -4.5730    3.4620 C.3   362  SER362      0.2055
     66  C         18.2170   -5.8450    3.6220 C.2   362  SER362      0.2643
     67  O         18.1450   -6.7540    2.8010 O.2   362  SER362     -0.2714
     68  CB        17.3980   -4.0880    2.0100 C.3   362  SER362      0.2130
     69  OG        16.9730   -2.7440    1.8640 O.3   362  SER362     -0.2179
     70  N         19.0010   -5.9190    4.7140 N.am  363  SER363     -0.1949
     71  CA        19.9340   -7.0080    4.9580 C.3   363  SER363      0.1924
     72  C         19.6340   -7.7690    6.2330 C.2   363  SER363      0.2314
     73  O         18.9920   -7.2390    7.1360 O.2   363  SER363     -0.2863
     74  CB        21.3510   -6.4480    5.0040 C.3   363  SER363      0.2116
     75  OG        21.5390   -5.6000    3.8850 O.3   363  SER363     -0.2180
     76  N         26.6350  -10.0840    6.3340 N.3   379  LEU379     -0.1245
     77  CA        25.3370   -9.5550    5.9130 C.3   379  LEU379      0.1561
     78  C         25.0140   -9.9390    4.4860 C.2   379  LEU379      0.2260
     79  O         25.8570   -9.8730    3.5850 O.2   379  LEU379     -0.2867
     80  CB        25.2360   -8.0300    6.1200 C.3   379  LEU379      0.0270
     81  CG        25.3340   -7.6010    7.5880 C.3   379  LEU379      0.0019
     82  CD1       25.8730   -6.2160    7.6960 C.3   379  LEU379      0.0001
     83  CD2       23.9720   -7.7240    8.3000 C.3   379  LEU379      0.0001
     84  N         21.3800  -10.3170    1.6210 N.3   381  ARG381     -0.1245
     85  CA        20.0490   -9.8180    1.2970 C.3   381  ARG381      0.1563
     86  C         19.4390  -10.6700    0.2230 C.2   381  ARG381      0.2260
     87  O         20.1490  -11.4550   -0.4230 O.2   381  ARG381     -0.2867
     88  CB        20.0940   -8.3360    0.8560 C.3   381  ARG381      0.0307
     89  CG        20.9470   -8.0230   -0.3530 C.3   381  ARG381      0.0489
     90  CD        20.5290   -6.7060   -0.9790 C.3   381  ARG381      0.2205
     91  NE        19.1840   -6.7930   -1.5540 N.pl3 381  ARG381     -0.0865
     92  CZ        18.3370   -5.7760   -1.6570 C.cat 381  ARG381      0.5346
     93  NH1       18.6750   -4.5710   -1.2050 N.pl3 381  ARG381      0.1354
     94  NH2       17.1410   -5.9570   -2.1980 N.pl3 381  ARG381      0.1354
     95  N         27.1450    2.4180  -11.0890 N.3   401  ASN401     -0.1225
     96  CA        27.1910    0.9600  -11.1780 C.3   401  ASN401      0.1785
     97  C         26.7570    0.3260   -9.8830 C.2   401  ASN401      0.2597
     98  O         27.5780    0.2120   -8.9750 O.2   401  ASN401     -0.2718
     99  CB        28.5980    0.4910  -11.5730 C.3   401  ASN401      0.1169
    100  CG        28.9980    1.0120  -12.9250 C.2   401  ASN401      0.2627
    101  OD1       28.5140    0.5380  -13.9620 O.2   401  ASN401     -0.2716
    102  ND2       29.8060    2.0630  -12.9360 N.am  401  ASN401     -0.0877
    103  N         25.4780   -0.1060   -9.7820 N.am  402  SER402     -0.1952
    104  CA        25.0180   -0.7870   -8.5630 C.3   402  SER402      0.1924
    105  C         25.7230   -2.1240   -8.3940 C.2   402  SER402      0.2314
    106  O         25.9540   -2.5320   -7.2640 O.2   402  SER402     -0.2863
    107  CB        23.5060   -0.9770   -8.5520 C.3   402  SER402      0.2116
    108  OG        23.1240   -1.9420   -9.5130 O.3   402  SER402     -0.2180
    109  N         29.0640   -1.6090   -6.4350 N.3   405  GLY405     -0.1210
    110  CA        28.7480   -1.3130   -5.0420 C.3   405  GLY405      0.1956
    111  C         28.2820   -2.5730   -4.3320 C.2   405  GLY405      0.2611
    112  O         28.6960   -2.8260   -3.2020 O.2   405  GLY405     -0.2717
    113  N         27.4620   -3.4180   -5.0240 N.am  406  ASN406     -0.1974
    114  CA        26.9820   -4.6840   -4.4450 C.3   406  ASN406      0.1688
    115  C         28.1080   -5.6830   -4.2130 C.2   406  ASN406      0.2292
    116  O         28.0830   -6.3670   -3.1970 O.2   406  ASN406     -0.2864
    117  CB        25.8300   -5.3030   -5.2430 C.3   406  ASN406      0.1181
    118  CG        24.4820   -4.7030   -4.9260 C.2   406  ASN406      0.2629
    119  OD1       24.0620   -4.6370   -3.7740 O.2   406  ASN406     -0.2716
    120  ND2       23.7260   -4.3490   -5.9490 N.am  406  ASN406     -0.0877
    121  N         30.0520   -4.1550   -1.0230 N.3   409  MET409     -0.1230
    122  CA        29.2920   -4.2550    0.2230 C.3   409  MET409      0.1702
    123  C         28.8400   -5.6680    0.5560 C.2   409  MET409      0.2592
    124  O         28.6940   -6.0000    1.7330 O.2   409  MET409     -0.2718
    125  CB        28.0950   -3.2820    0.2080 C.3   409  MET409      0.0401
    126  CG        28.5120   -1.7930    0.0970 C.3   409  MET409      0.0596
    127  SD        29.7080   -1.2650    1.3720 S.3   409  MET409     -0.1393
    128  CE        28.6130   -0.8320    2.6950 C.3   409  MET409      0.0692
    129  N         28.6030   -6.4880   -0.4740 N.am  410  TYR410     -0.1976
    130  CA        28.0990   -7.8510   -0.2910 C.3   410  TYR410      0.1639
    131  C         29.0660   -8.9330   -0.7720 C.2   410  TYR410      0.2290
    132  O         28.6510  -10.0790   -1.0050 O.2   410  TYR410     -0.2864
    133  CB        26.7070   -7.9860   -0.9560 C.3   410  TYR410      0.0560
    134  CG        25.6410   -7.1780   -0.2520 C.ar  410  TYR410     -0.0198
    135  CD1       25.1090   -7.5990    0.9610 C.ar  410  TYR410     -0.0009
    136  CD2       25.1560   -5.9960   -0.8050 C.ar  410  TYR410     -0.0009
    137  CE1       24.1180   -6.8640    1.6080 C.ar  410  TYR410      0.0417
    138  CE2       24.1830   -5.2390   -0.1550 C.ar  410  TYR410      0.0417
    139  CZ        23.6560   -5.6850    1.0410 C.ar  410  TYR410      0.1957
    140  OH        22.6860   -4.9500    1.6580 O.3   410  TYR410     -0.2866
    141  N         28.5490    3.8700   -5.3720 N.3   441  GLN441     -0.1231
    142  CA        28.1830    4.6260   -4.1830 C.3   441  GLN441      0.1698
    143  C         28.3560    3.7950   -2.9340 C.2   441  GLN441      0.2592
    144  O         27.9710    2.6240   -2.9210 O.2   441  GLN441     -0.2718
    145  CB        26.7450    5.1610   -4.2870 C.3   441  GLN441      0.0381
    146  CG        26.5560    6.2270   -5.3710 C.3   441  GLN441      0.0905
    147  CD        25.1850    6.8690   -5.3180 C.2   441  GLN441      0.2608
    148  OE1       24.1480    6.2010   -5.4130 O.2   441  GLN441     -0.2717
    149  NE2       25.1520    8.1920   -5.2000 N.am  441  GLN441     -0.0878
    150  N         28.9560    4.3980   -1.8880 N.am  442  ILE442     -0.1966
    151  CA        29.1410    3.7740   -0.5750 C.3   442  ILE442      0.1727
    152  C         28.5500    4.7480    0.4430 C.2   442  ILE442      0.2616
    153  O         29.0540    5.8620    0.5870 O.2   442  ILE442     -0.2715
    154  CB        30.6200    3.3960   -0.2450 C.3   442  ILE442      0.0290
    155  CG1       31.2770    2.4230   -1.2860 C.3   442  ILE442      0.0022
    156  CG2       30.7450    2.8260    1.1920 C.3   442  ILE442      0.0023
    157  CD1       30.5700    1.0580   -1.4950 C.3   442  ILE442      0.0001
    158  N         27.4770    4.3330    1.1330 N.am  443  TYR443     -0.1960
    159  CA        26.7850    5.1710    2.1200 C.3   443  TYR443      0.1771
    160  C         26.4090    6.5540    1.5090 C.2   443  TYR443      0.2620
    161  O         26.6320    7.5940    2.1320 O.2   443  TYR443     -0.2715
    162  CB        27.5790    5.3110    3.4490 C.3   443  TYR443      0.0574
    163  CG        27.6970    4.0530    4.3020 C.ar  443  TYR443     -0.0198
    164  CD1       26.9040    2.9320    4.0480 C.ar  443  TYR443     -0.0009
    165  CD2       28.5640    4.0060    5.3920 C.ar  443  TYR443     -0.0009
    166  CE1       27.0000    1.7840    4.8310 C.ar  443  TYR443      0.0417
    167  CE2       28.6390    2.8760    6.2090 C.ar  443  TYR443      0.0417
    168  CZ        27.8730    1.7570    5.9080 C.ar  443  TYR443      0.1957
    169  OH        27.9540    0.6330    6.6920 O.3   443  TYR443     -0.2866
    170  N         25.8800    6.5330    0.2830 N.am  444  GLY444     -0.1954
    171  CA        25.4380    7.7330   -0.4190 C.3   444  GLY444      0.1869
    172  C         26.4990    8.5780   -1.0960 C.2   444  GLY444      0.2309
    173  O         26.1540    9.3910   -1.9510 O.2   444  GLY444     -0.2863
    174  N         23.5800   10.1980    1.6070 N.3   551  SER551     -0.1217
    175  CA        22.5230   10.0070    0.5930 C.3   551  SER551      0.1889
    176  C         21.8570   11.3290    0.2220 C.2   551  SER551      0.2288
    177  O         21.4130   12.0440    1.1100 O.2   551  SER551     -0.2866
    178  CB        21.4470    9.0440    1.0790 C.3   551  SER551      0.2089
    179  OG        22.0340    7.7940    1.3790 O.3   551  SER551     -0.2183
@<TRIPOS>BOND
     1   101   100    2
     2   102   100   am
     3   100    99    1
     4    99    96    1
     5    96    95    1
     6    96    97    1
     7    97   103   am
     8    97    98    2
     9   103   104    1
    10   108   107    1
    11   104   107    1
    12   104   105    1
    13   105   106    2
    14   109   110    1
    15   120   118   am
    16   148   147    2
    17   141   142    1
    18   146   147    1
    19   146   145    1
    20   147   149   am
    21   117   118    1
    22   117   114    1
    23   110   111    1
    24   113   114    1
    25   113   111   am
    26   118   119    2
    27   114   115    1
    28   111   112    2
    29   145   142    1
    30   115   116    2
    31   142   143    1
    32   143   144    2
    33   143   150   am
    34    94    92    1
    35   173   172    2
    36   150   151    1
    37    92    91    2
    38    92    93    1
    39    91    90    1
    40   157   155    1
    41   155   154    1
    42   172   171    1
    43   121   122    1
    44   132   131    2
    45    90    89    1
    46   133   130    1
    47   133   134    1
    48   136   134   ar
    49   136   138   ar
    50   131   130    1
    51   151   154    1
    52   151   152    1
    53   129   130    1
    54   129   123   am
    55    87    86    2
    56   171   170    1
    57    89    88    1
    58   134   135   ar
    59   154   156    1
    60   138   139   ar
    61   126   125    1
    62   126   127    1
    63   125   122    1
    64   176   175    1
    65   176   177    2
    66   122   123    1
    67    86    85    1
    68   170   160   am
    69   152   153    2
    70   152   158   am
    71   123   124    2
    72   175   178    1
    73   175   174    1
    74    88    85    1
    75   135   137   ar
    76   139   137   ar
    77   139   140    1
    78   178   179    1
    79   158   159    1
    80    85    84    1
    81   127   128    1
    82   160   159    1
    83   160   161    2
    84    69    68    1
    85    68    65    1
    86   159   162    1
    87    67    66    2
    88   162   163    1
    89    65    66    1
    90    65    64    1
    91    79    78    2
    92    66    70   am
    93    61    60    2
    94    75    74    1
    95   164   163   ar
    96   164   166   ar
    97   163   165   ar
    98    17    18    1
    99    17    16    1
   100    64    60   am
   101    78    77    1
   102    60    59    1
   103    70    71    1
   104   166   168   ar
   105    49    47   ar
   106    71    74    1
   107    71    72    1
   108    18    12    1
   109    16    13    1
   110   165   167   ar
   111    59    62    1
   112    59    58    1
   113    48    47   ar
   114    47    46    1
   115     9    11   ar
   116     9     7   ar
   117    62    63    1
   118   168   167   ar
   119   168   169    1
   120    77    80    1
   121    77    76    1
   122    80    81    1
   123    72    73    2
   124    11    10   ar
   125     7     6   ar
   126    12    13    1
   127    13    14    1
   128    46    43    1
   129    57    55   ar
   130    10     8   ar
   131    81    82    1
   132    81    83    1
   133    42    43    1
   134    42    40   am
   135     6     8   ar
   136     6     5    1
   137    14    15    2
   138    39    40    1
   139    39    38    1
   140    33    32    2
   141    54    55    1
   142    54    51    1
   143    55    56   ar
   144    43    44    1
   145     5     2    1
   146    37    35   am
   147    50    44   am
   148    50    51    1
   149    40    41    2
   150     4     3    2
   151    32    38   am
   152    32    31    1
   153    34    35    1
   154    34    31    1
   155    44    45    2
   156    51    52    1
   157    25    26    1
   158    25    24    1
   159     2     3    1
   160     2     1    1
   161    35    36    2
   162    26    27    2
   163    31    30    1
   164    27    28    1
   165    27    29    1
   166    23    24    1
   167    23    20    1
   168    52    53    2
   169    19    20    1
   170    20    21    1
   171    21    22    2
