@<TRIPOS>MOLECULE
tmp/3skhB00.pdb
 156 148 0 0 0
SMALL
GASTEIGER

@<TRIPOS>ATOM
      1  N         26.3950    4.7130   10.0480 N.3   188  PHE188     -0.1241
      2  CA        27.3200    5.0910    8.9930 C.3   188  PHE188      0.1605
      3  C         28.8150    5.0930    9.3120 C.2   188  PHE188      0.2264
      4  O         29.6140    5.2420    8.3860 O.2   188  PHE188     -0.2867
      5  CB        26.8570    6.3730    8.3050 C.3   188  PHE188      0.0534
      6  CG        25.5160    6.3010    7.6160 C.ar  188  PHE188     -0.0203
      7  CD1       25.3710    5.6340    6.4030 C.ar  188  PHE188     -0.0042
      8  CD2       24.4180    6.9860    8.1230 C.ar  188  PHE188     -0.0042
      9  CE1       24.1400    5.6120    5.7370 C.ar  188  PHE188     -0.0003
     10  CE2       23.1870    6.9690    7.4520 C.ar  188  PHE188     -0.0003
     11  CZ        23.0550    6.2760    6.2690 C.ar  188  PHE188     -0.0000
     12  N         30.8090   -2.8850    6.5720 N.3   192  PRO192     -0.2116
     13  CA        29.9550   -4.0710    6.7620 C.3   192  PRO192      0.1372
     14  C         30.4310   -4.9900    7.9120 C.2   192  PRO192      0.2244
     15  O         29.6050   -5.3440    8.7560 O.2   192  PRO192     -0.2868
     16  CB        30.0020   -4.7630    5.4040 C.3   192  PRO192      0.0268
     17  CG        30.1920   -3.6450    4.4440 C.3   192  PRO192      0.0207
     18  CD        30.9820   -2.5820    5.1320 C.3   192  PRO192      0.0892
     19  N         29.6390   -3.5310   11.2950 N.3   195  ARG195     -0.1245
     20  CA        28.1910   -3.5710   11.4730 C.3   195  ARG195      0.1563
     21  C         27.7200   -4.9570   11.9870 C.2   195  ARG195      0.2260
     22  O         26.8120   -5.0060   12.8260 O.2   195  ARG195     -0.2867
     23  CB        27.4600   -3.1710   10.1860 C.3   195  ARG195      0.0307
     24  CG        26.0140   -2.7760   10.4490 C.3   195  ARG195      0.0489
     25  CD        25.2270   -2.3490    9.2220 C.3   195  ARG195      0.2205
     26  NE        23.7980   -2.5170    9.4900 N.pl3 195  ARG195     -0.0865
     27  CZ        23.0120   -1.5880   10.0280 C.cat 195  ARG195      0.5346
     28  NH1       23.4950   -0.3840   10.3150 N.pl3 195  ARG195      0.1354
     29  NH2       21.7360   -1.8530   10.2770 N.pl3 195  ARG195      0.1354
     30  N         20.3470    4.5500   10.7480 N.3   311  ASN311     -0.1240
     31  CA        20.9580    4.9620    9.4690 C.3   311  ASN311      0.1653
     32  C         19.8720    5.7370    8.7000 C.2   311  ASN311      0.2266
     33  O         19.1000    5.1300    7.9430 O.2   311  ASN311     -0.2867
     34  CB        21.4190    3.7470    8.6470 C.3   311  ASN311      0.1155
     35  CG        22.6250    3.0140    9.1690 C.2   311  ASN311      0.2627
     36  OD1       22.5910    2.4280   10.2480 O.2   311  ASN311     -0.2716
     37  ND2       23.6700    2.9120    8.3520 N.am  311  ASN311     -0.0877
     38  N         16.4650    7.0020    7.9970 N.3   313  ASP313     -0.1225
     39  CA        15.1430    6.4760    8.3420 C.3   313  ASP313      0.1805
     40  C         15.1530    4.9860    8.7240 C.2   313  ASP313      0.2597
     41  O         14.1520    4.4950    9.2440 O.2   313  ASP313     -0.2718
     42  CB        14.1140    6.7790    7.2280 C.3   313  ASP313      0.1424
     43  CG        14.3970    6.1690    5.8670 C.2   313  ASP313      0.3668
     44  OD1       15.5490    6.2830    5.3930 O.co2 313  ASP313     -0.2456
     45  OD2       13.4370    5.6660    5.2290 O.co2 313  ASP313     -0.2456
     46  N         16.2730    4.2760    8.4990 N.am  314  ASP314     -0.1974
     47  CA        16.3520    2.8700    8.8690 C.3   314  ASP314      0.1709
     48  C         16.7500    2.7140   10.3360 C.2   314  ASP314      0.2293
     49  O         17.8250    3.1450   10.7540 O.2   314  ASP314     -0.2864
     50  CB        17.2970    2.0940    7.9440 C.3   314  ASP314      0.1436
     51  CG        17.0520    0.5990    7.9660 C.2   314  ASP314      0.3671
     52  OD1       17.3970   -0.0460    8.9820 O.co2 314  ASP314     -0.2456
     53  OD2       16.5160    0.0720    6.9670 O.co2 314  ASP314     -0.2456
     54  N         18.7550   -2.2710    7.3590 N.3   361  CYS361     -0.1221
     55  CA        19.3680   -1.6030    6.1960 C.3   361  CYS361      0.1808
     56  C         19.2940   -2.5230    4.9900 C.2   361  CYS361      0.2602
     57  O         20.2860   -2.7410    4.2910 O.2   361  CYS361     -0.2717
     58  CB        20.7930   -1.1410    6.4860 C.3   361  CYS361      0.0970
     59  SG        20.8840    0.2730    7.6010 S.3   361  CYS361     -0.0800
     60  N         18.1020   -3.1360    4.8200 N.am  362  SER362     -0.1938
     61  CA        17.7620   -4.0930    3.7740 C.3   362  SER362      0.2055
     62  C         18.6660   -5.3640    3.7760 C.2   362  SER362      0.2643
     63  O         18.6560   -6.1240    2.8090 O.2   362  SER362     -0.2714
     64  CB        17.7310   -3.3940    2.4180 C.3   362  SER362      0.2130
     65  OG        17.0900   -2.1350    2.5450 O.3   362  SER362     -0.2179
     66  N         19.3980   -5.6030    4.8930 N.am  363  SER363     -0.1949
     67  CA        20.3250   -6.7240    5.1080 C.3   363  SER363      0.1924
     68  C         19.9690   -7.5570    6.3470 C.2   363  SER363      0.2314
     69  O         19.3000   -7.0620    7.2470 O.2   363  SER363     -0.2863
     70  CB        21.7530   -6.2110    5.2680 C.3   363  SER363      0.2116
     71  OG        22.1060   -5.2580    4.2810 O.3   363  SER363     -0.2180
     72  N         26.9380  -10.0580    6.4400 N.3   379  LEU379     -0.1245
     73  CA        25.6760   -9.4170    6.1270 C.3   379  LEU379      0.1561
     74  C         25.2790   -9.7720    4.6830 C.2   379  LEU379      0.2260
     75  O         26.1270   -9.7870    3.7820 O.2   379  LEU379     -0.2867
     76  CB        25.8450   -7.9010    6.3300 C.3   379  LEU379      0.0270
     77  CG        24.8940   -7.1260    7.2600 C.3   379  LEU379      0.0019
     78  CD1       24.3040   -7.9820    8.3670 C.3   379  LEU379      0.0001
     79  CD2       25.5910   -5.9250    7.8480 C.3   379  LEU379      0.0001
     80  N         25.6030    0.1440   -9.6760 N.3   402  SER402     -0.1217
     81  CA        25.1950   -0.5200   -8.4370 C.3   402  SER402      0.1889
     82  C         25.8560   -1.8940   -8.2080 C.2   402  SER402      0.2288
     83  O         26.0940   -2.2500   -7.0490 O.2   402  SER402     -0.2866
     84  CB        23.6770   -0.6340   -8.3550 C.3   402  SER402      0.2089
     85  OG        23.1700   -1.5880   -9.2730 O.3   402  SER402     -0.2183
     86  N         28.9670   -1.5370   -6.2810 N.3   405  GLY405     -0.1210
     87  CA        28.6330   -1.2030   -4.8990 C.3   405  GLY405      0.1956
     88  C         28.1840   -2.4560   -4.1440 C.2   405  GLY405      0.2611
     89  O         28.5910   -2.6540   -2.9960 O.2   405  GLY405     -0.2717
     90  N         27.3430   -3.2930   -4.7950 N.am  406  ASN406     -0.1974
     91  CA        26.8500   -4.5580   -4.2640 C.3   406  ASN406      0.1688
     92  C         27.9890   -5.5830   -4.1160 C.2   406  ASN406      0.2292
     93  O         27.9350   -6.3850   -3.1890 O.2   406  ASN406     -0.2864
     94  CB        25.7240   -5.1030   -5.1220 C.3   406  ASN406      0.1181
     95  CG        24.3970   -4.4130   -4.9260 C.2   406  ASN406      0.2629
     96  OD1       23.8140   -4.3910   -3.8270 O.2   406  ASN406     -0.2716
     97  ND2       23.8460   -3.9060   -6.0140 N.am  406  ASN406     -0.0877
     98  N         30.1550   -4.0130   -1.0070 N.3   409  MET409     -0.1230
     99  CA        29.3940   -4.2030    0.2310 C.3   409  MET409      0.1702
    100  C         28.9820   -5.6340    0.5420 C.2   409  MET409      0.2592
    101  O         29.0350   -6.0180    1.7130 O.2   409  MET409     -0.2718
    102  CB        28.1860   -3.2380    0.3220 C.3   409  MET409      0.0401
    103  CG        28.5700   -1.7570    0.2310 C.3   409  MET409      0.0596
    104  SD        29.7200   -1.1780    1.5050 S.3   409  MET409     -0.1393
    105  CE        28.5680   -0.7280    2.7730 C.3   409  MET409      0.0692
    106  N         28.5310   -6.4110   -0.4750 N.am  410  TYR410     -0.1976
    107  CA        28.1100   -7.8100   -0.2850 C.3   410  TYR410      0.1639
    108  C         29.1240   -8.8510   -0.7900 C.2   410  TYR410      0.2290
    109  O         28.7330   -9.9620   -1.1700 O.2   410  TYR410     -0.2864
    110  CB        26.7100   -8.0620   -0.8610 C.3   410  TYR410      0.0560
    111  CG        25.6410   -7.2320   -0.1980 C.ar  410  TYR410     -0.0198
    112  CD1       25.2410   -7.4910    1.1090 C.ar  410  TYR410     -0.0009
    113  CD2       25.0370   -6.1740   -0.8690 C.ar  410  TYR410     -0.0009
    114  CE1       24.2500   -6.7320    1.7260 C.ar  410  TYR410      0.0417
    115  CE2       24.0390   -5.4130   -0.2670 C.ar  410  TYR410      0.0417
    116  CZ        23.6540   -5.6900    1.0350 C.ar  410  TYR410      0.1957
    117  OH        22.6730   -4.9410    1.6350 O.3   410  TYR410     -0.2866
    118  N         27.9510    4.3160   -5.5160 N.3   441  GLN441     -0.1231
    119  CA        27.6630    5.0400   -4.2760 C.3   441  GLN441      0.1698
    120  C         27.7740    4.1560   -3.0300 C.2   441  GLN441      0.2592
    121  O         27.1030    3.1260   -2.9480 O.2   441  GLN441     -0.2718
    122  CB        26.2800    5.7150   -4.3360 C.3   441  GLN441      0.0381
    123  CG        26.1840    6.9070   -5.2890 C.3   441  GLN441      0.0905
    124  CD        24.9070    7.6930   -5.0780 C.2   441  GLN441      0.2608
    125  OE1       23.7940    7.2280   -5.3520 O.2   441  GLN441     -0.2717
    126  NE2       25.0370    8.9130   -4.5920 N.am  441  GLN441     -0.0878
    127  N         28.6210    4.5710   -2.0630 N.am  442  ILE442     -0.1966
    128  CA        28.8200    3.9110   -0.7600 C.3   442  ILE442      0.1727
    129  C         28.3410    4.8810    0.3130 C.2   442  ILE442      0.2616
    130  O         28.9130    5.9590    0.4680 O.2   442  ILE442     -0.2715
    131  CB        30.2830    3.4290   -0.5010 C.3   442  ILE442      0.0290
    132  CG1       30.8780    2.5930   -1.6810 C.3   442  ILE442      0.0022
    133  CG2       30.4370    2.7540    0.8750 C.3   442  ILE442      0.0023
    134  CD1       30.2710    1.2010   -1.9620 C.3   442  ILE442      0.0001
    135  N         27.2490    4.5060    1.0120 N.am  443  TYR443     -0.1960
    136  CA        26.5710    5.2860    2.0590 C.3   443  TYR443      0.1771
    137  C         26.0480    6.6480    1.5590 C.2   443  TYR443      0.2620
    138  O         25.6950    7.5110    2.3630 O.2   443  TYR443     -0.2715
    139  CB        27.4070    5.3960    3.3630 C.3   443  TYR443      0.0574
    140  CG        27.5320    4.1320    4.2030 C.ar  443  TYR443     -0.0198
    141  CD1       26.6130    3.0870    4.0750 C.ar  443  TYR443     -0.0009
    142  CD2       28.5130    4.0180    5.1820 C.ar  443  TYR443     -0.0009
    143  CE1       26.7140    1.9350    4.8540 C.ar  443  TYR443      0.0417
    144  CE2       28.6160    2.8780    5.9760 C.ar  443  TYR443      0.0417
    145  CZ        27.7220    1.8320    5.8020 C.ar  443  TYR443      0.1957
    146  OH        27.8350    0.7070    6.5900 O.3   443  TYR443     -0.2866
    147  N         25.9730    6.8210    0.2290 N.am  444  GLY444     -0.1954
    148  CA        25.4860    8.0410   -0.4240 C.3   444  GLY444      0.1869
    149  C         26.5520    8.8530   -1.1770 C.2   444  GLY444      0.2309
    150  O         26.1830    9.6820   -2.0050 O.2   444  GLY444     -0.2863
    151  N         23.5870   10.3910    1.6130 N.3   551  SER551     -0.1217
    152  CA        22.5530   10.1770    0.5920 C.3   551  SER551      0.1889
    153  C         21.7460   11.4330    0.2430 C.2   551  SER551      0.2288
    154  O         21.0820   12.0250    1.0940 O.2   551  SER551     -0.2866
    155  CB        21.6540    8.9880    0.9280 C.3   551  SER551      0.2089
    156  OG        21.4920    8.1470   -0.2050 O.3   551  SER551     -0.2183
@<TRIPOS>BOND
     1    80    81    1
     2    85    84    1
     3    81    84    1
     4    81    82    1
     5    82    83    2
     6    86    87    1
     7    97    95   am
     8   118   119    1
     9   125   124    2
    10   123   124    1
    11   123   122    1
    12    94    95    1
    13    94    91    1
    14   124   126   am
    15    95    96    2
    16    87    88    1
    17    90    91    1
    18    90    88   am
    19   122   119    1
    20   119   120    1
    21    91    92    1
    22    88    89    2
    23    92    93    2
    24   120   121    2
    25   120   127   am
    26   127   128    1
    27   150   149    2
    28   134   132    1
    29   132   131    1
    30   149   148    1
    31   109   108    2
    32    98    99    1
    33   113   115   ar
    34   113   111   ar
    35   110   107    1
    36   110   111    1
    37   108   107    1
    38   128   131    1
    39   128   129    1
    40   131   133    1
    41   106   107    1
    42   106   100   am
    43   148   147    1
    44   115   116   ar
    45   156   155    1
    46   111   112   ar
    47   147   137   am
    48    99   102    1
    49    99   100    1
    50   103   102    1
    51   103   104    1
    52   153   152    1
    53   153   154    2
    54   129   130    2
    55   129   135   am
    56   100   101    2
    57   152   155    1
    58   152   151    1
    59   135   136    1
    60   116   117    1
    61   116   114   ar
    62   112   114   ar
    63   104   105    1
    64   137   136    1
    65   137   138    2
    66   136   139    1
    67    64    65    1
    68    64    61    1
    69    63    62    2
    70   139   140    1
    71    61    62    1
    72    61    60    1
    73    62    66   am
    74    75    74    2
    75   141   140   ar
    76   141   143   ar
    77   140   142   ar
    78    71    70    1
    79    57    56    2
    80    17    18    1
    81    17    16    1
    82    74    73    1
    83    60    56   am
    84   143   145   ar
    85    66    67    1
    86    56    55    1
    87    67    70    1
    88    67    68    1
    89    18    12    1
    90   142   144   ar
    91    45    43   ar
    92    44    43   ar
    93    16    13    1
    94     9    11   ar
    95     9     7   ar
    96   145   144   ar
    97   145   146    1
    98    43    42    1
    99    73    76    1
   100    73    72    1
   101    55    58    1
   102    55    54    1
   103    11    10   ar
   104    76    77    1
   105    68    69    2
   106     7     6   ar
   107    58    59    1
   108    12    13    1
   109    13    14    1
   110    53    51   ar
   111    42    39    1
   112    77    79    1
   113    77    78    1
   114    10     8   ar
   115     6     8   ar
   116     6     5    1
   117    14    15    2
   118    33    32    2
   119    50    51    1
   120    50    47    1
   121    51    52   ar
   122    38    39    1
   123     5     2    1
   124    39    40    1
   125    37    35   am
   126     4     3    2
   127    46    40   am
   128    46    47    1
   129    34    35    1
   130    34    31    1
   131    32    31    1
   132    40    41    2
   133    47    48    1
   134     2     3    1
   135     2     1    1
   136    35    36    2
   137    25    26    1
   138    25    24    1
   139    31    30    1
   140    26    27    2
   141    27    29    1
   142    27    28    1
   143    23    24    1
   144    23    20    1
   145    48    49    2
   146    19    20    1
   147    20    21    1
   148    21    22    2
