@<TRIPOS>MOLECULE
tmp/3skkB00.pdb
 135 124 0 0 0
SMALL
GASTEIGER

@<TRIPOS>ATOM
      1  N         26.3570   -3.4080  -41.2330 N.3    96  HIS96      -0.1241
      2  CA        26.4580   -3.3730  -39.7710 C.3    96  HIS96       0.1621
      3  C         27.7690   -3.9260  -39.2040 C.2    96  HIS96       0.2264
      4  O         28.0400   -3.7660  -38.0120 O.2    96  HIS96      -0.2867
      5  CB        25.2770   -4.1090  -39.1300 C.3    96  HIS96       0.0745
      6  CG        24.7370   -3.4400  -37.9020 C.ar   96  HIS96       0.0817
      7  ND1       23.4930   -3.7280  -37.3900 N.ar   96  HIS96      -0.2268
      8  CD2       25.2620   -2.4890  -37.0980 C.ar   96  HIS96       0.1154
      9  CE1       23.2740   -2.9910  -36.3150 C.ar   96  HIS96       0.1986
     10  NE2       24.3330   -2.2300  -36.1150 N.ar   96  HIS96      -0.2212
     11  N         17.5900   -8.2920  -36.0810 N.3   121  HIS121     -0.1241
     12  CA        18.5860   -9.3610  -35.9120 C.3   121  HIS121      0.1621
     13  C         19.5210   -9.1100  -34.7310 C.2   121  HIS121      0.2264
     14  O         19.8060   -7.9690  -34.3980 O.2   121  HIS121     -0.2867
     15  CB        19.4230   -9.4810  -37.1860 C.3   121  HIS121      0.0745
     16  CG        18.6020   -9.6070  -38.4330 C.ar  121  HIS121      0.0817
     17  ND1       18.3830   -8.5510  -39.2910 N.ar  121  HIS121     -0.2268
     18  CD2       17.9410  -10.6660  -38.9610 C.ar  121  HIS121      0.1154
     19  CE1       17.6190   -8.9530  -40.2920 C.ar  121  HIS121      0.1986
     20  NE2       17.3390  -10.2320  -40.1160 N.ar  121  HIS121     -0.2212
     21  N         22.7110  -10.1910  -34.6080 N.3   123  ASP123     -0.1239
     22  CA        24.0630   -9.9630  -35.1100 C.3   123  ASP123      0.1674
     23  C         25.1160  -10.4750  -34.1300 C.2   123  ASP123      0.2266
     24  O         26.1350   -9.8280  -33.9050 O.2   123  ASP123     -0.2867
     25  CB        24.2910   -8.4670  -35.3750 C.3   123  ASP123      0.1410
     26  CG        23.3840   -7.9210  -36.4620 C.2   123  ASP123      0.3668
     27  OD1       22.6180   -8.7040  -37.0550 O.co2 123  ASP123     -0.2456
     28  OD2       23.4380   -6.7080  -36.7240 O.co2 123  ASP123     -0.2456
     29  N         26.1540  -13.9190  -34.1560 N.3   125  ASN125     -0.1240
     30  CA        26.8520  -15.1010  -34.6350 C.3   125  ASN125      0.1653
     31  C         28.3410  -14.8920  -34.4900 C.2   125  ASN125      0.2266
     32  O         28.8220  -13.7650  -34.5580 O.2   125  ASN125     -0.2867
     33  CB        26.5080  -15.3910  -36.0880 C.3   125  ASN125      0.1155
     34  CG        25.2910  -16.2690  -36.2230 C.2   125  ASN125      0.2627
     35  OD1       25.2580  -17.3710  -35.6930 O.2   125  ASN125     -0.2716
     36  ND2       24.2800  -15.7840  -36.9280 N.am  125  ASN125     -0.0877
     37  N         28.2180  -18.7510  -37.4560 N.3   130  THR130     -0.1203
     38  CA        27.6080  -18.2130  -38.6630 C.3   130  THR130      0.1994
     39  C         27.2810  -19.3240  -39.6600 C.2   130  THR130      0.2619
     40  O         28.0090  -20.3110  -39.7680 O.2   130  THR130     -0.2717
     41  CB        28.5180  -17.1730  -39.3320 C.3   130  THR130      0.1784
     42  OG1       27.8160  -16.5500  -40.4120 O.3   130  THR130     -0.2211
     43  CG2       29.7930  -17.8250  -39.8530 C.3   130  THR130      0.0376
     44  N         26.1660  -19.1700  -40.3660 N.am  131  THR131     -0.1938
     45  CA        25.8310  -20.0800  -41.4480 C.3   131  THR131      0.2028
     46  C         25.9840  -19.3550  -42.7850 C.2   131  THR131      0.2642
     47  O         26.3620  -19.9530  -43.7870 O.2   131  THR131     -0.2714
     48  CB        24.4000  -20.6270  -41.3190 C.3   131  THR131      0.1808
     49  OG1       23.4640  -19.5720  -41.5460 O.3   131  THR131     -0.2208
     50  CG2       24.1660  -21.2100  -39.9380 C.3   131  THR131      0.0379
     51  N         25.6990  -18.0600  -42.7890 N.am  132  SER132     -0.1949
     52  CA        25.8060  -17.2690  -43.9990 C.3   132  SER132      0.1924
     53  C         27.2570  -16.9250  -44.2860 C.2   132  SER132      0.2314
     54  O         27.6610  -16.8190  -45.4400 O.2   132  SER132     -0.2863
     55  CB        24.9980  -15.9810  -43.8540 C.3   132  SER132      0.2116
     56  OG        25.6400  -15.0990  -42.9560 O.3   132  SER132     -0.2180
     57  N         28.4990  -14.0800  -43.5200 N.3   134  ASN134     -0.1240
     58  CA        28.5450  -12.6340  -43.6920 C.3   134  ASN134      0.1653
     59  C         28.8110  -11.9210  -42.3600 C.2   134  ASN134      0.2266
     60  O         28.0900  -12.1280  -41.3820 O.2   134  ASN134     -0.2867
     61  CB        27.2370  -12.1480  -44.3240 C.3   134  ASN134      0.1155
     62  CG        26.9340  -12.8450  -45.6360 C.2   134  ASN134      0.2627
     63  OD1       27.8400  -13.2290  -46.3650 O.2   134  ASN134     -0.2716
     64  ND2       25.6630  -13.0080  -45.9400 N.am  134  ASN134     -0.0877
     65  N         28.3630   -8.9760  -41.2640 N.3   136  HIS136     -0.1226
     66  CA        27.3840   -8.0200  -40.7400 C.3   136  HIS136      0.1752
     67  C         26.4060   -8.7070  -39.7900 C.2   136  HIS136      0.2596
     68  O         25.5930   -8.0470  -39.1460 O.2   136  HIS136     -0.2718
     69  CB        26.6340   -7.2840  -41.8620 C.3   136  HIS136      0.0759
     70  CG        25.6400   -8.1310  -42.6030 C.ar  136  HIS136      0.0818
     71  ND1       24.5080   -7.6070  -43.1870 N.ar  136  HIS136     -0.2268
     72  CD2       25.6130   -9.4600  -42.8640 C.ar  136  HIS136      0.1154
     73  CE1       23.8220   -8.5750  -43.7660 C.ar  136  HIS136      0.1986
     74  NE2       24.4730   -9.7100  -43.5870 N.ar  136  HIS136     -0.2212
     75  N         26.4950  -10.0320  -39.6960 N.am  137  GLY137     -0.1957
     76  CA        25.6750  -10.7850  -38.7620 C.3   137  GLY137      0.1869
     77  C         26.4660  -11.2790  -37.5610 C.2   137  GLY137      0.2309
     78  O         26.0040  -12.1620  -36.8400 O.2   137  GLY137     -0.2863
     79  N         14.1430  -12.1070  -36.1450 N.3   176  ASP176     -0.1239
     80  CA        14.7510  -13.2020  -36.8980 C.3   176  ASP176      0.1674
     81  C         16.1160  -13.5090  -36.2990 C.2   176  ASP176      0.2266
     82  O         17.1460  -13.0200  -36.7680 O.2   176  ASP176     -0.2867
     83  CB        14.8540  -12.8790  -38.4020 C.3   176  ASP176      0.1410
     84  CG        15.0680  -14.1240  -39.2590 C.2   176  ASP176      0.3668
     85  OD1       15.4240  -15.1760  -38.7060 O.co2 176  ASP176     -0.2456
     86  OD2       14.8810  -14.0610  -40.4880 O.co2 176  ASP176     -0.2456
     87  N         18.8610  -16.4410  -35.1230 N.3   178  ASP178     -0.1239
     88  CA        19.2880  -17.7960  -35.4680 C.3   178  ASP178      0.1674
     89  C         19.3010  -18.6930  -34.2320 C.2   178  ASP178      0.2266
     90  O         19.4770  -18.2020  -33.1200 O.2   178  ASP178     -0.2867
     91  CB        20.6730  -17.7760  -36.1250 C.3   178  ASP178      0.1410
     92  CG        20.6550  -17.1770  -37.5250 C.2   178  ASP178      0.3668
     93  OD1       19.5940  -17.2130  -38.1830 O.co2 178  ASP178     -0.2456
     94  OD2       21.7090  -16.6780  -37.9740 O.co2 178  ASP178     -0.2456
     95  N         22.2280  -18.0800  -32.1280 N.3   181  GLU181     -0.1245
     96  CA        22.1470  -16.7640  -31.5150 C.3   181  GLU181      0.1567
     97  C         21.1990  -16.8080  -30.3330 C.2   181  GLU181      0.2260
     98  O         21.4760  -16.2340  -29.2890 O.2   181  GLU181     -0.2867
     99  CB        21.6500  -15.7370  -32.5200 C.3   181  GLU181      0.0388
    100  CG        22.6030  -15.4620  -33.6390 C.3   181  GLU181      0.1160
    101  CD        22.0280  -14.4930  -34.6250 C.2   181  GLU181      0.3649
    102  OE1       21.1550  -14.9080  -35.4140 O.co2 181  GLU181     -0.2457
    103  OE2       22.4390  -13.3150  -34.5970 O.co2 181  GLU181     -0.2457
    104  N         20.1190   -0.5140  -36.9320 N.3   227  ASP227     -0.1239
    105  CA        19.9120   -1.1830  -38.2160 C.3   227  ASP227      0.1674
    106  C         18.5270   -0.7790  -38.7140 C.2   227  ASP227      0.2266
    107  O         17.5280   -0.9890  -38.0190 O.2   227  ASP227     -0.2867
    108  CB        19.9880   -2.7030  -38.0310 C.3   227  ASP227      0.1410
    109  CG        20.0040   -3.4760  -39.3510 C.2   227  ASP227      0.3668
    110  OD1       19.3760   -3.0450  -40.3310 O.co2 227  ASP227     -0.2456
    111  OD2       20.6440   -4.5450  -39.4040 O.co2 227  ASP227     -0.2456
    112  N         16.7050   -2.1080  -40.7010 N.3   229  ASP229     -0.1239
    113  CA        15.7910   -3.2540  -40.8440 C.3   229  ASP229      0.1674
    114  C         15.0810   -3.6000  -39.5280 C.2   229  ASP229      0.2266
    115  O         14.2380   -4.4860  -39.4860 O.2   229  ASP229     -0.2867
    116  CB        16.4550   -4.4850  -41.5190 C.3   229  ASP229      0.1410
    117  CG        17.4200   -5.2460  -40.5980 C.2   229  ASP229      0.3668
    118  OD1       18.2640   -6.0110  -41.1320 O.co2 229  ASP229     -0.2456
    119  OD2       17.3370   -5.1080  -39.3540 O.co2 229  ASP229     -0.2456
    120  N         18.1810   -7.1610  -45.6000 N.3   241  THR241     -0.1218
    121  CA        17.5520   -8.2920  -44.9200 C.3   241  THR241      0.1862
    122  C         16.2800   -7.8800  -44.1750 C.2   241  THR241      0.2287
    123  O         16.2410   -7.8930  -42.9400 O.2   241  THR241     -0.2866
    124  CB        18.5270   -8.9650  -43.9210 C.3   241  THR241      0.1770
    125  OG1       19.8410   -9.0550  -44.4940 O.3   241  THR241     -0.2211
    126  CG2       18.0310  -10.3500  -43.5450 C.3   241  THR241      0.0375
    127  N         22.8620   -0.1150  -42.8030 N.3   272  GLU272     -0.1245
    128  CA        22.1330   -1.0290  -43.6740 C.3   272  GLU272      0.1567
    129  C         21.1130   -0.3690  -44.6110 C.2   272  GLU272      0.2260
    130  O         20.2670   -1.0480  -45.1820 O.2   272  GLU272     -0.2867
    131  CB        21.5120   -2.1780  -42.8740 C.3   272  GLU272      0.0388
    132  CG        22.5460   -3.0580  -42.1450 C.3   272  GLU272      0.1160
    133  CD        23.4090   -3.9010  -43.0790 C.2   272  GLU272      0.3649
    134  OE1       23.1390   -3.9290  -44.2950 O.co2 272  GLU272     -0.2457
    135  OE2       24.3650   -4.5500  -42.5990 O.co2 272  GLU272     -0.2457
@<TRIPOS>BOND
     1    63    62    2
     2    64    62   am
     3    62    61    1
     4   120   121    1
     5    54    53    2
     6   130   129    2
     7   121   122    1
     8   121   124    1
     9   129   128    1
    10   125   124    1
    11    61    58    1
    12   134   133   ar
    13    53    52    1
    14   122   123    2
    15    52    55    1
    16    52    51    1
    17   124   126    1
    18    55    56    1
    19    47    46    2
    20    73    74   ar
    21    73    71   ar
    22    58    57    1
    23    58    59    1
    24   128   131    1
    25   128   127    1
    26    74    72   ar
    27    71    70   ar
    28   133   135   ar
    29   133   132    1
    30   131   132    1
    31    72    70   ar
    32    51    46   am
    33    46    45    1
    34    70    69    1
    35    59    60    2
    36    69    66    1
    37    49    48    1
    38   116   113    1
    39   116   117    1
    40    45    48    1
    41    45    44    1
    42    48    50    1
    43    65    66    1
    44     1     2    1
    45   118   117   ar
    46   113   112    1
    47   113   114    1
    48    66    67    1
    49   117   119   ar
    50    86    84   ar
    51    42    41    1
    52    44    39   am
    53   110   109   ar
    54    19    20   ar
    55    19    17   ar
    56    20    18   ar
    57    43    41    1
    58    67    75   am
    59    67    68    2
    60     2     3    1
    61     2     5    1
    62    40    39    2
    63    75    76    1
    64    39    38    1
    65   114   115    2
    66   111   109   ar
    67   109   108    1
    68    41    38    1
    69    17    16   ar
    70    84    85   ar
    71    84    83    1
    72     3     4    2
    73     5     6    1
    74    18    16   ar
    75    76    77    1
    76   106   105    1
    77   106   107    2
    78    38    37    1
    79    16    15    1
    80    83    80    1
    81   105   108    1
    82   105   104    1
    83    93    92   ar
    84    94    92   ar
    85     6     7   ar
    86     6     8   ar
    87    77    78    2
    88    92    91    1
    89     7     9   ar
    90    15    12    1
    91     8    10   ar
    92    27    26   ar
    93    36    34   am
    94    80    81    1
    95    80    79    1
    96    82    81    2
    97    28    26   ar
    98    26    25    1
    99     9    10   ar
   100    34    33    1
   101    34    35    2
   102    91    88    1
   103    33    30    1
   104    11    12    1
   105    12    13    1
   106    88    87    1
   107    88    89    1
   108   102   101   ar
   109    25    22    1
   110    22    21    1
   111    22    23    1
   112    13    14    2
   113    30    31    1
   114    30    29    1
   115   101   103   ar
   116   101   100    1
   117    32    31    2
   118    89    90    2
   119    23    24    2
   120   100    99    1
   121    99    96    1
   122    95    96    1
   123    96    97    1
   124    97    98    2
