@<TRIPOS>MOLECULE
tmp/3sl0A00.pdb
 134 124 0 0 0
SMALL
GASTEIGER

@<TRIPOS>ATOM
      1  N         43.9670   -9.2450   24.6630 N.3    90  HIS90      -0.1241
      2  CA        43.9380   -9.0400   23.2130 C.3    90  HIS90       0.1621
      3  C         43.0830   -7.8470   22.8000 C.2    90  HIS90       0.2264
      4  O         43.0990   -7.4390   21.6400 O.2    90  HIS90      -0.2867
      5  CB        43.4660  -10.2990   22.4880 C.3    90  HIS90       0.0745
      6  CG        44.1960  -10.5560   21.2070 C.ar   90  HIS90       0.0817
      7  ND1       44.4460  -11.8250   20.7360 N.ar   90  HIS90      -0.2268
      8  CD2       44.7520   -9.7060   20.3110 C.ar   90  HIS90       0.1154
      9  CE1       45.1190  -11.7480   19.6010 C.ar   90  HIS90       0.1986
     10  NE2       45.3230  -10.4740   19.3240 N.ar   90  HIS90      -0.2212
     11  N         42.5950  -19.0800   19.5540 N.3   115  HIS115     -0.1241
     12  CA        41.1770  -18.7290   19.4640 C.3   115  HIS115      0.1621
     13  C         40.8930  -17.7760   18.3080 C.2   115  HIS115      0.2264
     14  O         41.8020  -17.1490   17.7680 O.2   115  HIS115     -0.2867
     15  CB        40.7070  -18.0810   20.7680 C.3   115  HIS115      0.0745
     16  CG        41.1620  -18.8040   21.9970 C.ar  115  HIS115      0.0817
     17  ND1       42.2990  -18.4480   22.6900 N.ar  115  HIS115     -0.2268
     18  CD2       40.6450  -19.8730   22.6470 C.ar  115  HIS115      0.1154
     19  CE1       42.4550  -19.2570   23.7220 C.ar  115  HIS115      0.1986
     20  NE2       41.4690  -20.1360   23.7140 N.ar  115  HIS115     -0.2212
     21  N         38.5930  -15.1390   18.5080 N.3   117  ASP117     -0.1239
     22  CA        38.3170  -13.8230   19.0540 C.3   117  ASP117      0.1674
     23  C         37.3240  -13.1200   18.1320 C.2   117  ASP117      0.2266
     24  O         37.3540  -11.9150   17.9730 O.2   117  ASP117     -0.2867
     25  CB        39.5960  -13.0170   19.2090 C.3   117  ASP117      0.1410
     26  CG        40.5020  -13.5630   20.2990 C.2   117  ASP117      0.3668
     27  OD1       40.1330  -14.5180   20.9840 O.co2 117  ASP117     -0.2456
     28  OD2       41.5880  -13.0290   20.4620 O.co2 117  ASP117     -0.2456
     29  N         33.8300  -13.5990   18.1330 N.3   119  ASN119     -0.1240
     30  CA        32.4790  -13.4610   18.6300 C.3   119  ASN119      0.1653
     31  C         32.0020  -12.0270   18.4660 C.2   119  ASN119      0.2266
     32  O         32.7880  -11.1050   18.5020 O.2   119  ASN119     -0.2867
     33  CB        32.4050  -13.8390   20.1040 C.3   119  ASN119      0.1155
     34  CG        32.1300  -15.3020   20.3160 C.2   119  ASN119      0.2627
     35  OD1       31.1930  -15.8530   19.7660 O.2   119  ASN119     -0.2716
     36  ND2       32.9560  -15.9370   21.1120 N.am  119  ASN119     -0.0877
     37  N         28.5810  -13.9310   21.9970 N.3   124  SER124     -0.1203
     38  CA        29.5810  -14.1890   23.0280 C.3   124  SER124      0.2005
     39  C         28.9970  -14.9930   24.1820 C.2   124  SER124      0.2461
     40  O         27.9390  -14.6500   24.7090 O.2   124  SER124     -0.2732
     41  CB        30.1500  -12.8780   23.5670 C.3   124  SER124      0.2103
     42  OG        31.0300  -13.1270   24.6490 O.3   124  SER124     -0.2182
     43  N         29.6910  -16.0680   24.5800 N.am  125  PRO125     -0.2717
     44  CA        29.2980  -16.8750   25.7400 C.3   125  PRO125      0.1535
     45  C         29.6670  -16.1880   27.0560 C.2   125  PRO125      0.2599
     46  O         29.1110  -16.5240   28.0990 O.2   125  PRO125     -0.2715
     47  CB        30.1390  -18.1520   25.5860 C.3   125  PRO125      0.0310
     48  CG        30.7710  -18.0740   24.2190 C.3   125  PRO125      0.0237
     49  CD        30.8680  -16.6240   23.8960 C.3   125  PRO125      0.0939
     50  N         30.5930  -15.2350   26.9990 N.am  126  SER126     -0.1950
     51  CA        31.1840  -14.6700   28.2090 C.3   126  SER126      0.1924
     52  C         30.8780  -13.1910   28.4200 C.2   126  SER126      0.2314
     53  O         30.7830  -12.7290   29.5560 O.2   126  SER126     -0.2863
     54  CB        32.7010  -14.8610   28.1810 C.3   126  SER126      0.2116
     55  OG        33.2820  -14.1030   27.1300 O.3   126  SER126     -0.2180
     56  N         33.0280  -11.1810   27.4920 N.3   128  ASN128     -0.1240
     57  CA        34.4030  -10.6990   27.5630 C.3   128  ASN128      0.1653
     58  C         34.8780  -10.1740   26.2110 C.2   128  ASN128      0.2266
     59  O         34.8810  -10.9000   25.2170 O.2   128  ASN128     -0.2867
     60  CB        35.3400  -11.8030   28.0630 C.3   128  ASN128      0.1155
     61  CG        35.0080  -12.2510   29.4790 C.2   128  ASN128      0.2627
     62  OD1       34.4910  -11.4720   30.2750 O.2   128  ASN128     -0.2716
     63  ND2       35.3020  -13.5100   29.7930 N.am  128  ASN128     -0.0877
     64  N         37.8200   -9.4060   24.9470 N.3   130  HIS130     -0.1226
     65  CA        38.9960   -9.9690   24.2920 C.3   130  HIS130      0.1752
     66  C         38.6400  -11.1780   23.4150 C.2   130  HIS130      0.2596
     67  O         39.4420  -11.6130   22.5860 O.2   130  HIS130     -0.2718
     68  CB        40.1090  -10.3060   25.2970 C.3   130  HIS130      0.0759
     69  CG        39.8610  -11.5500   26.0920 C.ar  130  HIS130      0.0818
     70  ND1       40.8820  -12.2900   26.6500 N.ar  130  HIS130     -0.2268
     71  CD2       38.7100  -12.1800   26.4290 C.ar  130  HIS130      0.1154
     72  CE1       40.3710  -13.3310   27.2840 C.ar  130  HIS130      0.1986
     73  NE2       39.0560  -13.2860   27.1670 N.ar  130  HIS130     -0.2212
     74  N         37.4340  -11.7080   23.5900 N.am  131  GLY131     -0.1957
     75  CA        36.9590  -12.7860   22.7380 C.3   131  GLY131      0.1869
     76  C         36.1850  -12.2820   21.5280 C.2   131  GLY131      0.2309
     77  O         35.6770  -13.0820   20.7350 O.2   131  GLY131     -0.2863
     78  N         40.4460  -23.7620   19.3190 N.3   169  ASP169     -0.1239
     79  CA        39.3560  -23.6890   20.3010 C.3   169  ASP169      0.1674
     80  C         38.3500  -22.6110   19.8990 C.2   169  ASP169      0.2266
     81  O         38.4890  -21.4410   20.2620 O.2   169  ASP169     -0.2867
     82  CB        39.9140  -23.4200   21.7020 C.3   169  ASP169      0.1410
     83  CG        38.8260  -23.2950   22.7610 C.2   169  ASP169      0.3668
     84  OD1       37.7080  -23.8140   22.5510 O.co2 169  ASP169     -0.2456
     85  OD2       39.0960  -22.6820   23.8170 O.co2 169  ASP169     -0.2456
     86  N         34.2250  -21.3960   19.4450 N.3   171  ASP171     -0.1239
     87  CA        32.8440  -21.5840   19.9020 C.3   171  ASP171      0.1674
     88  C         31.9080  -21.8890   18.7300 C.2   171  ASP171      0.2266
     89  O         32.2240  -21.5920   17.5780 O.2   171  ASP171     -0.2867
     90  CB        32.3410  -20.3410   20.6490 C.3   171  ASP171      0.1410
     91  CG        33.3070  -19.8710   21.7290 C.2   171  ASP171      0.3668
     92  OD1       34.0360  -20.7170   22.2950 O.co2 171  ASP171     -0.2456
     93  OD2       33.3380  -18.6520   22.0100 O.co2 171  ASP171     -0.2456
     94  N         31.0110  -18.8650   16.6450 N.3   174  GLU174     -0.1245
     95  CA        32.2440  -18.4310   15.9970 C.3   174  GLU174      0.1567
     96  C         32.5450  -19.2090   14.7220 C.2   174  GLU174      0.2260
     97  O         33.0360  -18.6420   13.7440 O.2   174  GLU174     -0.2867
     98  CB        33.4260  -18.5890   16.9510 C.3   174  GLU174      0.0388
     99  CG        33.8100  -17.3390   17.6940 C.3   174  GLU174      0.1160
    100  CD        35.0400  -17.5510   18.5520 C.2   174  GLU174      0.3649
    101  OE1       35.1230  -18.6110   19.2120 O.co2 174  GLU174     -0.2457
    102  OE2       35.9240  -16.6670   18.5550 O.co2 174  GLU174     -0.2457
    103  N         48.9180  -13.5440   20.0780 N.3   220  ASP220     -0.1239
    104  CA        48.3950  -13.9850   21.3630 C.3   220  ASP220      0.1674
    105  C         49.2370  -15.1900   21.7880 C.2   220  ASP220      0.2266
    106  O         49.2980  -16.1950   21.0820 O.2   220  ASP220     -0.2867
    107  CB        46.9150  -14.3710   21.2240 C.3   220  ASP220      0.1410
    108  CG        46.2980  -14.8500   22.5330 C.2   220  ASP220      0.3668
    109  OD1       47.0500  -15.2240   23.4550 O.co2 220  ASP220     -0.2456
    110  OD2       45.0530  -14.8770   22.6330 O.co2 220  ASP220     -0.2456
    111  N         48.8970  -17.4810   23.8580 N.3   222  ASP222     -0.1239
    112  CA        48.2260  -18.7660   24.0740 C.3   222  ASP222      0.1674
    113  C         48.1040  -19.6100   22.7950 C.2   222  ASP222      0.2266
    114  O         47.5910  -20.7260   22.8270 O.2   222  ASP222     -0.2867
    115  CB        46.8750  -18.6140   24.7930 C.3   222  ASP222      0.1410
    116  CG        45.7900  -17.9840   23.9240 C.2   222  ASP222      0.3668
    117  OD1       45.8630  -18.0700   22.6760 O.co2 222  ASP222     -0.2456
    118  OD2       44.8430  -17.4100   24.5150 O.co2 222  ASP222     -0.2456
    119  N         43.9910  -18.2670   29.1020 N.3   234  THR234     -0.1218
    120  CA        43.0640  -19.1850   28.4560 C.3   234  THR234      0.1862
    121  C         43.8240  -20.2020   27.6230 C.2   234  THR234      0.2287
    122  O         44.2050  -19.9290   26.4910 O.2   234  THR234     -0.2866
    123  CB        42.0700  -18.4190   27.5690 C.3   234  THR234      0.1770
    124  OG1       41.3700  -17.4610   28.3700 O.3   234  THR234     -0.2211
    125  CG2       41.0680  -19.3700   26.9390 C.3   234  THR234      0.0375
    126  N         48.2960  -11.1420   26.0420 N.3   265  GLU265     -0.1245
    127  CA        47.8470  -12.2420   26.9020 C.3   265  GLU265      0.1567
    128  C         48.9410  -12.9260   27.7180 C.2   265  GLU265      0.2260
    129  O         48.7030  -13.9830   28.3170 O.2   265  GLU265     -0.2867
    130  CB        47.0230  -13.2760   26.1230 C.3   265  GLU265      0.0388
    131  CG        45.7780  -12.7050   25.4270 C.3   265  GLU265      0.1160
    132  CD        44.6510  -12.3500   26.3890 C.2   265  GLU265      0.3649
    133  OE1       44.7960  -12.5910   27.6080 O.co2 265  GLU265     -0.2457
    134  OE2       43.6090  -11.8350   25.9230 O.co2 265  GLU265     -0.2457
@<TRIPOS>BOND
     1    97    96    2
     2    96    95    1
     3    95    94    1
     4    95    98    1
     5    98    99    1
     6    89    88    2
     7    99   100    1
     8    14    13    2
     9    24    23    2
    10    23    22    1
    11    29    30    1
    12    13    12    1
    13    31    32    2
    14    31    30    1
    15    21    22    1
    16   100   102   ar
    17   100   101   ar
    18    30    33    1
    19    88    87    1
    20    22    25    1
    21    25    26    1
    22    78    79    1
    23    10     9   ar
    24    10     8   ar
    25    86    87    1
    26    12    11    1
    27    12    15    1
    28     9     7   ar
    29    35    34    2
    30    80    81    2
    31    80    79    1
    32    87    90    1
    33   103   104    1
    34    33    34    1
    35    26    28   ar
    36    26    27   ar
    37    79    82    1
    38     8     6   ar
    39    34    36   am
    40    90    91    1
    41    77    76    2
    42     7     6   ar
    43    15    16    1
    44   106   105    2
    45     6     5    1
    46   107   104    1
    47   107   108    1
    48   104   105    1
    49    76    75    1
    50     4     3    2
    51    82    83    1
    52    91    93   ar
    53    91    92   ar
    54    16    18   ar
    55    16    17   ar
    56    37    38    1
    57     5     2    1
    58   108   110   ar
    59   108   109   ar
    60    84    83   ar
    61    67    66    2
    62    18    20   ar
    63   117   116   ar
    64    17    19   ar
    65    75    74    1
    66    83    85   ar
    67   113   114    2
    68   113   112    1
    69     3     2    1
    70    38    41    1
    71    38    39    1
    72     2     1    1
    73    66    74   am
    74    66    65    1
    75    41    42    1
    76    20    19   ar
    77   111   112    1
    78    49    48    1
    79    49    43    1
    80   116   118   ar
    81   116   115    1
    82   112   115    1
    83    39    43   am
    84    39    40    2
    85    48    47    1
    86    65    64    1
    87    65    68    1
    88    43    44    1
    89    59    58    2
    90    68    69    1
    91   131   130    1
    92   131   132    1
    93    47    44    1
    94    44    45    1
    95   134   132   ar
    96   126   127    1
    97    69    71   ar
    98    69    70   ar
    99   130   127    1
   100    58    57    1
   101   132   133   ar
   102    71    73   ar
   103   122   121    2
   104    70    72   ar
   105   127   128    1
   106   125   123    1
   107    50    45   am
   108    50    51    1
   109    45    46    2
   110    55    54    1
   111    73    72   ar
   112    56    57    1
   113    57    60    1
   114   123   124    1
   115   123   120    1
   116   121   120    1
   117   128   129    2
   118    60    61    1
   119    54    51    1
   120    51    52    1
   121    52    53    2
   122   120   119    1
   123    61    63   am
   124    61    62    2
