@<TRIPOS>MOLECULE
tmp/3sl2A00.pdb
 184 176 0 0 0
SMALL
GASTEIGER

@<TRIPOS>ATOM
      1  N        -22.3840   15.7400   -6.7140 N.3    48  ASN48      -0.1225
      2  CA       -21.1250   16.4270   -6.4830 C.3    48  ASN48       0.1785
      3  C        -20.3980   15.8860   -5.2790 C.2    48  ASN48       0.2597
      4  O        -19.1760   15.7350   -5.3160 O.2    48  ASN48      -0.2718
      5  CB       -21.3190   17.9460   -6.3610 C.3    48  ASN48       0.1169
      6  CG       -21.7370   18.5960   -7.6920 C.2    48  ASN48       0.2627
      7  OD1      -21.8850   17.9150   -8.7200 O.2    48  ASN48      -0.2716
      8  ND2      -21.9320   19.8900   -7.6720 N.am   48  ASN48      -0.0877
      9  N        -21.1480   15.5700   -4.2190 N.am   49  ILE49      -0.1980
     10  CA       -20.5590   15.0110   -3.0250 C.3    49  ILE49       0.1595
     11  C        -20.0970   13.5800   -3.2610 C.2    49  ILE49       0.2287
     12  O        -18.9930   13.2060   -2.8580 O.2    49  ILE49      -0.2864
     13  CB       -21.5540   15.0790   -1.8630 C.3    49  ILE49       0.0276
     14  CG1      -21.8370   16.5470   -1.4940 C.3    49  ILE49       0.0022
     15  CG2      -21.0240   14.2880   -0.6630 C.3    49  ILE49       0.0022
     16  CD1      -23.1240   16.6810   -0.6550 C.3    49  ILE49       0.0001
     17  N        -19.3320   12.2560   -6.1700 N.3    51  SER51      -0.1202
     18  CA       -18.2020   12.3090   -7.1080 C.3    51  SER51       0.2020
     19  C        -16.8900   12.5100   -6.3470 C.2    51  SER51       0.2619
     20  O        -15.8850   11.8450   -6.6300 O.2    51  SER51      -0.2717
     21  CB       -18.4170   13.4270   -8.1310 C.3    51  SER51       0.2103
     22  OG       -17.1890   13.9430   -8.6290 O.3    51  SER51      -0.2182
     23  N        -16.9040   13.4100   -5.3680 N.am   52  ASN52      -0.1960
     24  CA       -15.7310   13.6350   -4.5330 C.3    52  ASN52       0.1819
     25  C        -15.3420   12.4120   -3.7080 C.2    52  ASN52       0.2621
     26  O        -14.1760   12.0460   -3.6450 O.2    52  ASN52      -0.2715
     27  CB       -15.9240   14.8320   -3.5980 C.3    52  ASN52       0.1195
     28  CG       -15.9630   16.1700   -4.3310 C.2    52  ASN52       0.2630
     29  OD1      -15.5070   16.3170   -5.4900 O.2    52  ASN52      -0.2716
     30  ND2      -16.5290   17.1610   -3.6540 N.am   52  ASN52      -0.0877
     31  N        -16.3190   11.7900   -3.0570 N.am   53  ALA53      -0.1977
     32  CA       -16.0460   10.6390   -2.2220 C.3    53  ALA53       0.1597
     33  C        -15.3720    9.5390   -3.0090 C.2    53  ALA53       0.2287
     34  O        -14.4320    8.9290   -2.5120 O.2    53  ALA53      -0.2864
     35  CB       -17.3380   10.1260   -1.5770 C.3    53  ALA53       0.0319
     36  N        -13.8010    9.9500   -6.1210 N.3    55  LYS55      -0.1231
     37  CA       -12.5730   10.5150   -6.6860 C.3    55  LYS55       0.1693
     38  C        -11.4100   10.4350   -5.7070 C.2    55  LYS55       0.2592
     39  O        -10.2660   10.1740   -6.1130 O.2    55  LYS55      -0.2718
     40  CB       -12.8180   11.9790   -7.0730 C.3    55  LYS55       0.0285
     41  CG       -11.7750   12.6690   -7.9300 C.3    55  LYS55       0.0035
     42  CD       -12.2700   14.0580   -8.2960 C.3    55  LYS55       0.0206
     43  CE       -11.4020   14.7590   -9.3350 C.3    55  LYS55       0.1093
     44  NZ       -11.9510   16.1290   -9.6090 N.3    55  LYS55      -0.1314
     45  N        -11.7060   10.6260   -4.4250 N.am   56  TYR56      -0.1976
     46  CA       -10.6900   10.7520   -3.3890 C.3    56  TYR56       0.1639
     47  C        -10.5870    9.5250   -2.4840 C.2    56  TYR56       0.2290
     48  O         -9.9230    9.5760   -1.4480 O.2    56  TYR56      -0.2864
     49  CB       -10.9130   12.0570   -2.5780 C.3    56  TYR56       0.0560
     50  CG       -10.8860   13.3200   -3.4300 C.ar   56  TYR56      -0.0198
     51  CD1       -9.7150   13.7420   -4.0760 C.ar   56  TYR56      -0.0009
     52  CD2      -12.0320   14.0910   -3.5950 C.ar   56  TYR56      -0.0009
     53  CE1       -9.7070   14.8940   -4.8700 C.ar   56  TYR56       0.0417
     54  CE2      -12.0300   15.2340   -4.3790 C.ar   56  TYR56       0.0417
     55  CZ       -10.8630   15.6340   -5.0150 C.ar   56  TYR56       0.1957
     56  OH       -10.8720   16.7700   -5.7900 O.3    56  TYR56      -0.2866
     57  N        -16.5690    8.8750    3.6420 N.3    82  ASP82      -0.1239
     58  CA       -15.5790    8.0780    2.8920 C.3    82  ASP82       0.1674
     59  C        -14.3750    7.7770    3.7790 C.2    82  ASP82       0.2266
     60  O        -14.2290    8.3460    4.8750 O.2    82  ASP82      -0.2867
     61  CB       -15.1910    8.8130    1.5870 C.3    82  ASP82       0.1410
     62  CG       -14.3870   10.0820    1.8270 C.2    82  ASP82       0.3668
     63  OD1      -13.2980    9.9990    2.4020 O.co2  82  ASP82      -0.2456
     64  OD2      -14.8250   11.1740    1.4120 O.co2  82  ASP82      -0.2456
     65  N         -8.4680   10.0760    1.3150 N.3    85  ILE85      -0.1231
     66  CA        -7.2880   10.8420    1.7070 C.3    85  ILE85       0.1692
     67  C         -7.5310   11.8760    2.8060 C.2    85  ILE85       0.2593
     68  O         -6.5960   12.2650    3.5000 O.2    85  ILE85      -0.2718
     69  CB        -6.5810   11.4870    0.4900 C.3    85  ILE85       0.0266
     70  CG1       -7.5110   12.4580   -0.2560 C.3    85  ILE85       0.0019
     71  CG2       -6.0210   10.4110   -0.4390 C.3    85  ILE85       0.0020
     72  CD1       -6.7580   13.3080   -1.2970 C.3    85  ILE85       0.0001
     73  N         -8.7790   12.3230    2.9630 N.am   86  GLY86      -0.1942
     74  CA        -9.0980   13.3020    3.9920 C.3    86  GLY86       0.2014
     75  C         -8.6880   14.7010    3.5810 C.2    86  GLY86       0.2638
     76  O         -8.2500   14.9220    2.4540 O.2    86  GLY86      -0.2714
     77  N         -8.8380   15.6460    4.5040 N.am   87  ILE87      -0.1977
     78  CA        -8.5920   17.0560    4.2170 C.3    87  ILE87       0.1596
     79  C         -7.7600   17.6840    5.3350 C.2    87  ILE87       0.2287
     80  O         -8.0810   17.5030    6.5070 O.2    87  ILE87      -0.2864
     81  CB        -9.9270   17.8300    4.0350 C.3    87  ILE87       0.0276
     82  CG1      -10.8030   17.1450    2.9740 C.3    87  ILE87       0.0022
     83  CG2       -9.6710   19.2980    3.6670 C.3    87  ILE87       0.0022
     84  CD1      -12.2080   17.6920    2.8520 C.3    87  ILE87       0.0001
     85  N        -13.1750   24.2850    1.8700 N.3    95  VAL95      -0.1245
     86  CA       -13.4550   23.3900    0.7350 C.3    95  VAL95       0.1561
     87  C        -14.7490   23.7280   -0.0030 C.2    95  VAL95       0.2260
     88  O        -14.9150   23.3270   -1.1550 O.2    95  VAL95      -0.2867
     89  CB       -13.3560   21.8780    1.0600 C.3    95  VAL95       0.0252
     90  CG1      -11.8460   21.4890    1.3070 C.3    95  VAL95       0.0019
     91  CG2      -14.3090   21.4890    2.2090 C.3    95  VAL95       0.0019
     92  N        -11.9050   26.8170   -4.7620 N.3   100  TYR100     -0.1227
     93  CA       -10.9340   26.2930   -3.8060 C.3   100  TYR100      0.1736
     94  C        -10.6690   24.7950   -3.9950 C.2   100  TYR100      0.2595
     95  O        -11.6010   23.9790   -4.0190 O.2   100  TYR100     -0.2718
     96  CB       -11.2860   26.6170   -2.3340 C.3   100  TYR100      0.0548
     97  CG       -10.1870   26.1410   -1.4120 C.ar  100  TYR100     -0.0200
     98  CD1      -10.1980   24.8440   -0.8930 C.ar  100  TYR100     -0.0009
     99  CD2       -9.0800   26.9580   -1.1320 C.ar  100  TYR100     -0.0009
    100  CE1       -9.1610   24.3830   -0.0800 C.ar  100  TYR100      0.0417
    101  CE2       -8.0290   26.5010   -0.3140 C.ar  100  TYR100      0.0417
    102  CZ        -8.0860   25.2150    0.2030 C.ar  100  TYR100      0.1957
    103  OH        -7.0630   24.7500    0.9970 O.3   100  TYR100     -0.2866
    104  N         -9.3840   24.4600   -4.1950 N.am  101  ARG101     -0.1966
    105  CA        -8.9170   23.0760   -4.1840 C.3   101  ARG101      0.1729
    106  C         -7.7470   22.9280   -3.2040 C.2   101  ARG101      0.2616
    107  O         -6.9350   23.8410   -3.0710 O.2   101  ARG101     -0.2715
    108  CB        -8.4790   22.6610   -5.5980 C.3   101  ARG101      0.0348
    109  CG        -9.6020   22.6930   -6.6440 C.3   101  ARG101      0.0492
    110  CD        -9.1570   22.1020   -7.9640 C.3   101  ARG101      0.2205
    111  NE        -7.9750   22.8030   -8.4430 N.pl3 101  ARG101     -0.0865
    112  CZ        -6.9400   22.2100   -9.0210 C.cat 101  ARG101      0.5346
    113  NH1       -6.9430   20.8910   -9.2060 N.pl3 101  ARG101      0.1354
    114  NH2       -5.9050   22.9400   -9.4110 N.pl3 101  ARG101      0.1354
    115  N         -7.6320   21.7820   -2.5360 N.am  102  VAL102     -0.1963
    116  CA        -6.5530   21.6080   -1.5450 C.3   102  VAL102      0.1727
    117  C         -5.1580   21.7810   -2.1760 C.2   102  VAL102      0.2616
    118  O         -4.2460   22.3490   -1.5530 O.2   102  VAL102     -0.2715
    119  CB        -6.6740   20.2930   -0.7540 C.3   102  VAL102      0.0290
    120  CG1       -5.4130   20.0130    0.0640 C.3   102  VAL102      0.0023
    121  CG2       -7.8870   20.3660    0.1730 C.3   102  VAL102      0.0023
    122  N         -5.0000   21.3330   -3.4150 N.am  103  ASP103     -0.1971
    123  CA        -3.7580   21.6470   -4.1350 C.3   103  ASP103      0.1709
    124  C         -3.9630   22.2110   -5.5430 C.2   103  ASP103      0.2293
    125  O         -4.7070   21.6430   -6.3480 O.2   103  ASP103     -0.2864
    126  CB        -2.8140   20.4470   -4.1330 C.3   103  ASP103      0.1436
    127  CG        -1.9450   20.4000   -2.8880 C.2   103  ASP103      0.3671
    128  OD1       -0.8630   21.0260   -2.8960 O.co2 103  ASP103     -0.2456
    129  OD2       -2.3480   19.7430   -1.9030 O.co2 103  ASP103     -0.2456
    130  N         -7.8760   22.1150  -12.2270 N.3   106  GLY106     -0.1210
    131  CA        -9.2100   21.6940  -11.7770 C.3   106  GLY106      0.1956
    132  C        -10.1230   22.8540  -11.4750 C.2   106  GLY106      0.2613
    133  O         -9.6570   23.9660  -11.2570 O.2   106  GLY106     -0.2717
    134  N        -11.4250   22.5820  -11.3610 N.am  107  THR107     -0.1938
    135  CA       -12.4030   23.6620  -11.2990 C.3   107  THR107      0.2028
    136  C        -12.6210   24.1610   -9.8880 C.2   107  THR107      0.2643
    137  O        -12.5490   25.3600   -9.6380 O.2   107  THR107     -0.2714
    138  CB       -13.7250   23.2620  -11.9700 C.3   107  THR107      0.1808
    139  OG1      -13.4550   22.9570  -13.3400 O.3   107  THR107     -0.2208
    140  CG2      -14.7110   24.4030  -11.9430 C.3   107  THR107      0.0379
    141  N        -12.9010   23.2200   -8.9800 N.am  108  GLY108     -0.1939
    142  CA       -13.1800   23.5500   -7.5540 C.3   108  GLY108      0.2014
    143  C        -14.5180   24.2230   -7.3010 C.2   108  GLY108      0.2639
    144  O        -14.6460   25.0520   -6.4020 O.2   108  GLY108     -0.2714
    145  N        -15.5190   23.8710   -8.0870 N.am  109  LEU109     -0.1963
    146  CA       -16.8810   24.3770   -7.8530 C.3   109  LEU109      0.1728
    147  C        -17.8940   23.3590   -7.3140 C.2   109  LEU109      0.2617
    148  O        -18.9440   23.7920   -6.8460 O.2   109  LEU109     -0.2715
    149  CB       -17.4230   25.0160   -9.1380 C.3   109  LEU109      0.0311
    150  CG       -16.7590   26.3450   -9.4590 C.3   109  LEU109      0.0022
    151  CD1      -17.2340   26.7640  -10.8430 C.3   109  LEU109      0.0001
    152  CD2      -17.0440   27.4510   -8.4500 C.3   109  LEU109      0.0001
    153  N        -17.6020   22.0500   -7.3720 N.am  110  GLY110     -0.1940
    154  CA       -18.5690   21.0120   -6.9540 C.3   110  GLY110      0.2014
    155  C        -19.1910   21.3270   -5.6100 C.2   110  GLY110      0.2639
    156  O        -20.4090   21.3110   -5.4700 O.2   110  GLY110     -0.2714
    157  N        -18.3410   21.6350   -4.6480 N.am  111  LEU111     -0.1963
    158  CA       -18.8610   21.8410   -3.2830 C.3   111  LEU111      0.1728
    159  C        -19.4250   23.2290   -3.0740 C.2   111  LEU111      0.2616
    160  O        -20.2770   23.4460   -2.1850 O.2   111  LEU111     -0.2715
    161  CB       -17.7920   21.5390   -2.2570 C.3   111  LEU111      0.0311
    162  CG       -17.4590   20.0880   -2.0040 C.3   111  LEU111      0.0022
    163  CD1      -16.4680   20.0560   -0.8640 C.3   111  LEU111      0.0001
    164  CD2      -18.7310   19.2620   -1.6260 C.3   111  LEU111      0.0001
    165  N        -18.9800   24.1840   -3.9000 N.am  112  ALA112     -0.1977
    166  CA       -19.5970   25.4950   -3.8560 C.3   112  ALA112      0.1597
    167  C        -21.0310   25.4490   -4.3620 C.2   112  ALA112      0.2287
    168  O        -21.9270   26.0960   -3.8070 O.2   112  ALA112     -0.2864
    169  CB       -18.7680   26.4730   -4.6900 C.3   112  ALA112      0.0319
    170  N        -13.3300   11.5150    5.1230 N.3   135  THR135     -0.1218
    171  CA       -14.1460   12.7430    5.1580 C.3   135  THR135      0.1862
    172  C        -15.6240   12.3850    5.2370 C.2   135  THR135      0.2287
    173  O        -16.0940   11.4680    4.5510 O.2   135  THR135     -0.2866
    174  CB       -13.8900   13.6300    3.8990 C.3   135  THR135      0.1770
    175  OG1      -12.4910   13.9440    3.8110 O.3   135  THR135     -0.2211
    176  CG2      -14.7090   14.9460    3.9130 C.3   135  THR135      0.0375
    177  N        -19.1190   14.5560    4.5730 N.3   137  ILE137     -0.1245
    178  CA       -19.8510   15.7640    4.2260 C.3   137  ILE137      0.1561
    179  C        -21.2810   15.6040    4.7060 C.2   137  ILE137      0.2260
    180  O        -21.9210   14.5940    4.4090 O.2   137  ILE137     -0.2867
    181  CB       -19.8790   16.0160    2.6840 C.3   137  ILE137      0.0252
    182  CG1      -18.4520   16.0530    2.0830 C.3   137  ILE137      0.0019
    183  CG2      -20.6640   17.3150    2.3750 C.3   137  ILE137      0.0019
    184  CD1      -17.5530   17.1540    2.6020 C.3   137  ILE137      0.0001
@<TRIPOS>BOND
     1   139   138    1
     2   130   131    1
     3   138   140    1
     4   138   135    1
     5   131   132    1
     6   132   134   am
     7   132   133    2
     8   134   135    1
     9   135   136    1
    10   151   150    1
    11   136   137    2
    12   136   141   am
    13    44    43    1
    14   150   149    1
    15   150   152    1
    16   114   112    1
    17    43    42    1
    18   113   112    1
    19   149   146    1
    20   112   111    2
    21   141   142    1
    22     7     6    2
    23    22    21    1
    24   111   110    1
    25    42    41    1
    26    21    18    1
    27   145   146    1
    28   145   143   am
    29   110   109    1
    30    41    40    1
    31   146   147    1
    32     6     8   am
    33     6     5    1
    34   142   143    1
    35   153   147   am
    36   153   154    1
    37   147   148    2
    38   143   144    2
    39    18    19    1
    40    18    17    1
    41    40    37    1
    42   154   155    1
    43     1     2    1
    44    37    36    1
    45    37    38    1
    46   109   108    1
    47    20    19    2
    48     2     5    1
    49     2     3    1
    50   125   124    2
    51    19    23   am
    52    39    38    2
    53    56    55    1
    54    38    45   am
    55   155   156    2
    56   155   157   am
    57   108   105    1
    58   124   123    1
    59    29    28    2
    60    23    24    1
    61     4     3    2
    62     3     9   am
    63    55    53   ar
    64    55    54   ar
    65    53    51   ar
    66    92    93    1
    67   169   166    1
    68   157   158    1
    69    24    25    1
    70    24    27    1
    71    45    46    1
    72    54    52   ar
    73   167   166    1
    74   167   168    2
    75    28    30   am
    76    28    27    1
    77     9    10    1
    78   104   105    1
    79   104    94   am
    80   105   106    1
    81   123   126    1
    82   123   122    1
    83   126   127    1
    84    51    50   ar
    85    95    94    2
    86    94    93    1
    87   165   166    1
    88   165   159   am
    89    93    96    1
    90    25    26    2
    91    25    31   am
    92    52    50   ar
    93    50    49    1
    94   122   117   am
    95    46    49    1
    96    46    47    1
    97   158   159    1
    98   158   161    1
    99    11    10    1
   100    11    12    2
   101   106   107    2
   102   106   115   am
   103   159   160    2
   104    31    32    1
   105    10    13    1
   106    33    34    2
   107    33    32    1
   108   128   127   ar
   109   127   129   ar
   110   115   116    1
   111    47    48    2
   112    96    97    1
   113   161   162    1
   114    32    35    1
   115   117   118    2
   116   117   116    1
   117   162   164    1
   118   162   163    1
   119    13    14    1
   120    13    15    1
   121   116   119    1
   122    14    16    1
   123    97    99   ar
   124    97    98   ar
   125    72    70    1
   126    88    87    2
   127    99   101   ar
   128    98   100   ar
   129   119   120    1
   130   119   121    1
   131    71    69    1
   132   101   102   ar
   133    70    69    1
   134   100   102   ar
   135    87    86    1
   136   102   103    1
   137    69    66    1
   138    86    89    1
   139    86    85    1
   140    89    90    1
   141    89    91    1
   142    65    66    1
   143    64    62   ar
   144    61    62    1
   145    61    58    1
   146    66    67    1
   147    62    63   ar
   148   182   184    1
   149   182   181    1
   150   183   181    1
   151    76    75    2
   152   181   178    1
   153    67    73   am
   154    67    68    2
   155    84    82    1
   156    58    57    1
   157    58    59    1
   158    73    74    1
   159    82    81    1
   160    75    74    1
   161    75    77   am
   162    83    81    1
   163    59    60    2
   164   175   174    1
   165   174   176    1
   166   174   171    1
   167    81    78    1
   168    78    77    1
   169    78    79    1
   170   178   177    1
   171   178   179    1
   172   180   179    2
   173   173   172    2
   174   170   171    1
   175   171   172    1
   176    79    80    2
