@<TRIPOS>MOLECULE
tmp/3sl3D00.pdb
 85 80 0 0 0
SMALL
GASTEIGER

@<TRIPOS>ATOM
      1  N         38.9740   -0.6360   -4.3750 N.3   118  PRO118     -0.2116
      2  CA        39.5320   -1.7980   -5.0870 C.3   118  PRO118      0.1372
      3  C         38.6610   -2.3030   -6.2450 C.2   118  PRO118      0.2244
      4  O         39.0720   -3.1980   -6.9720 O.2   118  PRO118     -0.2868
      5  CB        39.5950   -2.8640   -3.9910 C.3   118  PRO118      0.0268
      6  CG        38.4160   -2.4810   -3.0690 C.3   118  PRO118      0.0207
      7  CD        38.5490   -0.9800   -3.0040 C.3   118  PRO118      0.0892
      8  N         35.6720   -3.8020   -5.9470 N.3   120  VAL120     -0.1245
      9  CA        34.7570   -4.8720   -5.5330 C.3   120  VAL120      0.1561
     10  C         33.8880   -4.3750   -4.3900 C.2   120  VAL120      0.2260
     11  O         34.3030   -3.5130   -3.6160 O.2   120  VAL120     -0.2867
     12  CB        35.4900   -6.1690   -5.0920 C.3   120  VAL120      0.0252
     13  CG1       36.1240   -6.8470   -6.2800 C.3   120  VAL120      0.0019
     14  CG2       36.5330   -5.8660   -4.0240 C.3   120  VAL120      0.0019
     15  N         31.8590   -8.5270   -1.1460 N.3   124  PHE124     -0.1227
     16  CA        32.9970   -9.3030   -1.6200 C.3   124  PHE124      0.1736
     17  C         34.1130   -9.2740   -0.5870 C.2   124  PHE124      0.2595
     18  O         34.6730  -10.3140   -0.2670 O.2   124  PHE124     -0.2718
     19  CB        33.4850   -8.8180   -2.9870 C.3   124  PHE124      0.0547
     20  CG        34.6380   -9.6200   -3.5510 C.ar  124  PHE124     -0.0202
     21  CD1       35.9020   -9.5470   -2.9810 C.ar  124  PHE124     -0.0042
     22  CD2       34.4620  -10.4190   -4.6720 C.ar  124  PHE124     -0.0042
     23  CE1       36.9620  -10.2770   -3.5030 C.ar  124  PHE124     -0.0003
     24  CE2       35.5250  -11.1460   -5.2020 C.ar  124  PHE124     -0.0003
     25  CZ        36.7730  -11.0730   -4.6100 C.ar  124  PHE124     -0.0000
     26  N         34.4070   -8.0950   -0.0420 N.am  125  LEU125     -0.1980
     27  CA        35.4760   -7.9440    0.9550 C.3   125  LEU125      0.1596
     28  C         35.1800   -8.7050    2.2440 C.2   125  LEU125      0.2287
     29  O         36.0820   -9.2520    2.8850 O.2   125  LEU125     -0.2864
     30  CB        35.7340   -6.4650    1.2790 C.3   125  LEU125      0.0297
     31  CG        36.2770   -5.5630    0.1570 C.3   125  LEU125      0.0022
     32  CD1       36.5100   -4.1270    0.6780 C.3   125  LEU125      0.0001
     33  CD2       37.5420   -6.1300   -0.4450 C.3   125  LEU125      0.0001
     34  N         35.4000  -12.6500    1.4140 N.3   128  THR128     -0.1218
     35  CA        36.7670  -13.1300    1.2180 C.3   128  THR128      0.1862
     36  C         37.5320  -13.0280    2.5260 C.2   128  THR128      0.2287
     37  O         38.6960  -13.3970    2.6010 O.2   128  THR128     -0.2866
     38  CB        37.5370  -12.3560    0.1240 C.3   128  THR128      0.1770
     39  OG1       37.6120  -10.9620    0.4730 O.3   128  THR128     -0.2211
     40  CG2       36.8640  -12.5280   -1.2370 C.3   128  THR128      0.0375
     41  N         38.6670  -10.4490    3.9580 N.3   130  SER130     -0.1202
     42  CA        39.7500   -9.4910    3.7690 C.3   130  SER130      0.2020
     43  C         40.1260   -8.7340    5.0390 C.2   130  SER130      0.2619
     44  O         39.3000   -8.5140    5.9340 O.2   130  SER130     -0.2717
     45  CB        39.3270   -8.4720    2.7170 C.3   130  SER130      0.2103
     46  OG        38.4530   -7.5430    3.3240 O.3   130  SER130     -0.2182
     47  N         41.3790   -8.3010    5.0900 N.am  131  GLU131     -0.1965
     48  CA        41.8930   -7.5070    6.2050 C.3   131  GLU131      0.1733
     49  C         41.1430   -6.1700    6.4110 C.2   131  GLU131      0.2616
     50  O         41.0140   -5.6840    7.5260 O.2   131  GLU131     -0.2715
     51  CB        43.3860   -7.2530    5.9850 C.3   131  GLU131      0.0429
     52  CG        44.0580   -6.3520    7.0010 C.3   131  GLU131      0.1163
     53  CD        45.4900   -6.0210    6.6050 C.2   131  GLU131      0.3649
     54  OE1       45.8840   -6.3500    5.4570 O.co2 131  GLU131     -0.2457
     55  OE2       46.2190   -5.4340    7.4370 O.co2 131  GLU131     -0.2457
     56  N         40.6580   -5.5830    5.3250 N.am  132  LEU132     -0.1977
     57  CA        39.8560   -4.3650    5.4110 C.3   132  LEU132      0.1596
     58  C         38.5000   -4.7010    6.0570 C.2   132  LEU132      0.2287
     59  O         38.0620   -4.0180    6.9810 O.2   132  LEU132     -0.2864
     60  CB        39.6670   -3.7670    4.0120 C.3   132  LEU132      0.0297
     61  CG        39.7120   -2.2470    3.8230 C.3   132  LEU132      0.0022
     62  CD1       40.8330   -1.6070    4.6190 C.3   132  LEU132      0.0001
     63  CD2       39.8430   -1.9140    2.3430 C.3   132  LEU132      0.0001
     64  N         35.8190  -12.8930  -10.5560 N.3   259  ARG259     -0.1245
     65  CA        36.6050  -13.2140   -9.3660 C.3   259  ARG259      0.1563
     66  C         35.7980  -14.0760   -8.4050 C.2   259  ARG259      0.2260
     67  O         36.3560  -14.8690   -7.6490 O.2   259  ARG259     -0.2867
     68  CB        37.1050  -11.9520   -8.6510 C.3   259  ARG259      0.0307
     69  CG        38.2700  -11.2400   -9.3490 C.3   259  ARG259      0.0489
     70  CD        38.5890   -9.8820   -8.7060 C.3   259  ARG259      0.2205
     71  NE        39.4110   -9.9530   -7.4880 N.pl3 259  ARG259     -0.0865
     72  CZ        39.8220   -8.8820   -6.7970 C.cat 259  ARG259      0.5346
     73  NH1       39.4810   -7.6620   -7.1990 N.pl3 259  ARG259      0.1354
     74  NH2       40.5710   -9.0190   -5.7020 N.pl3 259  ARG259      0.1354
     75  N         37.0360  -17.7580   -7.2820 N.3   263  ARG263     -0.1245
     76  CA        37.2840  -17.9360   -5.8570 C.3   263  ARG263      0.1563
     77  C         36.3490  -18.9850   -5.2680 C.2   263  ARG263      0.2260
     78  O         36.4720  -19.3560   -4.0970 O.2   263  ARG263     -0.2867
     79  CB        37.1230  -16.5990   -5.1280 C.3   263  ARG263      0.0307
     80  CG        38.0080  -16.4310   -3.9050 C.3   263  ARG263      0.0489
     81  CD        38.6760  -15.0640   -3.9300 C.3   263  ARG263      0.2205
     82  NE        39.0550  -14.7210   -5.2960 N.pl3 263  ARG263     -0.0865
     83  CZ        39.7650  -13.6540   -5.6360 C.cat 263  ARG263      0.5346
     84  NH1       40.1950  -12.8060   -4.7050 N.pl3 263  ARG263      0.1354
     85  NH2       40.0490  -13.4430   -6.9140 N.pl3 263  ARG263      0.1354
@<TRIPOS>BOND
     1    64    65    1
     2    65    68    1
     3    65    66    1
     4    69    70    1
     5    69    68    1
     6    70    71    1
     7    66    67    2
     8    71    72    2
     9    75    76    1
    10    73    72    1
    11     4     3    2
    12    85    83    1
    13    72    74    1
    14    13    12    1
    15     3     2    1
    16     8     9    1
    17    76    77    1
    18    76    79    1
    19    83    82    2
    20    83    84    1
    21     9    12    1
    22     9    10    1
    23    82    81    1
    24    77    78    2
    25    24    22   ar
    26    24    25   ar
    27    79    80    1
    28    12    14    1
    29     2     1    1
    30     2     5    1
    31    22    20   ar
    32    25    23   ar
    33    10    11    2
    34     1     7    1
    35     5     6    1
    36    81    80    1
    37    20    19    1
    38    20    21   ar
    39    23    21   ar
    40     6     7    1
    41    19    16    1
    42    16    15    1
    43    16    17    1
    44    40    38    1
    45    17    18    2
    46    17    26   am
    47    33    31    1
    48    26    27    1
    49    38    39    1
    50    38    35    1
    51    31    32    1
    52    31    30    1
    53    27    30    1
    54    27    28    1
    55    35    34    1
    56    35    36    1
    57    28    29    2
    58    63    61    1
    59    36    37    2
    60    45    46    1
    61    45    42    1
    62    42    41    1
    63    42    43    1
    64    61    60    1
    65    61    62    1
    66    60    57    1
    67    43    47   am
    68    43    44    2
    69    47    48    1
    70    56    57    1
    71    56    49   am
    72    57    58    1
    73    54    53   ar
    74    51    48    1
    75    51    52    1
    76    58    59    2
    77    48    49    1
    78    49    50    2
    79    53    52    1
    80    53    55   ar
