@<TRIPOS>MOLECULE
tmp/3sl4D04.pdb
 177 173 0 0 0
SMALL
GASTEIGER

@<TRIPOS>ATOM
      1  N         14.5190   -1.8260  -13.1140 N.3    72  TYR72      -0.1227
      2  CA        15.4570   -2.8650  -12.6800 C.3    72  TYR72       0.1736
      3  C         14.9730   -3.6770  -11.4740 C.2    72  TYR72       0.2595
      4  O         14.9070   -4.9220  -11.5180 O.2    72  TYR72      -0.2718
      5  CB        16.8370   -2.2600  -12.3980 C.3    72  TYR72       0.0548
      6  CG        17.8530   -3.2770  -11.9640 C.ar   72  TYR72      -0.0200
      7  CD1       18.5870   -4.0010  -12.9030 C.ar   72  TYR72      -0.0009
      8  CD2       18.0740   -3.5310  -10.6160 C.ar   72  TYR72      -0.0009
      9  CE1       19.5070   -4.9510  -12.5060 C.ar   72  TYR72       0.0417
     10  CE2       18.9890   -4.4820  -10.2080 C.ar   72  TYR72       0.0417
     11  CZ        19.7070   -5.1900  -11.1560 C.ar   72  TYR72       0.1957
     12  OH        20.6370   -6.1230  -10.7570 O.3    72  TYR72      -0.2866
     13  N         14.6680   -2.9800  -10.3850 N.am   73  HIS73      -0.1975
     14  CA        14.3150   -3.6490   -9.1200 C.3    73  HIS73       0.1656
     15  C         12.8990   -4.1990   -9.1240 C.2    73  HIS73       0.2291
     16  O         12.0710   -3.8140   -8.2920 O.2    73  HIS73      -0.2864
     17  CB        14.5100   -2.7010   -7.9260 C.3    73  HIS73       0.0771
     18  CG        15.9480   -2.4790   -7.5730 C.ar   73  HIS73       0.0820
     19  ND1       16.6350   -1.3360   -7.9220 N.ar   73  HIS73      -0.2267
     20  CD2       16.8430   -3.2800   -6.9470 C.ar   73  HIS73       0.1154
     21  CE1       17.8840   -1.4330   -7.5030 C.ar   73  HIS73       0.1986
     22  NE2       18.0400   -2.6070   -6.9210 N.ar   73  HIS73      -0.2212
     23  N         23.9930   -2.4670    0.0660 N.3   186  MET186     -0.1245
     24  CA        25.3430   -2.1990   -0.4550 C.3   186  MET186      0.1570
     25  C         26.2790   -1.5340    0.5770 C.2   186  MET186      0.2261
     26  O         27.5100   -1.6460    0.4790 O.2   186  MET186     -0.2867
     27  CB        25.2930   -1.3660   -1.7430 C.3   186  MET186      0.0387
     28  CG        24.9980   -2.1510   -3.0160 C.3   186  MET186      0.0595
     29  SD        26.2730   -3.3610   -3.4560 S.3   186  MET186     -0.1393
     30  CE        27.7890   -2.5010   -3.0250 C.3   186  MET186      0.0692
     31  N         22.9020  -11.2200   -6.2510 N.3   231  ASP231     -0.1225
     32  CA        22.4000   -9.8560   -6.4310 C.3   231  ASP231      0.1805
     33  C         23.3160   -9.0190   -7.3440 C.2   231  ASP231      0.2597
     34  O         22.8570   -8.1360   -8.0710 O.2   231  ASP231     -0.2718
     35  CB        22.3340   -9.1820   -5.0630 C.3   231  ASP231      0.1424
     36  CG        21.2210   -8.1440   -4.9520 C.2   231  ASP231      0.3668
     37  OD1       20.4180   -7.9780   -5.8910 O.co2 231  ASP231     -0.2456
     38  OD2       21.1630   -7.4950   -3.8930 O.co2 231  ASP231     -0.2456
     39  N         24.6170   -9.2920   -7.2950 N.am  232  LEU232     -0.1979
     40  CA        25.5840   -8.5360   -8.0980 C.3   232  LEU232      0.1596
     41  C         26.1240   -9.3940   -9.2350 C.2   232  LEU232      0.2287
     42  O         27.2930   -9.2620   -9.6190 O.2   232  LEU232     -0.2864
     43  CB        26.7510   -8.0580   -7.2270 C.3   232  LEU232      0.0297
     44  CG        26.4100   -6.9990   -6.1770 C.3   232  LEU232      0.0022
     45  CD1       27.6750   -6.5290   -5.4810 C.3   232  LEU232      0.0001
     46  CD2       25.6690   -5.8290   -6.8060 C.3   232  LEU232      0.0001
     47  N         24.8870   -9.6670  -12.4510 N.3   234  ASN234     -0.1226
     48  CA        24.5640   -9.2270  -13.8110 C.3   234  ASN234      0.1770
     49  C         25.7760   -9.2090  -14.7530 C.2   234  ASN234      0.2439
     50  O         25.6890   -9.7060  -15.8740 O.2   234  ASN234     -0.2733
     51  CB        23.8670   -7.8490  -13.8340 C.3   234  ASN234      0.1168
     52  CG        22.4420   -7.8840  -13.2740 C.2   234  ASN234      0.2627
     53  OD1       21.9210   -6.8660  -12.8490 O.2   234  ASN234     -0.2716
     54  ND2       21.8100   -9.0480  -13.3000 N.am  234  ASN234     -0.0877
     55  N         26.9100   -8.6540  -14.2940 N.am  235  PRO235     -0.2729
     56  CA        28.0830   -8.5630  -15.1780 C.3   235  PRO235      0.1401
     57  C         28.7720   -9.9040  -15.3970 C.2   235  PRO235      0.2269
     58  O         29.7060   -9.9560  -16.1950 O.2   235  PRO235     -0.2865
     59  CB        29.0250   -7.6030  -14.4240 C.3   235  PRO235      0.0296
     60  CG        28.1050   -6.8450  -13.4770 C.3   235  PRO235      0.0237
     61  CD        27.1050   -7.8810  -13.0550 C.3   235  PRO235      0.0939
     62  N         23.6220   -9.2480  -19.6460 N.3   242  TYR242     -0.1241
     63  CA        24.2750   -8.1410  -18.9530 C.3   242  TYR242      0.1605
     64  C         23.8620   -6.7780  -19.5320 C.2   242  TYR242      0.2264
     65  O         23.5580   -5.8440  -18.7950 O.2   242  TYR242     -0.2867
     66  CB        25.7880   -8.3320  -19.0490 C.3   242  TYR242      0.0534
     67  CG        26.6380   -7.2960  -18.3500 C.ar  242  TYR242     -0.0201
     68  CD1       26.1210   -6.4720  -17.3550 C.ar  242  TYR242     -0.0009
     69  CD2       27.9780   -7.1520  -18.6850 C.ar  242  TYR242     -0.0009
     70  CE1       26.9280   -5.5240  -16.7240 C.ar  242  TYR242      0.0417
     71  CE2       28.7830   -6.2110  -18.0630 C.ar  242  TYR242      0.0417
     72  CZ        28.2620   -5.4030  -17.0930 C.ar  242  TYR242      0.1957
     73  OH        29.0940   -4.4830  -16.4950 O.3   242  TYR242     -0.2866
     74  N         20.4400   -5.7070  -18.5690 N.3   245  TRP245     -0.1227
     75  CA        20.4200   -5.3330  -17.1570 C.3   245  TRP245      0.1737
     76  C         21.0200   -3.9440  -16.9700 C.2   245  TRP245      0.2596
     77  O         20.4940   -3.1190  -16.2140 O.2   245  TRP245     -0.2718
     78  CB        21.1630   -6.3560  -16.2760 C.3   245  TRP245      0.0564
     79  CG        20.4250   -7.6470  -16.0670 C.ar  245  TRP245      0.0003
     80  CD1       20.8720   -8.9030  -16.3570 C.ar  245  TRP245      0.0946
     81  CD2       19.1120   -7.8090  -15.5070 C.ar  245  TRP245      0.0152
     82  NE1       19.9140   -9.8330  -16.0330 N.ar  245  TRP245     -0.2442
     83  CE2       18.8270   -9.1860  -15.5030 C.ar  245  TRP245      0.0810
     84  CE3       18.1490   -6.9190  -15.0230 C.ar  245  TRP245      0.0012
     85  CZ2       17.6260   -9.6990  -15.0230 C.ar  245  TRP245      0.0191
     86  CZ3       16.9520   -7.4340  -14.5370 C.ar  245  TRP245      0.0001
     87  CH2       16.7020   -8.8060  -14.5520 C.ar  245  TRP245      0.0015
     88  N         22.1220   -3.6750  -17.6630 N.am  246  THR246     -0.1953
     89  CA        22.6840   -2.3250  -17.6340 C.3   246  THR246      0.1897
     90  C         21.6860   -1.2640  -18.1230 C.2   246  THR246      0.2313
     91  O         21.5600   -0.1980  -17.5200 O.2   246  THR246     -0.2863
     92  CB        23.9820   -2.2220  -18.4440 C.3   246  THR246      0.1794
     93  OG1       24.9430   -3.1350  -17.9010 O.3   246  THR246     -0.2208
     94  CG2       24.5460   -0.7940  -18.3470 C.3   246  THR246      0.0378
     95  N         19.0550   -0.7510  -15.2940 N.3   249  ILE249     -0.1231
     96  CA        19.4470   -0.0550  -14.0790 C.3   249  ILE249      0.1692
     97  C         19.7670    1.4200  -14.3620 C.2   249  ILE249      0.2591
     98  O         19.5270    2.2920  -13.5180 O.2   249  ILE249     -0.2718
     99  CB        20.5930   -0.7560  -13.3120 C.3   249  ILE249      0.0266
    100  CG1       20.5800   -0.3120  -11.8440 C.3   249  ILE249      0.0019
    101  CG2       21.9600   -0.5040  -13.9630 C.3   249  ILE249      0.0020
    102  CD1       21.6390   -0.9910  -11.0040 C.3   249  ILE249      0.0001
    103  N         20.2880    1.7080  -15.5500 N.am  250  MET250     -0.1979
    104  CA        20.5750    3.1030  -15.8830 C.3   250  MET250      0.1605
    105  C         19.2580    3.8540  -16.0740 C.2   250  MET250      0.2287
    106  O         19.1450    5.0240  -15.7060 O.2   250  MET250     -0.2864
    107  CB        21.4690    3.2030  -17.1230 C.3   250  MET250      0.0413
    108  CG        22.9070    2.7190  -16.9000 C.3   250  MET250      0.0598
    109  SD        23.7240    3.2850  -15.3810 S.3   250  MET250     -0.1393
    110  CE        23.4780    5.0620  -15.4780 C.3   250  MET250      0.0692
    111  N         18.2180    4.5590  -12.5500 N.3   253  PHE253     -0.1241
    112  CA        19.0690    5.6140  -12.0070 C.3   253  PHE253      0.1605
    113  C         18.7290    6.9810  -12.6110 C.2   253  PHE253      0.2264
    114  O         18.6020    7.9610  -11.8860 O.2   253  PHE253     -0.2867
    115  CB        20.5460    5.2850  -12.2220 C.3   253  PHE253      0.0534
    116  CG        21.0870    4.2570  -11.2600 C.ar  253  PHE253     -0.0203
    117  CD1       20.2680    3.6890  -10.3010 C.ar  253  PHE253     -0.0042
    118  CD2       22.4180    3.8690  -11.3170 C.ar  253  PHE253     -0.0042
    119  CE1       20.7600    2.7510   -9.4180 C.ar  253  PHE253     -0.0003
    120  CE2       22.9220    2.9290  -10.4330 C.ar  253  PHE253     -0.0003
    121  CZ        22.0900    2.3650   -9.4860 C.ar  253  PHE253     -0.0000
    122  N         25.2370   10.2220   -7.8670 N.3   269  PRO269     -0.2102
    123  CA        26.2390    9.7110   -8.8110 C.3   269  PRO269      0.1504
    124  C         25.6230    8.7890   -9.8610 C.2   269  PRO269      0.2575
    125  O         24.8200    7.9180   -9.5170 O.2   269  PRO269     -0.2718
    126  CB        27.1900    8.9110   -7.9130 C.3   269  PRO269      0.0282
    127  CG        27.0400    9.5200   -6.5620 C.3   269  PRO269      0.0208
    128  CD        25.6070    9.9500   -6.4650 C.3   269  PRO269      0.0893
    129  N         25.9930    8.9870  -11.1240 N.am  270  MET270     -0.1980
    130  CA        25.4820    8.1710  -12.2260 C.3   270  MET270      0.1605
    131  C         23.9730    8.3040  -12.4370 C.2   270  MET270      0.2287
    132  O         23.3890    7.5540  -13.2200 O.2   270  MET270     -0.2864
    133  CB        25.8410    6.6970  -12.0230 C.3   270  MET270      0.0413
    134  CG        27.3300    6.4300  -11.9050 C.3   270  MET270      0.0598
    135  SD        27.6190    4.9320  -10.9600 S.3   270  MET270     -0.1393
    136  CE        26.5940    5.2720   -9.5270 C.3   270  MET270      0.0692
    137  N         27.9120    5.8050  -18.8530 N.3   278  VAL278     -0.1245
    138  CA        27.4020    4.4480  -18.6500 C.3   278  VAL278      0.1561
    139  C         28.5050    3.4030  -18.7120 C.2   278  VAL278      0.2260
    140  O         28.6630    2.6100  -17.7850 O.2   278  VAL278     -0.2867
    141  CB        26.2840    4.0830  -19.6460 C.3   278  VAL278      0.0252
    142  CG1       25.9450    2.5860  -19.5560 C.3   278  VAL278      0.0019
    143  CG2       25.0460    4.9460  -19.3890 C.3   278  VAL278      0.0019
    144  N         31.2400    3.8030  -16.0730 N.3   281  SER281     -0.1202
    145  CA        30.6440    3.4640  -14.7880 C.3   281  SER281      0.2020
    146  C         30.5470    1.9500  -14.5520 C.2   281  SER281      0.2618
    147  O         30.7710    1.4900  -13.4360 O.2   281  SER281     -0.2717
    148  CB        29.2740    4.1200  -14.6460 C.3   281  SER281      0.2103
    149  OG        29.4100    5.5240  -14.5430 O.3   281  SER281     -0.2182
    150  N         30.2160    1.1860  -15.5950 N.am  282  GLN282     -0.1979
    151  CA        30.2230   -0.2800  -15.4990 C.3   282  GLN282      0.1601
    152  C         31.6380   -0.7980  -15.2250 C.2   282  GLN282      0.2287
    153  O         31.8500   -1.5980  -14.3110 O.2   282  GLN282     -0.2864
    154  CB        29.6680   -0.9220  -16.7740 C.3   282  GLN282      0.0394
    155  CG        28.1490   -0.8990  -16.8800 C.3   282  GLN282      0.0908
    156  CD        27.4820   -1.5220  -15.6630 C.2   282  GLN282      0.2608
    157  OE1       27.8770   -2.5990  -15.2090 O.2   282  GLN282     -0.2717
    158  NE2       26.4680   -0.8430  -15.1260 N.am  282  GLN282     -0.0878
    159  N         32.5360   -0.0360  -11.6750 N.3   285  PHE285     -0.1241
    160  CA        31.7860   -0.8690  -10.7380 C.3   285  PHE285      0.1605
    161  C         32.3560   -2.2840  -10.7360 C.2   285  PHE285      0.2264
    162  O         32.4650   -2.9170   -9.6910 O.2   285  PHE285     -0.2867
    163  CB        30.2930   -0.8750  -11.1080 C.3   285  PHE285      0.0534
    164  CG        29.3970   -1.5020  -10.0640 C.ar  285  PHE285     -0.0203
    165  CD1       29.2580   -0.9290   -8.8080 C.ar  285  PHE285     -0.0042
    166  CD2       28.6630   -2.6410  -10.3560 C.ar  285  PHE285     -0.0042
    167  CE1       28.4230   -1.5000   -7.8540 C.ar  285  PHE285     -0.0003
    168  CE2       27.8290   -3.2170   -9.4090 C.ar  285  PHE285     -0.0003
    169  CZ        27.7090   -2.6430   -8.1550 C.ar  285  PHE285     -0.0000
    170  N         34.0270   -3.1370   -7.2630 N.3   289  ILE289     -0.1245
    171  CA        33.0200   -3.8730   -6.4870 C.3   289  ILE289      0.1561
    172  C         32.8190   -5.3300   -6.9140 C.2   289  ILE289      0.2260
    173  O         32.9860   -6.2460   -6.1130 O.2   289  ILE289     -0.2867
    174  CB        31.6560   -3.1680   -6.5320 C.3   289  ILE289      0.0252
    175  CG1       31.7770   -1.7540   -5.9640 C.3   289  ILE289      0.0019
    176  CG2       30.6330   -3.9480   -5.7190 C.3   289  ILE289      0.0019
    177  CD1       32.1870   -1.7270   -4.5090 C.3   289  ILE289      0.0001
@<TRIPOS>BOND
     1   141   142    1
     2   141   143    1
     3   141   138    1
     4    62    63    1
     5    64    63    1
     6    64    65    2
     7    66    63    1
     8    66    67    1
     9   137   138    1
    10   139   138    1
    11   139   140    2
    12    69    67   ar
    13    69    71   ar
    14    74    75    1
    15    92    94    1
    16    92    93    1
    17    92    89    1
    18    67    68   ar
    19    90    89    1
    20    90    91    2
    21    71    72   ar
    22    88    89    1
    23    88    76   am
    24    68    70   ar
    25    75    76    1
    26    75    78    1
    27   107   108    1
    28   107   104    1
    29    72    70   ar
    30    72    73    1
    31    76    77    2
    32   108   109    1
    33   155   154    1
    34   155   156    1
    35   154   151    1
    36    80    79   ar
    37    80    82   ar
    38    78    79    1
    39    58    57    2
    40   105   104    1
    41   105   106    2
    42   144   145    1
    43    79    81   ar
    44    82    83   ar
    45   104   103    1
    46    50    49    2
    47   156   157    2
    48   156   158   am
    49   150   151    1
    50   150   146   am
    51   103    97   am
    52    81    83   ar
    53    81    84   ar
    54    83    85   ar
    55   151   152    1
    56   110   109    1
    57    57    56    1
    58    95    96    1
    59   152   153    2
    60    56    59    1
    61    56    55    1
    62    85    87   ar
    63    84    86   ar
    64   145   148    1
    65   145   146    1
    66    49    55   am
    67    49    48    1
    68   148   149    1
    69    87    86   ar
    70   146   147    2
    71    59    60    1
    72    97    96    1
    73    97    98    2
    74    55    61    1
    75    96    99    1
    76   101    99    1
    77    51    48    1
    78    51    52    1
    79    48    47    1
    80    60    61    1
    81    99   100    1
    82    54    52   am
    83    52    53    2
    84   132   131    2
    85     1     2    1
    86     7     9   ar
    87     7     6   ar
    88     2     5    1
    89     2     3    1
    90   113   112    1
    91   113   114    2
    92   111   112    1
    93     9    11   ar
    94   131   130    1
    95     5     6    1
    96   130   133    1
    97   130   129    1
    98   115   112    1
    99   115   116    1
   100   133   134    1
   101     6     8   ar
   102   134   135    1
   103   100   102    1
   104   159   160    1
   105     4     3    2
   106     3    13   am
   107   118   116   ar
   108   118   120   ar
   109   116   117   ar
   110    11    12    1
   111    11    10   ar
   112   129   124   am
   113   163   160    1
   114   163   164    1
   115   135   136    1
   116   160   161    1
   117   161   162    2
   118     8    10   ar
   119   120   121   ar
   120    13    14    1
   121   166   164   ar
   122   166   168   ar
   123   117   119   ar
   124   164   165   ar
   125   124   125    2
   126   124   123    1
   127    42    41    2
   128   121   119   ar
   129   168   169   ar
   130    41    40    1
   131    15    14    1
   132    15    16    2
   133    14    17    1
   134   123   126    1
   135   123   122    1
   136   165   167   ar
   137   169   167   ar
   138    40    39    1
   139    40    43    1
   140    34    33    2
   141    17    18    1
   142    19    18   ar
   143    19    21   ar
   144   126   127    1
   145   122   128    1
   146    18    20   ar
   147    21    22   ar
   148    33    39   am
   149    33    32    1
   150   170   171    1
   151    43    44    1
   152    20    22   ar
   153   172   171    1
   154   172   173    2
   155    46    44    1
   156   127   128    1
   157   174   171    1
   158   174   175    1
   159   174   176    1
   160    32    31    1
   161    32    35    1
   162    44    45    1
   163   175   177    1
   164    37    36   ar
   165    35    36    1
   166    36    38   ar
   167    29    30    1
   168    29    28    1
   169    28    27    1
   170    27    24    1
   171    24    23    1
   172    24    25    1
   173    26    25    2
