@<TRIPOS>MOLECULE
tmp/3sl4D03.pdb
 87 83 0 0 0
SMALL
GASTEIGER

@<TRIPOS>ATOM
      1  N          6.4120   -0.9760  -12.8450 N.3    69  ASP69      -0.1225
      2  CA         6.8810    0.2840  -13.4310 C.3    69  ASP69       0.1805
      3  C          8.2990    0.6480  -13.0080 C.2    69  ASP69       0.2598
      4  O          8.7630    1.7450  -13.2970 O.2    69  ASP69      -0.2718
      5  CB         5.9320    1.4430  -13.1010 C.3    69  ASP69       0.1424
      6  CG         5.7470    1.6520  -11.6070 C.2    69  ASP69       0.3668
      7  OD1        6.1030    0.7540  -10.8130 O.co2  69  ASP69      -0.2456
      8  OD2        5.2140    2.7140  -11.2200 O.co2  69  ASP69      -0.2456
      9  N          8.9750   -0.2640  -12.3100 N.am   70  VAL70      -0.1966
     10  CA        10.3720   -0.0700  -11.9240 C.3    70  VAL70       0.1727
     11  C         11.2420   -0.8850  -12.8960 C.2    70  VAL70       0.2616
     12  O         11.0240   -2.0880  -13.0780 O.2    70  VAL70      -0.2715
     13  CB        10.5870   -0.4780  -10.4460 C.3    70  VAL70       0.0290
     14  CG1       12.0490   -0.4220  -10.0580 C.3    70  VAL70       0.0023
     15  CG2        9.7730    0.4230   -9.5500 C.3    70  VAL70       0.0023
     16  N         12.2020   -0.2310  -13.5470 N.am   71  ALA71      -0.1977
     17  CA        12.9110   -0.8640  -14.6680 C.3    71  ALA71       0.1597
     18  C         13.8890   -1.9600  -14.2750 C.2    71  ALA71       0.2287
     19  O         14.0720   -2.9260  -15.0180 O.2    71  ALA71      -0.2864
     20  CB        13.6100    0.1860  -15.5340 C.3    71  ALA71       0.0319
     21  N         10.6800    0.7650   -4.5080 N.3   118  PRO118     -0.2102
     22  CA        10.1260    1.9100   -5.2510 C.3   118  PRO118      0.1504
     23  C         10.9970    2.4190   -6.4090 C.2   118  PRO118      0.2576
     24  O         10.5610    3.2940   -7.1490 O.2   118  PRO118     -0.2718
     25  CB        10.0320    2.9940   -4.1790 C.3   118  PRO118      0.0282
     26  CG        11.2370    2.6940   -3.2800 C.3   118  PRO118      0.0208
     27  CD        11.2110    1.1610   -3.1900 C.3   118  PRO118      0.0893
     28  N         12.2110    1.9030   -6.5550 N.am  119  GLY119     -0.1943
     29  CA        13.0340    2.2600   -7.6910 C.3   119  GLY119      0.2014
     30  C         13.8690    3.5010   -7.4300 C.2   119  GLY119      0.2638
     31  O         14.3840    4.1110   -8.3610 O.2   119  GLY119     -0.2714
     32  N         13.9790    3.8800   -6.1610 N.am  120  VAL120     -0.1977
     33  CA        14.9040    4.9390   -5.7410 C.3   120  VAL120      0.1596
     34  C         15.7340    4.4280   -4.5760 C.2   120  VAL120      0.2287
     35  O         15.3270    3.5000   -3.8800 O.2   120  VAL120     -0.2864
     36  CB        14.1700    6.2280   -5.3130 C.3   120  VAL120      0.0276
     37  CG1       13.4980    6.8670   -6.5070 C.3   120  VAL120      0.0022
     38  CG2       13.1540    5.9290   -4.2130 C.3   120  VAL120      0.0022
     39  N         18.2490    3.1700  -16.6170 N.3   251  GLU251     -0.1231
     40  CA        16.9290    3.7760  -16.7560 C.3   251  GLU251      0.1699
     41  C         16.3820    4.1490  -15.3840 C.2   251  GLU251      0.2592
     42  O         15.8390    5.2430  -15.1800 O.2   251  GLU251     -0.2718
     43  CB        15.9580    2.8350  -17.4620 C.3   251  GLU251      0.0402
     44  CG        14.5220    3.3150  -17.4020 C.3   251  GLU251      0.1161
     45  CD        13.6150    2.5980  -18.3870 C.2   251  GLU251      0.3649
     46  OE1       14.1280    1.8280  -19.2350 O.co2 251  GLU251     -0.2457
     47  OE2       12.3860    2.8100  -18.3160 O.co2 251  GLU251     -0.2457
     48  N         16.5440    3.2320  -14.4370 N.am  252  GLU252     -0.1979
     49  CA        16.1000    3.4640  -13.0710 C.3   252  GLU252      0.1602
     50  C         16.8960    4.5920  -12.4030 C.2   252  GLU252      0.2287
     51  O         16.3250    5.4740  -11.7660 O.2   252  GLU252     -0.2864
     52  CB        16.1990    2.1600  -12.2640 C.3   252  GLU252      0.0415
     53  CG        15.6400    2.2590  -10.8510 C.3   252  GLU252      0.1163
     54  CD        15.4790    0.8890  -10.1900 C.2   252  GLU252      0.3649
     55  OE1       14.9830   -0.0470  -10.8480 O.co2 252  GLU252     -0.2457
     56  OE2       15.8400    0.7610   -9.0050 O.co2 252  GLU252     -0.2457
     57  N         15.9380    8.0060  -13.9620 N.3   255  ARG255     -0.1231
     58  CA        14.6350    8.4540  -13.4750 C.3   255  ARG255      0.1694
     59  C         14.7360    9.0810  -12.0900 C.2   255  ARG255      0.2591
     60  O         14.1130   10.1140  -11.8250 O.2   255  ARG255     -0.2718
     61  CB        13.6120    7.3100  -13.4530 C.3   255  ARG255      0.0321
     62  CG        13.1780    6.8020  -14.8180 C.3   255  ARG255      0.0489
     63  CD        12.8260    7.9480  -15.7570 C.3   255  ARG255      0.2205
     64  NE        11.6610    7.6440  -16.5850 N.pl3 255  ARG255     -0.0865
     65  CZ        11.3490    8.2900  -17.7060 C.cat 255  ARG255      0.5346
     66  NH1       12.1270    9.2750  -18.1500 N.pl3 255  ARG255      0.1354
     67  NH2       10.2640    7.9430  -18.3900 N.pl3 255  ARG255      0.1354
     68  N         15.5010    8.4580  -11.1970 N.am  256  GLN256     -0.1979
     69  CA        15.7620    9.0740   -9.9000 C.3   256  GLN256      0.1601
     70  C         16.4700   10.4290  -10.0600 C.2   256  GLN256      0.2287
     71  O         16.1350   11.3950   -9.3740 O.2   256  GLN256     -0.2864
     72  CB        16.5700    8.1520   -8.9790 C.3   256  GLN256      0.0394
     73  CG        16.8650    8.7840   -7.6250 C.3   256  GLN256      0.0908
     74  CD        17.6930    7.9040   -6.7030 C.2   256  GLN256      0.2608
     75  OE1       17.5290    6.6840   -6.6730 O.2   256  GLN256     -0.2717
     76  NE2       18.5870    8.5280   -5.9300 N.am  256  GLN256     -0.0878
     77  N         13.9430   12.9480  -10.8090 N.3   259  ARG259     -0.1245
     78  CA        13.1520   13.2780   -9.6290 C.3   259  ARG259      0.1563
     79  C         13.9280   14.1810   -8.6810 C.2   259  ARG259      0.2260
     80  O         13.3560   15.0690   -8.0520 O.2   259  ARG259     -0.2867
     81  CB        12.6610   12.0130   -8.9100 C.3   259  ARG259      0.0307
     82  CG        11.5600   11.2610   -9.6730 C.3   259  ARG259      0.0489
     83  CD        11.0920    9.9860   -8.9590 C.3   259  ARG259      0.2205
     84  NE        10.4160   10.2500   -7.6850 N.pl3 259  ARG259     -0.0865
     85  CZ         9.8380    9.3130   -6.9290 C.cat 259  ARG259      0.5346
     86  NH1        9.8510    8.0400   -7.3100 N.pl3 259  ARG259      0.1354
     87  NH2        9.2440    9.6440   -5.7870 N.pl3 259  ARG259      0.1354
@<TRIPOS>BOND
     1    46    45   ar
     2    67    65    1
     3    45    47   ar
     4    45    44    1
     5    66    65    1
     6    65    64    2
     7    43    44    1
     8    43    40    1
     9    40    39    1
    10    40    41    1
    11    64    63    1
    12    63    62    1
    13    20    17    1
    14    41    42    2
    15    41    48   am
    16    19    18    2
    17    62    61    1
    18    17    18    1
    19    17    16    1
    20    48    49    1
    21    57    58    1
    22    16    11   am
    23    58    61    1
    24    58    59    1
    25     2     5    1
    26     2     3    1
    27     2     1    1
    28     4     3    2
    29     5     6    1
    30    12    11    2
    31    49    50    1
    32    49    52    1
    33     3     9   am
    34    11    10    1
    35    50    51    2
    36     9    10    1
    37    52    53    1
    38    59    60    2
    39    59    68   am
    40    10    13    1
    41     6     8   ar
    42     6     7   ar
    43    68    69    1
    44    53    54    1
    45    55    54   ar
    46    77    78    1
    47    13    14    1
    48    13    15    1
    49    54    56   ar
    50    70    69    1
    51    70    71    2
    52    69    72    1
    53    82    83    1
    54    82    81    1
    55    78    81    1
    56    78    79    1
    57    72    73    1
    58    83    84    1
    59    79    80    2
    60    31    30    2
    61    29    30    1
    62    29    28    1
    63    84    85    2
    64    73    74    1
    65    30    32   am
    66    86    85    1
    67    24    23    2
    68    85    87    1
    69    74    75    2
    70    74    76   am
    71    28    23   am
    72    37    36    1
    73    23    22    1
    74    32    33    1
    75    33    36    1
    76    33    34    1
    77    36    38    1
    78    22    21    1
    79    22    25    1
    80    34    35    2
    81    21    27    1
    82    25    26    1
    83    26    27    1
