@<TRIPOS>MOLECULE
tmp/3sl5C01.pdb
 193 189 0 0 0
SMALL
GASTEIGER

@<TRIPOS>ATOM
      1  N          8.1410   -2.2090   36.4460 N.3    74  TYR74      -0.1227
      2  CA         9.4280   -1.5550   36.2820 C.3    74  TYR74       0.1736
      3  C          9.4920   -0.5340   35.1220 C.2    74  TYR74       0.2595
      4  O          9.8360    0.6320   35.3310 O.2    74  TYR74      -0.2718
      5  CB        10.5510   -2.5860   36.1760 C.3    74  TYR74       0.0548
      6  CG        11.8900   -1.9310   36.0550 C.ar   74  TYR74      -0.0200
      7  CD1       12.6810   -1.6970   37.1770 C.ar   74  TYR74      -0.0009
      8  CD2       12.3510   -1.5020   34.8230 C.ar   74  TYR74      -0.0009
      9  CE1       13.9070   -1.0710   37.0600 C.ar   74  TYR74       0.0417
     10  CE2       13.5640   -0.8790   34.6950 C.ar   74  TYR74       0.0417
     11  CZ        14.3440   -0.6650   35.8080 C.ar   74  TYR74       0.1957
     12  OH        15.5530   -0.0330   35.6520 O.3    74  TYR74      -0.2866
     13  N          9.1610   -0.9490   33.9050 N.am   75  HIS75      -0.1975
     14  CA         9.3390   -0.0440   32.7660 C.3    75  HIS75       0.1656
     15  C          8.2110    0.9670   32.6310 C.2    75  HIS75       0.2291
     16  O          7.5140    1.0050   31.6270 O.2    75  HIS75      -0.2864
     17  CB         9.5490   -0.8110   31.4580 C.3    75  HIS75       0.0771
     18  CG        10.8270   -1.5900   31.4170 C.ar   75  HIS75       0.0820
     19  ND1       10.9080   -2.9110   31.8050 N.ar   75  HIS75      -0.2267
     20  CD2       12.0760   -1.2350   31.0360 C.ar   75  HIS75       0.1154
     21  CE1       12.1500   -3.3340   31.6710 C.ar   75  HIS75       0.1986
     22  NE2       12.8790   -2.3390   31.2000 N.ar   75  HIS75      -0.2212
     23  N         10.4230    4.9240   36.1280 N.3    79  HIS79      -0.1241
     24  CA        11.6750    4.4690   35.5650 C.3    79  HIS79       0.1621
     25  C         12.1880    5.5290   34.5910 C.2    79  HIS79       0.2264
     26  O         13.3440    5.9150   34.6430 O.2    79  HIS79      -0.2867
     27  CB        11.4950    3.1310   34.8560 C.3    79  HIS79       0.0745
     28  CG        12.6580    2.7660   33.9940 C.ar   79  HIS79       0.0817
     29  ND1       13.9080    2.5040   34.5100 N.ar   79  HIS79      -0.2268
     30  CD2       12.7780    2.6730   32.6520 C.ar   79  HIS79       0.1154
     31  CE1       14.7460    2.2510   33.5260 C.ar   79  HIS79       0.1986
     32  NE2       14.0860    2.3470   32.3870 N.ar   79  HIS79      -0.2212
     33  N         19.6560   -3.6990   25.5030 N.3   188  MET188     -0.1245
     34  CA        20.5750   -4.5000   26.3130 C.3   188  MET188      0.1570
     35  C         21.4880   -5.4180   25.5150 C.2   188  MET188      0.2261
     36  O         22.6510   -5.6210   25.8650 O.2   188  MET188     -0.2867
     37  CB        19.8030   -5.3120   27.3370 C.3   188  MET188      0.0387
     38  CG        19.4870   -4.5310   28.5800 C.3   188  MET188      0.0595
     39  SD        20.9960   -3.7370   29.1550 S.3   188  MET188     -0.1393
     40  CE        22.1730   -5.0980   29.1090 C.3   188  MET188      0.0692
     41  N         27.6700   -5.0790   25.5250 N.3   192  MET192     -0.1245
     42  CA        29.0880   -5.3820   25.3130 C.3   192  MET192      0.1570
     43  C         29.7350   -4.4960   24.2580 C.2   192  MET192      0.2261
     44  O         30.8310   -3.9740   24.4530 O.2   192  MET192     -0.2867
     45  CB        29.2660   -6.8450   24.9210 C.3   192  MET192      0.0387
     46  CG        28.8700   -7.8410   26.0140 C.3   192  MET192      0.0595
     47  SD        29.7750   -7.5770   27.5560 S.3   192  MET192     -0.1393
     48  CE        28.7630   -8.4980   28.7150 C.3   192  MET192      0.0692
     49  N         20.4170    4.2250   32.5530 N.3   233  ASP233     -0.1225
     50  CA        19.4710    3.1350   32.4420 C.3   233  ASP233      0.1805
     51  C         19.8500    1.9630   33.3650 C.2   233  ASP233      0.2597
     52  O         18.9980    1.1860   33.7940 O.2   233  ASP233     -0.2718
     53  CB        19.3960    2.7000   30.9840 C.3   233  ASP233      0.1424
     54  CG        18.1490    1.9290   30.6730 C.2   233  ASP233      0.3668
     55  OD1       17.0890    2.2790   31.2230 O.co2 233  ASP233     -0.2456
     56  OD2       18.2290    0.9730   29.8720 O.co2 233  ASP233     -0.2456
     57  N         21.1330    1.8460   33.6780 N.am  234  LEU234     -0.1979
     58  CA        21.5860    0.8330   34.6280 C.3   234  LEU234      0.1596
     59  C         22.1450    1.4760   35.9120 C.2   234  LEU234      0.2287
     60  O         23.1540    1.0350   36.4630 O.2   234  LEU234     -0.2864
     61  CB        22.6170   -0.0710   33.9670 C.3   234  LEU234      0.0297
     62  CG        22.1030   -0.8480   32.7520 C.3   234  LEU234      0.0022
     63  CD1       23.2440   -1.4020   31.9060 C.3   234  LEU234      0.0001
     64  CD2       21.1970   -1.9610   33.2270 C.3   234  LEU234      0.0001
     65  N         20.3390    1.9240   38.8020 N.3   236  ASN236     -0.1226
     66  CA        19.6510    1.4960   40.0250 C.3   236  ASN236      0.1770
     67  C         20.5980    0.9940   41.1320 C.2   236  ASN236      0.2439
     68  O         20.6320    1.5590   42.2220 O.2   236  ASN236     -0.2733
     69  CB        18.5770    0.4380   39.7510 C.3   236  ASN236      0.1168
     70  CG        17.8450    0.6570   38.4500 C.2   236  ASN236      0.2627
     71  OD1       18.3600    0.3550   37.3780 O.2   236  ASN236     -0.2716
     72  ND2       16.6270    1.1480   38.5360 N.am  236  ASN236     -0.0877
     73  N         21.3810   -0.0610   40.8550 N.am  237  PRO237     -0.2729
     74  CA        22.2230   -0.6270   41.9160 C.3   237  PRO237      0.1401
     75  C         23.2110    0.3880   42.5140 C.2   237  PRO237      0.2269
     76  O         23.8380    0.0850   43.5350 O.2   237  PRO237     -0.2865
     77  CB        23.0090   -1.7380   41.1910 C.3   237  PRO237      0.0296
     78  CG        22.2840   -1.9940   39.9350 C.3   237  PRO237      0.0237
     79  CD        21.6610   -0.6860   39.5510 C.3   237  PRO237      0.0939
     80  N         17.3100    1.4400   45.2900 N.3   244  TYR244     -0.1241
     81  CA        17.7020    0.1850   44.6620 C.3   244  TYR244      0.1605
     82  C         16.7950   -0.9640   45.0920 C.2   244  TYR244      0.2264
     83  O         16.4900   -1.8380   44.2930 O.2   244  TYR244     -0.2867
     84  CB        19.1790   -0.0890   44.9700 C.3   244  TYR244      0.0534
     85  CG        19.8010   -1.3270   44.3470 C.ar  244  TYR244     -0.0201
     86  CD1       19.2730   -1.9150   43.2010 C.ar  244  TYR244     -0.0009
     87  CD2       20.9500   -1.8930   44.9040 C.ar  244  TYR244     -0.0009
     88  CE1       19.8560   -3.0520   42.6450 C.ar  244  TYR244      0.0417
     89  CE2       21.5390   -3.0190   44.3560 C.ar  244  TYR244      0.0417
     90  CZ        20.9890   -3.5960   43.2290 C.ar  244  TYR244      0.1957
     91  OH        21.5850   -4.7150   42.6970 O.3   244  TYR244     -0.2866
     92  N         13.4900   -0.7790   43.1580 N.3   247  TRP247     -0.1227
     93  CA        13.7680   -1.0370   41.7570 C.3   247  TRP247      0.1737
     94  C         13.9510   -2.5260   41.4940 C.2   247  TRP247      0.2596
     95  O         13.6300   -3.0250   40.4170 O.2   247  TRP247     -0.2718
     96  CB        14.9920   -0.2530   41.2810 C.3   247  TRP247      0.0564
     97  CG        14.7500    1.2180   41.0760 C.ar  247  TRP247      0.0003
     98  CD1       15.4660    2.2470   41.6170 C.ar  247  TRP247      0.0946
     99  CD2       13.7310    1.8220   40.2700 C.ar  247  TRP247      0.0152
    100  NE1       14.9590    3.4530   41.1970 N.ar  247  TRP247     -0.2442
    101  CE2       13.8890    3.2210   40.3750 C.ar  247  TRP247      0.0810
    102  CE3       12.7010    1.3170   39.4650 C.ar  247  TRP247      0.0012
    103  CZ2       13.0550    4.1190   39.7120 C.ar  247  TRP247      0.0191
    104  CZ3       11.8770    2.2110   38.8050 C.ar  247  TRP247      0.0001
    105  CH2       12.0550    3.5980   38.9380 C.ar  247  TRP247      0.0015
    106  N         14.4530   -3.2410   42.4860 N.am  248  THR248     -0.1953
    107  CA        14.6530   -4.6650   42.3200 C.3   248  THR248      0.1897
    108  C         13.3330   -5.4170   42.4770 C.2   248  THR248      0.2313
    109  O         13.0570   -6.3410   41.7190 O.2   248  THR248     -0.2863
    110  CB        15.7650   -5.2020   43.2500 C.3   248  THR248      0.1794
    111  OG1       16.9870   -4.5210   42.9610 O.3   248  THR248     -0.2208
    112  CG2       15.9930   -6.6820   43.0380 C.3   248  THR248      0.0378
    113  N         11.6190   -4.7750   39.1770 N.3   251  ILE251     -0.1231
    114  CA        12.1710   -5.4640   38.0150 C.3   251  ILE251      0.1692
    115  C         11.8870   -6.9630   38.0910 C.2   251  ILE251      0.2591
    116  O         11.5920   -7.5970   37.0770 O.2   251  ILE251     -0.2718
    117  CB        13.6800   -5.1820   37.8000 C.3   251  ILE251      0.0266
    118  CG1       14.1270   -5.6420   36.4060 C.3   251  ILE251      0.0019
    119  CG2       14.5160   -5.8520   38.8460 C.3   251  ILE251      0.0020
    120  CD1       13.5750   -4.8230   35.2610 C.3   251  ILE251      0.0001
    121  N         11.9390   -7.5170   39.3000 N.am  252  MET252     -0.1979
    122  CA        11.6790   -8.9390   39.4810 C.3   252  MET252      0.1605
    123  C         10.2140   -9.2620   39.2660 C.2   252  MET252      0.2287
    124  O          9.8700  -10.3410   38.7900 O.2   252  MET252     -0.2864
    125  CB        12.1320   -9.4310   40.8610 C.3   252  MET252      0.0413
    126  CG        13.6250   -9.3810   41.0720 C.3   252  MET252      0.0598
    127  SD        14.5670   -9.9980   39.6610 S.3   252  MET252     -0.1393
    128  CE        14.1180  -11.7290   39.6430 C.3   252  MET252      0.0692
    129  N          9.6940   -9.3110   35.5260 N.3   255  PHE255     -0.1241
    130  CA        10.2090  -10.5900   35.0590 C.3   255  PHE255      0.1605
    131  C          9.3160  -11.7750   35.4320 C.2   255  PHE255      0.2264
    132  O          9.0010  -12.6190   34.5840 O.2   255  PHE255     -0.2867
    133  CB        11.6380  -10.8170   35.5530 C.3   255  PHE255      0.0534
    134  CG        12.6480   -9.9160   34.8970 C.ar  255  PHE255     -0.0203
    135  CD1       12.3360   -9.2560   33.7140 C.ar  255  PHE255     -0.0042
    136  CD2       13.9060   -9.7240   35.4570 C.ar  255  PHE255     -0.0042
    137  CE1       13.2610   -8.4250   33.1040 C.ar  255  PHE255     -0.0003
    138  CE2       14.8390   -8.9010   34.8480 C.ar  255  PHE255     -0.0003
    139  CZ        14.5180   -8.2530   33.6730 C.ar  255  PHE255     -0.0000
    140  N         15.4170  -17.6550   35.4080 N.3   272  MET272     -0.1245
    141  CA        15.3260  -16.4840   36.2920 C.3   272  MET272      0.1570
    142  C         14.0320  -15.6830   36.0650 C.2   272  MET272      0.2261
    143  O         13.8970  -14.5430   36.5260 O.2   272  MET272     -0.2867
    144  CB        16.5660  -15.5840   36.1630 C.3   272  MET272      0.0387
    145  CG        17.8350  -16.1530   36.8050 C.3   272  MET272      0.0595
    146  SD        19.3340  -15.1870   36.4770 S.3   272  MET272     -0.1393
    147  CE        19.6580  -15.6160   34.7650 C.3   272  MET272      0.0692
    148  N         20.8240  -12.8330   41.8170 N.3   283  SER283     -0.1202
    149  CA        20.8170  -12.2080   40.5020 C.3   283  SER283      0.2020
    150  C         21.3860  -10.7970   40.5460 C.2   283  SER283      0.2618
    151  O         22.1550  -10.4020   39.6630 O.2   283  SER283     -0.2717
    152  CB        19.4070  -12.1860   39.9280 C.3   283  SER283      0.2103
    153  OG        18.9450  -13.5030   39.7440 O.3   283  SER283     -0.2182
    154  N         21.0050  -10.0390   41.5680 N.am  284  GLN284     -0.1979
    155  CA        21.5300   -8.6900   41.7230 C.3   284  GLN284      0.1601
    156  C         23.0510   -8.6890   41.7610 C.2   284  GLN284      0.2287
    157  O         23.6930   -7.9760   40.9930 O.2   284  GLN284     -0.2864
    158  CB        20.9460   -8.0040   42.9590 C.3   284  GLN284      0.0394
    159  CG        19.4930   -7.6030   42.7830 C.3   284  GLN284      0.0908
    160  CD        19.2250   -7.0180   41.4100 C.2   284  GLN284      0.2608
    161  OE1       19.9490   -6.1350   40.9500 O.2   284  GLN284     -0.2717
    162  NE2       18.1890   -7.5200   40.7380 N.am  284  GLN284     -0.0878
    163  N         24.2360   -9.8600   38.3960 N.3   287  PHE287     -0.1241
    164  CA        24.0230   -8.7850   37.4470 C.3   287  PHE287      0.1605
    165  C         25.0760   -7.6900   37.6470 C.2   287  PHE287      0.2264
    166  O         25.7280   -7.2680   36.6930 O.2   287  PHE287     -0.2867
    167  CB        22.6010   -8.2400   37.5710 C.3   287  PHE287      0.0534
    168  CG        22.2320   -7.2670   36.4960 C.ar  287  PHE287     -0.0203
    169  CD1       22.2040   -7.6630   35.1690 C.ar  287  PHE287     -0.0042
    170  CD2       21.9050   -5.9590   36.8100 C.ar  287  PHE287     -0.0042
    171  CE1       21.8670   -6.7720   34.1710 C.ar  287  PHE287     -0.0003
    172  CE2       21.5650   -5.0600   35.8200 C.ar  287  PHE287     -0.0003
    173  CZ        21.5450   -5.4700   34.4960 C.ar  287  PHE287     -0.0000
    174  N         28.7700   -8.7530   36.4840 N.3   290  TYR290     -0.1227
    175  CA        29.0660   -9.0230   35.0830 C.3   290  TYR290      0.1736
    176  C         28.6720   -7.8740   34.1740 C.2   290  TYR290      0.2595
    177  O         29.1770   -7.7440   33.0660 O.2   290  TYR290     -0.2718
    178  CB        28.3930  -10.3230   34.6290 C.3   290  TYR290      0.0548
    179  CG        28.9070  -11.5560   35.3470 C.ar  290  TYR290     -0.0200
    180  CD1       28.0360  -12.4150   36.0000 C.ar  290  TYR290     -0.0009
    181  CD2       30.2710  -11.8500   35.3890 C.ar  290  TYR290     -0.0009
    182  CE1       28.5010  -13.5380   36.6640 C.ar  290  TYR290      0.0417
    183  CE2       30.7460  -12.9710   36.0520 C.ar  290  TYR290      0.0417
    184  CZ        29.8530  -13.8080   36.6870 C.ar  290  TYR290      0.1957
    185  OH        30.2980  -14.9260   37.3540 O.3   290  TYR290     -0.2866
    186  N         27.7750   -7.0250   34.6480 N.am  291  ILE291     -0.1980
    187  CA        27.2460   -5.9760   33.7970 C.3   291  ILE291      0.1595
    188  C         27.3220   -4.5920   34.4180 C.2   291  ILE291      0.2287
    189  O         27.9890   -3.7060   33.8770 O.2   291  ILE291     -0.2864
    190  CB        25.8160   -6.3080   33.3590 C.3   291  ILE291      0.0276
    191  CG1       25.8540   -7.5430   32.4560 C.3   291  ILE291      0.0022
    192  CG2       25.1910   -5.1320   32.6330 C.3   291  ILE291      0.0022
    193  CD1       24.5420   -8.2260   32.3240 C.3   291  ILE291      0.0001
@<TRIPOS>BOND
     1    43    44    2
     2    43    42    1
     3    45    42    1
     4    45    46    1
     5    42    41    1
     6    33    34    1
     7    35    36    2
     8    35    34    1
     9    46    47    1
    10    34    37    1
    11    37    38    1
    12    47    48    1
    13    38    39    1
    14    40    39    1
    15    56    54   ar
    16    54    53    1
    17    54    55   ar
    18    53    50    1
    19    20    22   ar
    20    20    18   ar
    21    22    21   ar
    22    18    17    1
    23    18    19   ar
    24    17    14    1
    25    16    15    2
    26    21    19   ar
    27    63    62    1
    28   193   191    1
    29    32    30   ar
    30    32    31   ar
    31    50    49    1
    32    50    51    1
    33   191   190    1
    34    15    14    1
    35   192   190    1
    36    30    28   ar
    37    62    64    1
    38    62    61    1
    39    14    13    1
    40   177   176    2
    41   137   139   ar
    42   137   135   ar
    43   190   187    1
    44    51    57   am
    45    51    52    2
    46    31    29   ar
    47   139   138   ar
    48    57    58    1
    49   135   134   ar
    50   187   188    1
    51   187   186    1
    52   189   188    2
    53    13     3   am
    54    61    58    1
    55    28    29   ar
    56    28    27    1
    57   171   173   ar
    58   171   169   ar
    59   176   186   am
    60   176   175    1
    61   173   172   ar
    62   132   131    2
    63    25    26    2
    64    25    24    1
    65    58    59    1
    66   178   175    1
    67   178   179    1
    68    10     8   ar
    69    10    11   ar
    70   147   146    1
    71     8     6   ar
    72   138   136   ar
    73    27    24    1
    74   134   136   ar
    75   134   133    1
    76   130   131    1
    77   130   129    1
    78   130   133    1
    79   175   174    1
    80     3     4    2
    81     3     2    1
    82   169   168   ar
    83   120   118    1
    84   179   181   ar
    85   179   180   ar
    86   181   183   ar
    87   140   141    1
    88    24    23    1
    89    12    11    1
    90    11     9   ar
    91   172   170   ar
    92    59    60    2
    93   180   182   ar
    94   183   184   ar
    95     6     5    1
    96     6     7   ar
    97   142   141    1
    98   142   143    2
    99   144   141    1
   100   144   145    1
   101     5     2    1
   102     2     1    1
   103   118   117    1
   104   146   145    1
   105   168   170   ar
   106   168   167    1
   107   182   184   ar
   108   184   185    1
   109   166   165    2
   110     9     7   ar
   111   116   115    2
   112    71    70    2
   113   164   167    1
   114   164   165    1
   115   164   163    1
   116   117   114    1
   117   117   119    1
   118   114   115    1
   119   114   113    1
   120   115   121   am
   121    70    72   am
   122    70    69    1
   123   124   123    2
   124    65    66    1
   125   104   105   ar
   126   104   102   ar
   127   105   103   ar
   128   123   122    1
   129   121   122    1
   130   102    99   ar
   131   122   125    1
   132    79    78    1
   133    79    73    1
   134   128   127    1
   135   127   126    1
   136   151   150    2
   137   103   101   ar
   138   153   152    1
   139    69    66    1
   140   152   149    1
   141    78    77    1
   142    66    67    1
   143    99   101   ar
   144    99    97   ar
   145   101   100   ar
   146    95    94    2
   147   149   150    1
   148   149   148    1
   149   150   154   am
   150   162   160   am
   151    73    67   am
   152    73    74    1
   153   125   126    1
   154   161   160    2
   155   157   156    2
   156    97    96    1
   157    97    98   ar
   158    67    68    2
   159    77    74    1
   160   100    98   ar
   161    96    93    1
   162   160   159    1
   163    94    93    1
   164    94   106   am
   165   154   155    1
   166   109   108    2
   167   155   156    1
   168   155   158    1
   169    93    92    1
   170    74    75    1
   171   107   108    1
   172   107   106    1
   173   107   110    1
   174    75    76    2
   175    88    86   ar
   176    88    90   ar
   177    91    90    1
   178   159   158    1
   179   111   110    1
   180   112   110    1
   181    86    85   ar
   182    90    89   ar
   183    83    82    2
   184    85    87   ar
   185    85    84    1
   186    89    87   ar
   187    81    84    1
   188    81    82    1
   189    81    80    1
