@<TRIPOS>MOLECULE
tmp/3sl6B00.pdb
 189 182 0 0 0
SMALL
GASTEIGER

@<TRIPOS>ATOM
      1  N         -6.2730    2.9410  -15.3270 N.3    72  TYR72      -0.1227
      2  CA        -7.2810    3.9680  -15.0740 C.3    72  TYR72       0.1736
      3  C         -7.0250    4.8520  -13.8310 C.2    72  TYR72       0.2595
      4  O         -6.8400    6.0680  -13.9460 O.2    72  TYR72      -0.2718
      5  CB        -8.6760    3.3540  -15.0340 C.3    72  TYR72       0.0548
      6  CG        -9.7250    4.3770  -14.7430 C.ar   72  TYR72      -0.0200
      7  CD1      -10.2790    5.1410  -15.7660 C.ar   72  TYR72      -0.0009
      8  CD2      -10.1510    4.6030  -13.4450 C.ar   72  TYR72      -0.0009
      9  CE1      -11.2420    6.1050  -15.4970 C.ar   72  TYR72       0.0417
     10  CE2      -11.1060    5.5650  -13.1650 C.ar   72  TYR72       0.0417
     11  CZ       -11.6450    6.3170  -14.1930 C.ar   72  TYR72       0.1957
     12  OH       -12.6050    7.2610  -13.9100 O.3    72  TYR72      -0.2866
     13  N         -7.0020    4.2290  -12.6600 N.am   73  HIS73      -0.1975
     14  CA        -6.7800    4.9210  -11.3970 C.3    73  HIS73       0.1656
     15  C         -5.3530    5.4690  -11.1980 C.2    73  HIS73       0.2291
     16  O         -4.6800    5.1480  -10.2140 O.2    73  HIS73      -0.2864
     17  CB        -7.2060    4.0190  -10.2360 C.3    73  HIS73       0.0771
     18  CG        -8.6960    3.8530  -10.1240 C.ar   73  HIS73       0.0820
     19  ND1       -9.3700    2.7680  -10.6400 N.ar   73  HIS73      -0.2267
     20  CD2       -9.6420    4.6470   -9.5670 C.ar   73  HIS73       0.1154
     21  CE1      -10.6630    2.8960  -10.4020 C.ar   73  HIS73       0.1986
     22  NE2      -10.8540    4.0270   -9.7490 N.ar   73  HIS73      -0.2212
     23  N         -9.9530   -3.7620   -6.6200 N.3   121  SER121     -0.1217
     24  CA       -11.0990   -3.2190   -5.9150 C.3   121  SER121      0.1889
     25  C        -11.0680   -3.4960   -4.4120 C.2   121  SER121      0.2288
     26  O        -10.4060   -4.4260   -3.9520 O.2   121  SER121     -0.2866
     27  CB       -12.3680   -3.8370   -6.5010 C.3   121  SER121      0.2089
     28  OG       -12.3700   -5.2410   -6.2910 O.3   121  SER121     -0.2183
     29  N        -17.9400    4.0750   -4.0830 N.3   186  MET186     -0.1245
     30  CA       -19.1330    3.8090   -4.8700 C.3   186  MET186      0.1570
     31  C        -20.2480    3.2300   -4.0290 C.2   186  MET186      0.2261
     32  O        -21.4130    3.3270   -4.3980 O.2   186  MET186     -0.2867
     33  CB       -18.8340    2.8650   -6.0470 C.3   186  MET186      0.0387
     34  CG       -18.0780    3.5080   -7.2210 C.3   186  MET186      0.0595
     35  SD       -18.9860    4.8590   -8.0130 S.3   186  MET186     -0.1393
     36  CE       -20.6590    4.2160   -8.0380 C.3   186  MET186      0.0692
     37  N        -15.7220   12.6370  -10.3370 N.3   231  ASP231     -0.1225
     38  CA       -15.2020   11.2850  -10.3880 C.3   231  ASP231      0.1805
     39  C        -15.9560   10.4340  -11.3970 C.2   231  ASP231      0.2597
     40  O        -15.3800    9.5440  -12.0300 O.2   231  ASP231     -0.2718
     41  CB       -15.2600   10.6310   -9.0100 C.3   231  ASP231      0.1424
     42  CG       -14.1950    9.5850   -8.8360 C.2   231  ASP231      0.3668
     43  OD1      -13.1730    9.6860   -9.5520 O.co2 231  ASP231     -0.2456
     44  OD2      -14.3760    8.6800   -8.0020 O.co2 231  ASP231     -0.2456
     45  N        -17.2490   10.7030  -11.5510 N.am  232  LEU232     -0.1979
     46  CA       -18.0290    9.9810  -12.5380 C.3   232  LEU232      0.1596
     47  C        -18.2750   10.8180  -13.7900 C.2   232  LEU232      0.2287
     48  O        -19.3190   10.6870  -14.4450 O.2   232  LEU232     -0.2864
     49  CB       -19.3360    9.4910  -11.9350 C.3   232  LEU232      0.0297
     50  CG       -19.1520    8.3590  -10.9300 C.3   232  LEU232      0.0022
     51  CD1      -20.4700    7.9550  -10.2940 C.3   232  LEU232      0.0001
     52  CD2      -18.5130    7.1700  -11.6180 C.3   232  LEU232      0.0001
     53  N        -16.5070   11.0280  -16.7100 N.3   234  ASN234     -0.1226
     54  CA       -15.9950   10.5270  -17.9880 C.3   234  ASN234      0.1770
     55  C        -17.0060   10.4360  -19.1290 C.2   234  ASN234      0.2439
     56  O        -16.7090   10.8350  -20.2430 O.2   234  ASN234     -0.2733
     57  CB       -15.2790    9.1750  -17.7960 C.3   234  ASN234      0.1168
     58  CG       -14.4070    9.1550  -16.5570 C.2   234  ASN234      0.2627
     59  OD1      -14.9150    9.1560  -15.4430 O.2   234  ASN234     -0.2716
     60  ND2      -13.0950    9.1590  -16.7440 N.am  234  ASN234     -0.0877
     61  N        -18.2010    9.8880  -18.8690 N.am  235  PRO235     -0.2729
     62  CA       -19.1450    9.7480  -19.9870 C.3   235  PRO235      0.1401
     63  C        -19.8380   11.0650  -20.3630 C.2   235  PRO235      0.2269
     64  O        -20.6070   11.1000  -21.3120 O.2   235  PRO235     -0.2865
     65  CB       -20.1650    8.7400  -19.4580 C.3   235  PRO235      0.0296
     66  CG       -19.5160    8.1120  -18.2650 C.3   235  PRO235      0.0237
     67  CD       -18.6670    9.1810  -17.6720 C.3   235  PRO235      0.0939
     68  N        -14.0560   10.0950  -23.5840 N.3   242  TYR242     -0.1241
     69  CA       -14.8350    9.0180  -22.9720 C.3   242  TYR242      0.1605
     70  C        -14.3410    7.6350  -23.4010 C.2   242  TYR242      0.2264
     71  O        -14.2370    6.7250  -22.5880 O.2   242  TYR242     -0.2867
     72  CB       -16.3190    9.1910  -23.3280 C.3   242  TYR242      0.0534
     73  CG       -17.2910    8.1670  -22.7550 C.ar  242  TYR242     -0.0201
     74  CD1      -16.9190    7.2800  -21.7470 C.ar  242  TYR242     -0.0009
     75  CD2      -18.5960    8.1060  -23.2190 C.ar  242  TYR242     -0.0009
     76  CE1      -17.8300    6.3520  -21.2230 C.ar  242  TYR242      0.0417
     77  CE2      -19.5050    7.1960  -22.7110 C.ar  242  TYR242      0.0417
     78  CZ       -19.1200    6.3190  -21.7090 C.ar  242  TYR242      0.1957
     79  OH       -20.0390    5.4100  -21.2260 O.3   242  TYR242     -0.2866
     80  N        -11.0440    6.5870  -21.8070 N.3   245  TRP245     -0.1227
     81  CA       -11.2530    6.2320  -20.4030 C.3   245  TRP245      0.1737
     82  C        -11.9060    4.8660  -20.2810 C.2   245  TRP245      0.2596
     83  O        -11.5280    4.0630  -19.4370 O.2   245  TRP245     -0.2718
     84  CB       -12.1120    7.2600  -19.6760 C.3   245  TRP245      0.0564
     85  CG       -11.4450    8.5650  -19.4470 C.ar  245  TRP245      0.0003
     86  CD1      -11.8790    9.7850  -19.8680 C.ar  245  TRP245      0.0946
     87  CD2      -10.2260    8.7990  -18.7320 C.ar  245  TRP245      0.0152
     88  NE1      -11.0130   10.7610  -19.4600 N.ar  245  TRP245     -0.2442
     89  CE2       -9.9880   10.1890  -18.7610 C.ar  245  TRP245      0.0810
     90  CE3       -9.3150    7.9740  -18.0710 C.ar  245  TRP245      0.0012
     91  CZ2       -8.8760   10.7740  -18.1570 C.ar  245  TRP245      0.0191
     92  CZ3       -8.2120    8.5530  -17.4750 C.ar  245  TRP245      0.0001
     93  CH2       -7.9970    9.9410  -17.5260 C.ar  245  TRP245      0.0015
     94  N        -12.8870    4.6120  -21.1320 N.am  246  THR246     -0.1953
     95  CA       -13.5500    3.3250  -21.1330 C.3   246  THR246      0.1897
     96  C        -12.5310    2.2280  -21.3940 C.2   246  THR246      0.2313
     97  O        -12.4480    1.2660  -20.6430 O.2   246  THR246     -0.2863
     98  CB       -14.6680    3.2850  -22.1670 C.3   246  THR246      0.1794
     99  OG1      -15.7230    4.1540  -21.7410 O.3   246  THR246     -0.2208
    100  CG2      -15.2100    1.8740  -22.3220 C.3   246  THR246      0.0378
    101  N        -10.3250    1.8370  -18.0790 N.3   249  ILE249     -0.1231
    102  CA       -10.9380    1.2350  -16.9200 C.3   249  ILE249      0.1692
    103  C        -11.1860   -0.2510  -17.2000 C.2   249  ILE249      0.2591
    104  O        -11.1170   -1.0770  -16.2930 O.2   249  ILE249     -0.2718
    105  CB       -12.2530    1.9270  -16.5350 C.3   249  ILE249      0.0266
    106  CG1      -12.5530    1.6930  -15.0550 C.3   249  ILE249      0.0019
    107  CG2      -13.3790    1.4090  -17.4000 C.3   249  ILE249      0.0020
    108  CD1      -13.5500    2.6350  -14.4830 C.3   249  ILE249      0.0001
    109  N        -11.4540   -0.5890  -18.4570 N.am  250  MET250     -0.1979
    110  CA       -11.6920   -1.9820  -18.8150 C.3   250  MET250      0.1605
    111  C        -10.3850   -2.7850  -18.8030 C.2   250  MET250      0.2287
    112  O        -10.3660   -3.9570  -18.4330 O.2   250  MET250     -0.2864
    113  CB       -12.4060   -2.0950  -20.1630 C.3   250  MET250      0.0413
    114  CG       -13.8310   -1.5630  -20.1570 C.3   250  MET250      0.0598
    115  SD       -14.8210   -2.1510  -18.7620 S.3   250  MET250     -0.1393
    116  CE       -14.8150   -3.9260  -19.0320 C.3   250  MET250      0.0692
    117  N         -9.8750   -3.3910  -15.0690 N.3   253  PHE253     -0.1241
    118  CA       -10.7850   -4.4460  -14.6670 C.3   253  PHE253      0.1605
    119  C        -10.3660   -5.8230  -15.1910 C.2   253  PHE253      0.2264
    120  O        -10.4230   -6.8240  -14.4740 O.2   253  PHE253     -0.2867
    121  CB       -12.2190   -4.1140  -15.0980 C.3   253  PHE253      0.0534
    122  CG       -12.8440   -2.9750  -14.3170 C.ar  253  PHE253     -0.0203
    123  CD1      -12.1590   -2.3650  -13.2690 C.ar  253  PHE253     -0.0042
    124  CD2      -14.1250   -2.5140  -14.6280 C.ar  253  PHE253     -0.0042
    125  CE1      -12.7350   -1.3200  -12.5600 C.ar  253  PHE253     -0.0003
    126  CE2      -14.7020   -1.4730  -13.9090 C.ar  253  PHE253     -0.0003
    127  CZ       -14.0030   -0.8790  -12.8740 C.ar  253  PHE253     -0.0000
    128  N         -7.5120   -7.1820  -13.1700 N.3   256  GLN256     -0.1245
    129  CA        -7.9740   -7.7380  -11.8990 C.3   256  GLN256      0.1566
    130  C         -8.6140   -9.1100  -12.1140 C.2   256  GLN256      0.2260
    131  O         -8.3600  -10.0520  -11.3470 O.2   256  GLN256     -0.2867
    132  CB        -8.9230   -6.7940  -11.1560 C.3   256  GLN256      0.0367
    133  CG        -9.6150   -7.4640   -9.9700 C.3   256  GLN256      0.0905
    134  CD       -10.4430   -6.5140   -9.1130 C.2   256  GLN256      0.2608
    135  OE1      -10.3230   -5.2900   -9.2140 O.2   256  GLN256     -0.2717
    136  NE2      -11.2990   -7.0820   -8.2640 N.am  256  GLN256     -0.0878
    137  N        -15.1860  -11.5340  -11.2460 N.3   268  SER268     -0.1217
    138  CA       -16.2390  -10.5490  -11.0690 C.3   268  SER268      0.1889
    139  C        -17.1190  -10.3760  -12.3220 C.2   268  SER268      0.2288
    140  O        -17.8390   -9.3790  -12.4220 O.2   268  SER268     -0.2866
    141  CB       -15.6080   -9.2100  -10.6790 C.3   268  SER268      0.2089
    142  OG       -14.6510   -9.3760   -9.6440 O.3   268  SER268     -0.2183
    143  N        -17.4450   -8.8820  -14.6690 N.3   270  MET270     -0.1230
    144  CA       -17.3810   -7.5870  -15.3260 C.3   270  MET270      0.1702
    145  C        -15.8990   -7.3300  -15.5090 C.2   270  MET270      0.2592
    146  O        -15.4910   -6.4570  -16.2780 O.2   270  MET270     -0.2718
    147  CB       -17.9830   -6.4960  -14.4510 C.3   270  MET270      0.0401
    148  CG       -17.2470   -6.2700  -13.1500 C.3   270  MET270      0.0596
    149  SD       -17.4820   -4.5830  -12.5460 S.3   270  MET270     -0.1393
    150  CE       -19.2510   -4.5690  -12.1770 C.3   270  MET270      0.0692
    151  N        -15.1090   -8.1150  -14.7740 N.am  271  CYS271     -0.1970
    152  CA       -13.6560   -8.1420  -14.8830 C.3   271  CYS271      0.1712
    153  C        -13.1760   -9.2720  -15.8120 C.2   271  CYS271      0.2296
    154  O        -11.9760   -9.4480  -16.0240 O.2   271  CYS271     -0.2864
    155  CB       -13.0310   -8.3430  -13.5010 C.3   271  CYS271      0.0983
    156  SG       -13.1920   -6.9700  -12.3310 S.3   271  CYS271     -0.0798
    157  N        -22.3250   -2.5260  -21.0650 N.3   281  SER281     -0.1202
    158  CA       -22.0900   -2.1590  -19.6660 C.3   281  SER281      0.2020
    159  C        -22.0390   -0.6550  -19.4670 C.2   281  SER281      0.2618
    160  O        -22.6010   -0.1360  -18.5060 O.2   281  SER281     -0.2717
    161  CB       -20.8170   -2.8210  -19.1180 C.3   281  SER281      0.2103
    162  OG       -21.0030   -4.2190  -19.0280 O.3   281  SER281     -0.2182
    163  N        -21.3520    0.0400  -20.3700 N.am  282  GLN282     -0.1979
    164  CA       -21.3290    1.4950  -20.3380 C.3   282  GLN282      0.1601
    165  C        -22.7470    2.0780  -20.3770 C.2   282  GLN282      0.2287
    166  O        -23.0700    3.0030  -19.6350 O.2   282  GLN282     -0.2864
    167  CB       -20.4730    2.0330  -21.4740 C.3   282  GLN282      0.0394
    168  CG       -18.9900    1.8580  -21.2100 C.3   282  GLN282      0.0908
    169  CD       -18.5600    2.5310  -19.9030 C.2   282  GLN282      0.2608
    170  OE1      -19.0910    3.5770  -19.5400 O.2   282  GLN282     -0.2717
    171  NE2      -17.6080    1.9260  -19.1930 N.am  282  GLN282     -0.0878
    172  N        -24.3190    1.3480  -17.0720 N.3   285  PHE285     -0.1241
    173  CA       -23.7030    2.2030  -16.0740 C.3   285  PHE285      0.1605
    174  C        -24.2470    3.6360  -16.1600 C.2   285  PHE285      0.2264
    175  O        -24.5290    4.2590  -15.1310 O.2   285  PHE285     -0.2867
    176  CB       -22.1890    2.1750  -16.2400 C.3   285  PHE285      0.0534
    177  CG       -21.4370    2.7740  -15.0880 C.ar  285  PHE285     -0.0203
    178  CD1      -21.4890    2.1930  -13.8310 C.ar  285  PHE285     -0.0042
    179  CD2      -20.6500    3.9000  -15.2690 C.ar  285  PHE285     -0.0042
    180  CE1      -20.7860    2.7380  -12.7710 C.ar  285  PHE285     -0.0003
    181  CE2      -19.9370    4.4470  -14.2170 C.ar  285  PHE285     -0.0003
    182  CZ       -20.0130    3.8690  -12.9650 C.ar  285  PHE285     -0.0000
    183  N        -24.6030    6.9870  -13.7740 N.3   290  VAL290     -0.1245
    184  CA       -24.1130    8.2870  -14.2220 C.3   290  VAL290      0.1561
    185  C        -25.2190    9.3030  -14.5790 C.2   290  VAL290      0.2260
    186  O        -25.1170   10.4930  -14.2640 O.2   290  VAL290     -0.2867
    187  CB       -23.1080    8.1250  -15.3740 C.3   290  VAL290      0.0252
    188  CG1      -22.5190    9.4570  -15.7700 C.3   290  VAL290      0.0019
    189  CG2      -22.0020    7.1860  -14.9510 C.3   290  VAL290      0.0019
@<TRIPOS>BOND
     1    68    69    1
     2    70    69    1
     3    70    71    2
     4    72    69    1
     5    72    73    1
     6    75    73   ar
     7    75    77   ar
     8    73    74   ar
     9    77    78   ar
    10   100    98    1
    11    98    99    1
    12    98    95    1
    13    80    81    1
    14    74    76   ar
    15    78    79    1
    16    78    76   ar
    17   167   168    1
    18   167   164    1
    19    96    95    1
    20    96    97    2
    21    64    63    2
    22   168   169    1
    23    95    94    1
    24    94    82   am
    25   157   158    1
    26    81    82    1
    27    81    84    1
    28   165   164    1
    29   165   166    2
    30   163   164    1
    31   163   159   am
    32    63    62    1
    33    82    83    2
    34    56    55    2
    35   113   114    1
    36   113   110    1
    37   114   115    1
    38    62    65    1
    39    62    61    1
    40   169   170    2
    41   169   171   am
    42    86    88   ar
    43    86    85   ar
    44    84    85    1
    45   158   159    1
    46   158   161    1
    47   159   160    2
    48    88    89   ar
    49    65    66    1
    50    85    87   ar
    51    55    61   am
    52    55    54    1
    53   161   162    1
    54   116   115    1
    55    61    67    1
    56   110   111    1
    57   110   109    1
    58   111   112    2
    59    89    87   ar
    60    89    91   ar
    61    87    90   ar
    62   109   103   am
    63    66    67    1
    64    91    93   ar
    65   101   102    1
    66    90    92   ar
    67    54    57    1
    68    54    53    1
    69    57    58    1
    70    93    92   ar
    71   107   105    1
    72   103   102    1
    73   103   104    2
    74   172   173    1
    75   102   105    1
    76    60    58   am
    77    58    59    2
    78   105   106    1
    79   146   145    2
    80   176   173    1
    81   176   177    1
    82   174   173    1
    83   174   175    2
    84   154   153    2
    85   153   152    1
    86   188   187    1
    87     7     9   ar
    88     7     6   ar
    89   145   144    1
    90   145   151   am
    91     9    11   ar
    92   187   189    1
    93   187   184    1
    94     1     2    1
    95   144   143    1
    96   144   147    1
    97   179   177   ar
    98   179   181   ar
    99   119   118    1
   100   119   120    2
   101   121   118    1
   102   121   122    1
   103   177   178   ar
   104     2     5    1
   105     2     3    1
   106   117   118    1
   107   106   108    1
   108     5     6    1
   109   152   151    1
   110   152   155    1
   111     6     8   ar
   112   124   122   ar
   113   124   126   ar
   114   185   186    2
   115   185   184    1
   116   147   148    1
   117    48    47    2
   118   122   123   ar
   119   184   183    1
   120   181   182   ar
   121    11    12    1
   122    11    10   ar
   123     4     3    2
   124   126   127   ar
   125     3    13   am
   126   178   180   ar
   127    47    46    1
   128   155   156    1
   129     8    10   ar
   130   123   125   ar
   131   128   129    1
   132   148   149    1
   133   182   180   ar
   134   127   125   ar
   135    13    14    1
   136   149   150    1
   137    46    49    1
   138    46    45    1
   139   140   139    2
   140   139   138    1
   141   130   129    1
   142   130   131    2
   143    40    39    2
   144    49    50    1
   145   129   132    1
   146    52    50    1
   147    45    39   am
   148    14    15    1
   149    14    17    1
   150    39    38    1
   151   137   138    1
   152    15    16    2
   153   132   133    1
   154   138   141    1
   155    50    51    1
   156   141   142    1
   157    19    21   ar
   158    19    18   ar
   159    21    22   ar
   160    38    37    1
   161    38    41    1
   162    17    18    1
   163    18    20   ar
   164   133   134    1
   165    22    20   ar
   166    43    42   ar
   167   135   134    2
   168   134   136   am
   169    41    42    1
   170    42    44   ar
   171    36    35    1
   172    35    34    1
   173    34    33    1
   174    23    24    1
   175    27    28    1
   176    27    24    1
   177    33    30    1
   178    24    25    1
   179    30    29    1
   180    30    31    1
   181    25    26    2
   182    32    31    2
