@<TRIPOS>MOLECULE
tmp/3sl8B00.pdb
 195 192 0 0 0
SMALL
GASTEIGER

@<TRIPOS>ATOM
      1  N         55.7880   -2.8430  -15.1990 N.3    71  TYR71      -0.1227
      2  CA        56.8220   -3.8270  -14.8980 C.3    71  TYR71       0.1736
      3  C         56.5800   -4.7350  -13.6860 C.2    71  TYR71       0.2595
      4  O         56.5200   -5.9450  -13.8200 O.2    71  TYR71      -0.2718
      5  CB        58.1870   -3.1830  -14.7560 C.3    71  TYR71       0.0548
      6  CG        59.2350   -4.2330  -14.5550 C.ar   71  TYR71      -0.0200
      7  CD1       59.7860   -4.9010  -15.6380 C.ar   71  TYR71      -0.0009
      8  CD2       59.6440   -4.5940  -13.2820 C.ar   71  TYR71      -0.0009
      9  CE1       60.7310   -5.8740  -15.4610 C.ar   71  TYR71       0.0417
     10  CE2       60.5970   -5.5740  -13.0960 C.ar   71  TYR71       0.0417
     11  CZ        61.1330   -6.2140  -14.1840 C.ar   71  TYR71       0.1957
     12  OH        62.0810   -7.1940  -13.9920 O.3    71  TYR71      -0.2866
     13  N         56.4680   -4.1460  -12.5040 N.am   72  HIS72      -0.1975
     14  CA        56.2950   -4.9100  -11.2750 C.3    72  HIS72       0.1656
     15  C         54.9170   -5.5390  -11.0800 C.2    72  HIS72       0.2291
     16  O         54.2950   -5.3770  -10.0310 O.2    72  HIS72      -0.2864
     17  CB        56.6640   -4.0380  -10.0900 C.3    72  HIS72       0.0771
     18  CG        58.0960   -3.6200  -10.1050 C.ar   72  HIS72       0.0820
     19  ND1       58.5070   -2.3970  -10.5830 N.ar   72  HIS72      -0.2267
     20  CD2       59.2200   -4.2820   -9.7470 C.ar   72  HIS72       0.1154
     21  CE1       59.8230   -2.3130  -10.5000 C.ar   72  HIS72       0.1986
     22  NE2       60.2770   -3.4450   -9.9970 N.ar   72  HIS72      -0.2212
     23  N         67.6290   -3.8980   -3.7700 N.3   185  MET185     -0.1245
     24  CA        68.8460   -3.7010   -4.5520 C.3   185  MET185      0.1570
     25  C         69.9760   -3.0790   -3.7460 C.2   185  MET185      0.2261
     26  O         71.1430   -3.2710   -4.0490 O.2   185  MET185     -0.2867
     27  CB        68.5670   -2.8610   -5.7910 C.3   185  MET185      0.0387
     28  CG        67.5600   -3.4730   -6.7750 C.3   185  MET185      0.0595
     29  SD        68.1940   -4.8570   -7.7540 S.3   185  MET185     -0.1393
     30  CE        69.9570   -4.4560   -7.8310 C.3   185  MET185      0.0692
     31  N         72.4800   -5.5960   -2.8470 N.3   188  HIS188     -0.1226
     32  CA        73.1120   -6.2790   -3.9580 C.3   188  HIS188      0.1752
     33  C         74.5960   -6.5740   -3.7730 C.2   188  HIS188      0.2595
     34  O         75.0150   -7.7280   -3.8890 O.2   188  HIS188     -0.2718
     35  CB        72.9310   -5.4470   -5.2220 C.3   188  HIS188      0.0759
     36  CG        73.7020   -5.9670   -6.3890 C.ar  188  HIS188      0.0818
     37  ND1       73.4400   -7.1930   -6.9620 N.ar  188  HIS188     -0.2268
     38  CD2       74.7350   -5.4350   -7.0840 C.ar  188  HIS188      0.1154
     39  CE1       74.2750   -7.3910   -7.9670 C.ar  188  HIS188      0.1986
     40  NE2       75.0690   -6.3380   -8.0640 N.ar  188  HIS188     -0.2212
     41  N         75.3810   -5.5240   -3.5170 N.am  189  MET189     -0.1979
     42  CA        76.8280   -5.6420   -3.3620 C.3   189  MET189      0.1605
     43  C         77.2550   -6.6840   -2.3300 C.2   189  MET189      0.2287
     44  O         78.1910   -7.4610   -2.5520 O.2   189  MET189     -0.2864
     45  CB        77.4410   -4.2830   -3.0100 C.3   189  MET189      0.0413
     46  CG        77.5060   -3.3140   -4.1940 C.3   189  MET189      0.0598
     47  SD        78.4360   -4.0300   -5.5680 S.3   189  MET189     -0.1393
     48  CE        78.1990   -2.8010   -6.8610 C.3   189  MET189      0.0692
     49  N         65.2080  -12.5620  -10.1030 N.3   230  ASP230     -0.1225
     50  CA        64.7830  -11.1660  -10.1500 C.3   230  ASP230      0.1805
     51  C         65.5070  -10.3730  -11.2510 C.2   230  ASP230      0.2597
     52  O         64.8620   -9.6330  -11.9990 O.2   230  ASP230     -0.2718
     53  CB        64.9580  -10.4770   -8.7870 C.3   230  ASP230      0.1424
     54  CG        63.8670   -9.4790   -8.5060 C.2   230  ASP230      0.3668
     55  OD1       62.9240   -9.3960   -9.3240 O.co2 230  ASP230     -0.2456
     56  OD2       63.9410   -8.7920   -7.4670 O.co2 230  ASP230     -0.2456
     57  N         66.8340  -10.5130  -11.3370 N.am  231  LEU231     -0.1979
     58  CA        67.6010   -9.8710  -12.4080 C.3   231  LEU231      0.1596
     59  C         67.8840  -10.8290  -13.5540 C.2   231  LEU231      0.2287
     60  O         69.0230  -10.9530  -13.9780 O.2   231  LEU231     -0.2864
     61  CB        68.9270   -9.3380  -11.8860 C.3   231  LEU231      0.0297
     62  CG        68.8850   -8.2850  -10.7850 C.3   231  LEU231      0.0022
     63  CD1       70.2860   -7.8740  -10.4140 C.3   231  LEU231      0.0001
     64  CD2       68.0610   -7.0740  -11.2120 C.3   231  LEU231      0.0001
     65  N         66.3250  -10.8290  -16.5840 N.3   233  ASN233     -0.1226
     66  CA        65.7560  -10.3430  -17.8440 C.3   233  ASN233      0.1770
     67  C         66.7220  -10.2790  -19.0170 C.2   233  ASN233      0.2439
     68  O         66.3880  -10.7340  -20.1020 O.2   233  ASN233     -0.2733
     69  CB        65.0150   -9.0150  -17.6430 C.3   233  ASN233      0.1168
     70  CG        64.0240   -9.0920  -16.5140 C.2   233  ASN233      0.2627
     71  OD1       64.4190   -9.1440  -15.3480 O.2   233  ASN233     -0.2716
     72  ND2       62.7320   -9.1510  -16.8440 N.am  233  ASN233     -0.0877
     73  N         67.9260   -9.7330  -18.8010 N.am  234  PRO234     -0.2729
     74  CA        68.8890   -9.6620  -19.9020 C.3   234  PRO234      0.1401
     75  C         69.4930  -11.0260  -20.2640 C.2   234  PRO234      0.2269
     76  O         70.1990  -11.1090  -21.2620 O.2   234  PRO234     -0.2865
     77  CB        69.9720   -8.7270  -19.3580 C.3   234  PRO234      0.0296
     78  CG        69.3560   -8.0460  -18.1800 C.3   234  PRO234      0.0237
     79  CD        68.4230   -9.0470  -17.6000 C.3   234  PRO234      0.0939
     80  N         63.6570  -10.0380  -23.4270 N.3   241  TYR241     -0.1241
     81  CA        64.4290   -8.9470  -22.8710 C.3   241  TYR241      0.1605
     82  C         63.8920   -7.5800  -23.3190 C.2   241  TYR241      0.2264
     83  O         63.6560   -6.7060  -22.4920 O.2   241  TYR241     -0.2867
     84  CB        65.8960   -9.1380  -23.2560 C.3   241  TYR241      0.0534
     85  CG        66.8470   -8.1340  -22.6700 C.ar  241  TYR241     -0.0201
     86  CD1       66.4800   -7.3500  -21.5840 C.ar  241  TYR241     -0.0009
     87  CD2       68.1240   -7.9820  -23.1890 C.ar  241  TYR241     -0.0009
     88  CE1       67.3480   -6.4310  -21.0410 C.ar  241  TYR241      0.0417
     89  CE2       69.0110   -7.0640  -22.6490 C.ar  241  TYR241      0.0417
     90  CZ        68.6140   -6.2840  -21.5740 C.ar  241  TYR241      0.1957
     91  OH        69.4810   -5.3540  -21.0390 O.3   241  TYR241     -0.2866
     92  N         60.5250   -6.7240  -21.7330 N.3   244  TRP244     -0.1227
     93  CA        60.7770   -6.3220  -20.3480 C.3   244  TRP244      0.1737
     94  C         61.3840   -4.9280  -20.3000 C.2   244  TRP244      0.2596
     95  O         60.9480   -4.0790  -19.5220 O.2   244  TRP244     -0.2718
     96  CB        61.6800   -7.3140  -19.6180 C.3   244  TRP244      0.0564
     97  CG        61.0340   -8.6480  -19.3630 C.ar  244  TRP244      0.0003
     98  CD1       61.4450   -9.8540  -19.8450 C.ar  244  TRP244      0.0946
     99  CD2       59.8580   -8.9120  -18.5700 C.ar  244  TRP244      0.0152
    100  NE1       60.6070  -10.8480  -19.4070 N.ar  244  TRP244     -0.2442
    101  CE2       59.6240  -10.3030  -18.6250 C.ar  244  TRP244      0.0810
    102  CE3       58.9870   -8.1110  -17.8170 C.ar  244  TRP244      0.0012
    103  CZ2       58.5610  -10.9130  -17.9600 C.ar  244  TRP244      0.0191
    104  CZ3       57.9250   -8.7200  -17.1510 C.ar  244  TRP244      0.0001
    105  CH2       57.7160  -10.1060  -17.2350 C.ar  244  TRP244      0.0015
    106  N         62.3700   -4.6790  -21.1500 N.am  245  THR245     -0.1953
    107  CA        62.9860   -3.3620  -21.1850 C.3   245  THR245      0.1897
    108  C         61.9500   -2.2770  -21.4670 C.2   245  THR245      0.2313
    109  O         61.9070   -1.2660  -20.7730 O.2   245  THR245     -0.2863
    110  CB        64.1370   -3.3020  -22.1930 C.3   245  THR245      0.1794
    111  OG1       65.1560   -4.2250  -21.7920 O.3   245  THR245     -0.2208
    112  CG2       64.7330   -1.9090  -22.2300 C.3   245  THR245      0.0378
    113  N         59.8100   -1.8710  -18.2010 N.3   248  ILE248     -0.1231
    114  CA        60.5020   -1.2680  -17.0700 C.3   248  ILE248      0.1692
    115  C         60.7040    0.2350  -17.3240 C.2   248  ILE248      0.2591
    116  O         60.6530    1.0530  -16.3970 O.2   248  ILE248     -0.2718
    117  CB        61.8500   -1.9570  -16.7780 C.3   248  ILE248      0.0266
    118  CG1       62.4560   -1.4390  -15.4790 C.3   248  ILE248      0.0019
    119  CG2       62.8290   -1.6980  -17.8910 C.3   248  ILE248      0.0020
    120  CD1       61.5680   -1.5950  -14.2910 C.3   248  ILE248      0.0001
    121  N         60.9070    0.6040  -18.5820 N.am  249  MET249     -0.1979
    122  CA        61.1490    2.0100  -18.8990 C.3   249  MET249      0.1605
    123  C         59.8470    2.8220  -18.8940 C.2   249  MET249      0.2287
    124  O         59.8380    3.9960  -18.5240 O.2   249  MET249     -0.2864
    125  CB        61.9400    2.1720  -20.2070 C.3   249  MET249      0.0413
    126  CG        63.3890    1.6500  -20.1420 C.3   249  MET249      0.0598
    127  SD        64.4940    2.3670  -18.8730 S.3   249  MET249     -0.1393
    128  CE        64.4750    4.1100  -19.3040 C.3   249  MET249      0.0692
    129  N         59.5290    3.6080  -15.0920 N.3   252  PHE252     -0.1241
    130  CA        60.4280    4.6840  -14.6870 C.3   252  PHE252      0.1605
    131  C         59.9770    6.0660  -15.2050 C.2   252  PHE252      0.2264
    132  O         59.9520    7.0550  -14.4620 O.2   252  PHE252     -0.2867
    133  CB        61.8780    4.3680  -15.0870 C.3   252  PHE252      0.0534
    134  CG        62.4640    3.1830  -14.3490 C.ar  252  PHE252     -0.0203
    135  CD1       61.7250    2.5200  -13.3730 C.ar  252  PHE252     -0.0042
    136  CD2       63.7490    2.7280  -14.6290 C.ar  252  PHE252     -0.0042
    137  CE1       62.2460    1.4290  -12.7020 C.ar  252  PHE252     -0.0003
    138  CE2       64.2770    1.6350  -13.9570 C.ar  252  PHE252     -0.0003
    139  CZ        63.5320    0.9880  -12.9950 C.ar  252  PHE252     -0.0000
    140  N         67.3990    9.3860  -11.9000 N.3   268  PRO268     -0.2102
    141  CA        68.3300    9.0080  -12.9740 C.3   268  PRO268      0.1504
    142  C         67.5940    8.2480  -14.0640 C.2   268  PRO268      0.2575
    143  O         66.9980    7.2060  -13.7760 O.2   268  PRO268     -0.2718
    144  CB        69.3200    8.0600  -12.2750 C.3   268  PRO268      0.0282
    145  CG        69.1860    8.3380  -10.8210 C.3   268  PRO268      0.0208
    146  CD        67.7550    8.7510  -10.6170 C.3   268  PRO268      0.0893
    147  N         67.6340    8.7580  -15.2910 N.am  269  MET269     -0.1980
    148  CA        66.9330    8.1190  -16.4050 C.3   269  MET269      0.1605
    149  C         65.4980    7.7040  -16.0460 C.2   269  MET269      0.2287
    150  O         64.9620    6.7440  -16.6020 O.2   269  MET269     -0.2864
    151  CB        67.7240    6.9160  -16.9470 C.3   269  MET269      0.0413
    152  CG        69.0340    7.2750  -17.6600 C.3   269  MET269      0.0598
    153  SD        70.3120    7.9280  -16.5480 S.3   269  MET269     -0.1393
    154  CE        71.6570    8.2410  -17.6950 C.3   269  MET269      0.0692
    155  N         71.7250    2.6340  -21.0140 N.3   280  SER280     -0.1202
    156  CA        71.4660    2.3090  -19.6160 C.3   280  SER280      0.2020
    157  C         71.4410    0.8080  -19.3970 C.2   280  SER280      0.2618
    158  O         71.9850    0.3020  -18.4080 O.2   280  SER280     -0.2717
    159  CB        70.1680    2.9570  -19.1320 C.3   280  SER280      0.2103
    160  OG        70.3280    4.3610  -19.0610 O.3   280  SER280     -0.2182
    161  N         70.8050    0.1020  -20.3250 N.am  281  GLN281     -0.1979
    162  CA        70.8010   -1.3430  -20.2910 C.3   281  GLN281      0.1601
    163  C         72.2320   -1.8690  -20.3350 C.2   281  GLN281      0.2287
    164  O         72.6250   -2.6910  -19.5100 O.2   281  GLN281     -0.2864
    165  CB        69.9710   -1.8930  -21.4400 C.3   281  GLN281      0.0394
    166  CG        68.4960   -1.5950  -21.2750 C.3   281  GLN281      0.0908
    167  CD        67.9340   -2.1430  -19.9740 C.2   281  GLN281      0.2608
    168  OE1       68.3700   -3.1900  -19.4900 O.2   281  GLN281     -0.2717
    169  NE2       66.9610   -1.4370  -19.4010 N.am  281  GLN281     -0.0878
    170  N         73.8200   -1.2080  -17.0930 N.3   284  PHE284     -0.1241
    171  CA        73.2250   -2.0530  -16.0820 C.3   284  PHE284      0.1605
    172  C         73.7740   -3.4790  -16.1840 C.2   284  PHE284      0.2264
    173  O         74.0270   -4.1310  -15.1640 O.2   284  PHE284     -0.2867
    174  CB        71.7090   -2.0290  -16.2420 C.3   284  PHE284      0.0534
    175  CG        70.9700   -2.7590  -15.1670 C.ar  284  PHE284     -0.0203
    176  CD1       71.1260   -2.4060  -13.8360 C.ar  284  PHE284     -0.0042
    177  CD2       70.0960   -3.7910  -15.4850 C.ar  284  PHE284     -0.0042
    178  CE1       70.4360   -3.0830  -12.8350 C.ar  284  PHE284     -0.0003
    179  CE2       69.4060   -4.4720  -14.4910 C.ar  284  PHE284     -0.0003
    180  CZ        69.5760   -4.1190  -13.1680 C.ar  284  PHE284     -0.0000
    181  N         76.0770   -4.5010  -13.0570 N.3   288  ILE288     -0.1231
    182  CA        75.1700   -5.2020  -12.1590 C.3   288  ILE288      0.1692
    183  C         74.8770   -6.6510  -12.5740 C.2   288  ILE288      0.2591
    184  O         75.2010   -7.5930  -11.8540 O.2   288  ILE288     -0.2718
    185  CB        73.8570   -4.3890  -11.9410 C.3   288  ILE288      0.0266
    186  CG1       74.1710   -3.0460  -11.2720 C.3   288  ILE288      0.0019
    187  CG2       72.8650   -5.1540  -11.0840 C.3   288  ILE288      0.0020
    188  CD1       74.8170   -3.2020   -9.8980 C.3   288  ILE288      0.0001
    189  N         74.2860   -6.8330  -13.7440 N.am  289  VAL289     -0.1980
    190  CA        73.7560   -8.1330  -14.1120 C.3   289  VAL289      0.1595
    191  C         74.8150   -9.1580  -14.4990 C.2   289  VAL289      0.2287
    192  O         74.6950  -10.3460  -14.1940 O.2   289  VAL289     -0.2864
    193  CB        72.7640   -7.9780  -15.2360 C.3   289  VAL289      0.0276
    194  CG1       72.2560   -9.3300  -15.6740 C.3   289  VAL289      0.0022
    195  CG2       71.6370   -7.1070  -14.7530 C.3   289  VAL289      0.0022
@<TRIPOS>BOND
     1    80    81    1
     2    82    81    1
     3    82    83    2
     4    84    81    1
     5    84    85    1
     6    87    85   ar
     7    87    89   ar
     8    85    86   ar
     9    89    90   ar
    10   112   110    1
    11   110   111    1
    12   110   107    1
    13    92    93    1
    14    86    88   ar
    15    90    88   ar
    16    90    91    1
    17   108   107    1
    18   108   109    2
    19   165   166    1
    20   165   162    1
    21   166   167    1
    22    76    75    2
    23   107   106    1
    24   106    94   am
    25   155   156    1
    26    93    94    1
    27    93    96    1
    28   163   162    1
    29   163   164    2
    30   161   162    1
    31   161   157   am
    32    94    95    2
    33    75    74    1
    34   125   126    1
    35   125   122    1
    36   126   127    1
    37    68    67    2
    38   167   168    2
    39   167   169   am
    40    74    77    1
    41    74    73    1
    42    98   100   ar
    43    98    97   ar
    44    96    97    1
    45   156   157    1
    46   156   159    1
    47   100   101   ar
    48   157   158    2
    49    97    99   ar
    50    77    78    1
    51   128   127    1
    52   159   160    1
    53    67    73   am
    54    67    66    1
    55   122   123    1
    56   122   121    1
    57   123   124    2
    58    73    79    1
    59   101    99   ar
    60   101   103   ar
    61   121   115   am
    62    99   102   ar
    63   113   114    1
    64    78    79    1
    65   103   105   ar
    66   119   117    1
    67    66    69    1
    68    66    65    1
    69   102   104   ar
    70   154   153    1
    71   152   151    1
    72   152   153    1
    73    69    70    1
    74   115   114    1
    75   115   116    2
    76   105   104   ar
    77   170   171    1
    78   114   117    1
    79   151   148    1
    80    72    70   am
    81   117   118    1
    82   150   149    2
    83    70    71    2
    84   148   149    1
    85   148   147    1
    86   174   171    1
    87   174   175    1
    88   172   171    1
    89   172   173    2
    90   194   193    1
    91     7     9   ar
    92     7     6   ar
    93   177   175   ar
    94   177   179   ar
    95   118   120    1
    96     9    11   ar
    97   147   142   am
    98   193   195    1
    99   193   190    1
   100   131   130    1
   101   131   132    2
   102     1     2    1
   103   175   176   ar
   104   129   130    1
   105   133   130    1
   106   133   134    1
   107     2     5    1
   108     2     3    1
   109     5     6    1
   110   136   134   ar
   111   136   138   ar
   112     6     8   ar
   113   191   192    2
   114   191   190    1
   115   179   180   ar
   116   134   135   ar
   117    11    12    1
   118    11    10   ar
   119   190   189    1
   120   142   143    2
   121   142   141    1
   122    60    59    2
   123   138   139   ar
   124   176   178   ar
   125     4     3    2
   126   189   183   am
   127     3    13   am
   128    59    58    1
   129   135   137   ar
   130     8    10   ar
   131   180   178   ar
   132   181   182    1
   133   139   137   ar
   134   141   144    1
   135   141   140    1
   136   183   182    1
   137   183   184    2
   138    13    14    1
   139    58    61    1
   140    58    57    1
   141   144   145    1
   142   182   185    1
   143    52    51    2
   144   185   186    1
   145   185   187    1
   146   140   146    1
   147    61    62    1
   148    57    51   am
   149    14    15    1
   150    14    17    1
   151   186   188    1
   152    51    50    1
   153    64    62    1
   154    15    16    2
   155   145   146    1
   156    62    63    1
   157    19    21   ar
   158    19    18   ar
   159    21    22   ar
   160    50    49    1
   161    50    53    1
   162    18    17    1
   163    18    20   ar
   164    22    20   ar
   165    55    54   ar
   166    53    54    1
   167    54    56   ar
   168    40    39   ar
   169    40    38   ar
   170    39    37   ar
   171    30    29    1
   172    29    28    1
   173    38    36   ar
   174    37    36   ar
   175    48    47    1
   176    28    27    1
   177    36    35    1
   178    27    24    1
   179    47    46    1
   180    35    32    1
   181    24    23    1
   182    24    25    1
   183    46    45    1
   184    26    25    2
   185    32    33    1
   186    32    31    1
   187    34    33    2
   188    33    41   am
   189    41    42    1
   190    42    45    1
   191    42    43    1
   192    44    43    2
