@<TRIPOS>MOLECULE
tmp/3sl9C01.pdb
 74 72 0 0 0
SMALL
GASTEIGER

@<TRIPOS>ATOM
      1  N         16.4180   37.3480   34.9490 N.3    62  MET62      -0.1230
      2  CA        16.1260   36.6760   36.2660 C.3    62  MET62       0.1702
      3  C         15.0600   35.5750   36.0940 C.2    62  MET62       0.2592
      4  O         15.1720   34.4310   36.5790 O.2    62  MET62      -0.2718
      5  CB        15.6020   37.7350   37.2430 C.3    62  MET62       0.0401
      6  CG        15.0900   37.1500   38.5850 C.3    62  MET62       0.0596
      7  SD        14.3100   38.4280   39.6320 S.3    62  MET62      -0.1393
      8  CE        12.8060   38.9460   38.7360 C.3    62  MET62       0.0692
      9  N         14.0590   35.9440   35.3180 N.am   63  GLN63      -0.1966
     10  CA        12.8350   35.1300   35.0870 C.3    63  GLN63       0.1733
     11  C         13.1230   33.9270   34.1910 C.2    63  GLN63       0.2616
     12  O         12.4330   32.9070   34.2560 O.2    63  GLN63      -0.2715
     13  CB        11.8470   36.0530   34.3380 C.3    63  GLN63       0.0408
     14  CG        10.4210   35.6450   34.2810 C.3    63  GLN63       0.0908
     15  CD         9.6010   36.6330   33.4670 C.2    63  GLN63       0.2608
     16  OE1        9.7680   36.7620   32.2560 O.2    63  GLN63      -0.2717
     17  NE2        8.7150   37.3430   34.1360 N.am   63  GLN63      -0.0878
     18  N         14.0980   34.0850   33.2930 N.am   64  ASN64      -0.1958
     19  CA        14.3600   33.0920   32.2300 C.3    64  ASN64       0.1819
     20  C         15.5600   32.2200   32.5090 C.2    64  ASN64       0.2622
     21  O         15.5750   31.0810   32.0970 O.2    64  ASN64      -0.2715
     22  CB        14.4610   33.7760   30.8480 C.3    64  ASN64       0.1195
     23  CG        13.0770   34.2270   30.3200 C.2    64  ASN64       0.2630
     24  OD1       12.0820   33.5520   30.5780 O.2    64  ASN64      -0.2716
     25  ND2       13.0120   35.3560   29.5770 N.am   64  ASN64      -0.0877
     26  N         16.5510   32.7130   33.2430 N.am   65  THR65      -0.1937
     27  CA        17.7860   31.9250   33.4520 C.3    65  THR65       0.2028
     28  C         17.5930   30.5360   34.1410 C.2    65  THR65       0.2642
     29  O         16.6500   30.3200   34.8940 O.2    65  THR65      -0.2714
     30  CB        18.8380   32.7250   34.2630 C.3    65  THR65       0.1808
     31  OG1       20.0330   31.9540   34.3740 O.3    65  THR65      -0.2208
     32  CG2       18.3060   33.0080   35.7270 C.3    65  THR65       0.0379
     33  N         18.5290   29.6180   33.8960 N.am   66  ASN66      -0.1971
     34  CA        18.5600   28.3390   34.5910 C.3    66  ASN66       0.1688
     35  C         19.7100   28.3200   35.5760 C.2    66  ASN66       0.2292
     36  O         19.9460   27.3290   36.2890 O.2    66  ASN66      -0.2864
     37  CB        18.6810   27.1740   33.6150 C.3    66  ASN66       0.1181
     38  CG        17.3610   26.8130   32.9920 C.2    66  ASN66       0.2629
     39  OD1       16.5450   26.1160   33.5960 O.2    66  ASN66      -0.2716
     40  ND2       17.1330   27.2920   31.7840 N.am   66  ASN66      -0.0877
     41  N          6.8420   34.9800   39.8710 N.3   102  LYS102     -0.1231
     42  CA         7.3790   33.6600   39.4640 C.3   102  LYS102      0.1693
     43  C          8.5730   33.2180   40.3500 C.2   102  LYS102      0.2591
     44  O          8.7220   32.0090   40.7110 O.2   102  LYS102     -0.2718
     45  CB         7.7930   33.6460   37.9730 C.3   102  LYS102      0.0285
     46  CG         8.2880   32.1910   37.4890 C.3   102  LYS102      0.0035
     47  CD         9.2290   32.3360   36.2580 C.3   102  LYS102      0.0206
     48  CE         9.5780   30.9990   35.5660 C.3   102  LYS102      0.1093
     49  NZ        10.2120   31.3020   34.2480 N.3   102  LYS102     -0.1314
     50  N          9.4440   34.1560   40.6850 N.am  103  MET103     -0.1979
     51  CA        10.6440   33.7240   41.5080 C.3   103  MET103      0.1605
     52  C         10.2370   33.2370   42.9320 C.2   103  MET103      0.2287
     53  O         11.0510   32.5860   43.6490 O.2   103  MET103     -0.2864
     54  CB        11.6100   34.9130   41.5900 C.3   103  MET103      0.0413
     55  CG        12.1400   35.4740   40.1500 C.3   103  MET103      0.0598
     56  SD        12.5960   34.0750   39.0700 S.3   103  MET103     -0.1393
     57  CE        13.9520   33.4170   39.9700 C.3   103  MET103      0.0692
     58  N          8.6560   30.8840   43.6110 N.3   105  GLY105     -0.1210
     59  CA         8.6810   29.4130   43.5460 C.3   105  GLY105      0.1956
     60  C         10.1370   28.9160   43.6840 C.2   105  GLY105      0.2613
     61  O         10.4000   27.7390   43.7030 O.2   105  GLY105     -0.2717
     62  N         11.0990   29.8010   43.8300 N.am  106  SER106     -0.1938
     63  CA        12.4900   29.3030   43.8740 C.3   106  SER106      0.2040
     64  C         12.8150   28.5330   45.1600 C.2   106  SER106      0.2485
     65  O         12.4090   28.9230   46.2460 O.2   106  SER106     -0.2729
     66  CB        13.4680   30.4750   43.7970 C.3   106  SER106      0.2129
     67  OG        14.7850   29.9830   44.0200 O.3   106  SER106     -0.2179
     68  N         13.5450   27.4250   45.0320 N.am  107  PRO107     -0.2726
     69  CA        13.9930   26.7030   46.2310 C.3   107  PRO107      0.1402
     70  C         15.2710   27.3200   46.8140 C.2   107  PRO107      0.2269
     71  O         15.7200   26.8720   47.8430 O.2   107  PRO107     -0.2865
     72  CB        14.2540   25.2960   45.6960 C.3   107  PRO107      0.0296
     73  CG        14.6770   25.5150   44.2390 C.3   107  PRO107      0.0237
     74  CD        13.7390   26.6360   43.7910 C.3   107  PRO107      0.0939
@<TRIPOS>BOND
     1    25    23   am
     2    23    24    2
     3    23    22    1
     4    22    19    1
     5    40    38   am
     6    21    20    2
     7    19    20    1
     8    19    18    1
     9    16    15    2
    10    20    26   am
    11    38    39    2
    12    38    37    1
    13    26    27    1
    14    18    11   am
    15    27    28    1
    16    27    30    1
    17    15    17   am
    18    15    14    1
    19    37    34    1
    20    33    28   am
    21    33    34    1
    22    28    29    2
    23    11    12    2
    24    11    10    1
    25    49    48    1
    26    30    31    1
    27    30    32    1
    28    14    13    1
    29    13    10    1
    30    34    35    1
    31     1     2    1
    32    10     9    1
    33     9     3   am
    34    48    47    1
    35    35    36    2
    36     3     2    1
    37     3     4    2
    38    47    46    1
    39     2     5    1
    40     5     6    1
    41    46    45    1
    42    45    42    1
    43     6     7    1
    44     8     7    1
    45    56    57    1
    46    56    55    1
    47    42    41    1
    48    42    43    1
    49    55    54    1
    50    43    50   am
    51    43    44    2
    52    50    51    1
    53    51    54    1
    54    51    52    1
    55    52    53    2
    56    59    58    1
    57    59    60    1
    58    60    61    2
    59    60    62   am
    60    74    73    1
    61    74    68    1
    62    66    63    1
    63    66    67    1
    64    62    63    1
    65    63    64    1
    66    73    72    1
    67    68    64   am
    68    68    69    1
    69    64    65    2
    70    72    69    1
    71    69    70    1
    72    70    71    2
