@<TRIPOS>MOLECULE
tmp/3slbD00.pdb
 199 189 0 0 0
SMALL
GASTEIGER

@<TRIPOS>ATOM
      1  N         17.4090    1.6180   23.1070 N.3     2  ASN2       -0.1240
      2  CA        16.3060    1.5140   24.0640 C.3     2  ASN2        0.1653
      3  C         14.9610    2.0790   23.5700 C.2     2  ASN2        0.2266
      4  O         13.9500    1.9630   24.2810 O.2     2  ASN2       -0.2867
      5  CB        16.6840    2.1630   25.3960 C.3     2  ASN2        0.1155
      6  CG        17.6320    1.2990   26.2100 C.2     2  ASN2        0.2627
      7  OD1       18.7490    0.9720   25.7520 O.2     2  ASN2       -0.2716
      8  ND2       17.2030    0.9230   27.4240 N.am    2  ASN2       -0.0877
      9  N         12.8170   -2.0000   20.1170 N.3     6  ILE6       -0.1245
     10  CA        12.5640   -3.1950   20.9580 C.3     6  ILE6        0.1561
     11  C         11.4680   -4.0830   20.3390 C.2     6  ILE6        0.2260
     12  O         11.5680   -5.3150   20.3620 O.2     6  ILE6       -0.2867
     13  CB        12.2610   -2.7930   22.3830 C.3     6  ILE6        0.0252
     14  CG1       13.5820   -2.3730   23.0310 C.3     6  ILE6        0.0019
     15  CG2       11.5780   -3.9600   23.1770 C.3     6  ILE6        0.0019
     16  CD1       13.4080   -1.4670   24.1490 C.3     6  ILE6        0.0001
     17  N         19.6270  -10.2810   38.6520 N.3    36  HIS36      -0.1226
     18  CA        20.0840   -9.0110   38.0620 C.3    36  HIS36       0.1752
     19  C         19.5700   -8.9950   36.6390 C.2    36  HIS36       0.2597
     20  O         19.7190  -10.0080   35.9200 O.2    36  HIS36      -0.2718
     21  CB        21.6150   -8.9690   38.0530 C.3    36  HIS36       0.0759
     22  CG        22.2130   -9.2240   39.3980 C.ar   36  HIS36       0.0818
     23  ND1       22.3940   -8.2210   40.3230 N.ar   36  HIS36      -0.2268
     24  CD2       22.5940  -10.3760   40.0080 C.ar   36  HIS36       0.1154
     25  CE1       22.9050   -8.7350   41.4310 C.ar   36  HIS36       0.1986
     26  NE2       23.0560  -10.0380   41.2600 N.ar   36  HIS36      -0.2212
     27  N         19.0220   -7.8580   36.2070 N.am   37  SER37      -0.1938
     28  CA        18.3410   -7.8210   34.9280 C.3    37  SER37       0.2055
     29  C         18.3770   -6.5030   34.1360 C.2    37  SER37       0.2644
     30  O         18.5680   -5.4030   34.7000 O.2    37  SER37      -0.2714
     31  CB        16.8910   -8.2900   35.1080 C.3    37  SER37       0.2130
     32  OG        16.1260   -7.3620   35.8420 O.3    37  SER37      -0.2179
     33  N         18.2470   -6.6810   32.8150 N.am   38  SER38      -0.1935
     34  CA        17.8850   -5.6220   31.8590 C.3    38  SER38       0.2055
     35  C         16.5680   -6.0240   31.1570 C.2    38  SER38       0.2643
     36  O         16.4890   -7.0690   30.5210 O.2    38  SER38      -0.2714
     37  CB        18.9940   -5.3720   30.8070 C.3    38  SER38       0.2130
     38  OG        18.4820   -4.7960   29.5750 O.3    38  SER38      -0.2179
     39  N         15.5400   -5.1850   31.2860 N.am   39  LEU39      -0.1963
     40  CA        14.2450   -5.4430   30.6750 C.3    39  LEU39       0.1728
     41  C         14.3300   -5.3890   29.1530 C.2    39  LEU39       0.2616
     42  O         13.7530   -6.2240   28.4600 O.2    39  LEU39      -0.2715
     43  CB        13.2220   -4.3900   31.1270 C.3    39  LEU39       0.0311
     44  CG        11.7650   -4.6670   30.7450 C.3    39  LEU39       0.0022
     45  CD1       11.3680   -5.9320   31.5270 C.3    39  LEU39       0.0001
     46  CD2       10.7760   -3.4840   31.0410 C.3    39  LEU39       0.0001
     47  N         15.0240   -4.3770   28.6390 N.am   40  SER40      -0.1950
     48  CA        15.1230   -4.1890   27.2040 C.3    40  SER40       0.1924
     49  C         15.8150   -5.3720   26.5100 C.2    40  SER40       0.2314
     50  O         15.4080   -5.7550   25.3830 O.2    40  SER40      -0.2863
     51  CB        15.8330   -2.8640   26.8620 C.3    40  SER40       0.2116
     52  OG        17.2040   -2.9030   27.1950 O.3    40  SER40      -0.2180
     53  N         13.6770   -8.2250   24.7970 N.3    43  GLY43      -0.1210
     54  CA        12.7600   -7.9830   23.6790 C.3    43  GLY43       0.1956
     55  C         11.4010   -7.5650   24.2350 C.2    43  GLY43       0.2612
     56  O         11.2310   -7.5370   25.4610 O.2    43  GLY43      -0.2717
     57  N         10.4540   -7.2000   23.3580 N.am   44  TRP44      -0.1962
     58  CA         9.1540   -6.6890   23.7970 C.3    44  TRP44       0.1771
     59  C          8.3620   -7.7060   24.6690 C.2    44  TRP44       0.2619
     60  O          8.1710   -8.8610   24.2660 O.2    44  TRP44      -0.2715
     61  CB         8.2940   -6.2050   22.5960 C.3    44  TRP44       0.0590
     62  CG         7.1630   -5.3720   23.0970 C.ar   44  TRP44       0.0006
     63  CD1        7.1980   -4.0400   23.3810 C.ar   44  TRP44       0.0946
     64  CD2        5.8360   -5.8130   23.4170 C.ar   44  TRP44       0.0152
     65  NE1        5.9870   -3.6290   23.8730 N.ar   44  TRP44      -0.2442
     66  CE2        5.1350   -4.6980   23.9110 C.ar   44  TRP44       0.0810
     67  CE3        5.1790   -7.0540   23.3570 C.ar   44  TRP44       0.0012
     68  CZ2        3.8000   -4.7690   24.3180 C.ar   44  TRP44       0.0191
     69  CZ3        3.8450   -7.1220   23.7590 C.ar   44  TRP44       0.0001
     70  CH2        3.1770   -5.9870   24.2470 C.ar   44  TRP44       0.0015
     71  N          7.9170   -7.2530   25.8440 N.am   45  ILE45      -0.1977
     72  CA         7.2110   -8.0780   26.8190 C.3    45  ILE45       0.1596
     73  C          5.7990   -7.5180   27.0620 C.2    45  ILE45       0.2287
     74  O          5.6140   -6.3260   27.3760 O.2    45  ILE45      -0.2864
     75  CB         7.9130   -8.1330   28.2060 C.3    45  ILE45       0.0276
     76  CG1        9.3820   -8.5570   28.1050 C.3    45  ILE45       0.0022
     77  CG2        7.1700   -9.0930   29.1350 C.3    45  ILE45       0.0022
     78  CD1       10.2270   -8.1440   29.3200 C.3    45  ILE45       0.0001
     79  N          5.5690   -5.8610   30.4790 N.3    48  GLY48      -0.1225
     80  CA         6.8720   -5.3890   30.9270 C.3    48  GLY48       0.1811
     81  C          7.4230   -6.0140   32.1970 C.2    48  GLY48       0.2280
     82  O          7.4880   -7.2520   32.3580 O.2    48  GLY48      -0.2866
     83  N         19.2150   -6.6680   44.3760 N.3    67  PRO67      -0.2116
     84  CA        19.8310   -5.4960   44.9590 C.3    67  PRO67       0.1372
     85  C         18.8960   -4.2840   44.7740 C.2    67  PRO67       0.2244
     86  O         18.2580   -4.1660   43.7190 O.2    67  PRO67      -0.2868
     87  CB        21.1580   -5.3530   44.1560 C.3    67  PRO67       0.0268
     88  CG        20.8730   -5.9170   42.8550 C.3    67  PRO67       0.0207
     89  CD        19.8850   -7.0820   43.1280 C.3    67  PRO67       0.0892
     90  N         20.0170   -0.8960   45.5240 N.3    69  GLN69      -0.1245
     91  CA        20.9780    0.1640   45.7910 C.3    69  GLN69       0.1566
     92  C         20.4380    1.5520   45.4590 C.2    69  GLN69       0.2260
     93  O         19.6760    1.7510   44.4870 O.2    69  GLN69      -0.2867
     94  CB        22.3230   -0.0940   45.0560 C.3    69  GLN69       0.0367
     95  CG        22.7760   -1.5470   45.2510 C.3    69  GLN69       0.0905
     96  CD        24.1760   -1.7900   44.8460 C.2    69  GLN69       0.2608
     97  OE1       24.7340   -1.0210   44.0840 O.2    69  GLN69      -0.2717
     98  NE2       24.7700   -2.8810   45.3530 N.am   69  GLN69      -0.0878
     99  N         19.9710    2.8310   39.0290 N.3   108  ALA108     -0.1245
    100  CA        20.7110    1.9200   38.1690 C.3   108  ALA108      0.1562
    101  C         20.4810    0.4430   38.4820 C.2   108  ALA108      0.2260
    102  O         21.3060   -0.3640   38.1180 O.2   108  ALA108     -0.2867
    103  CB        22.2220    2.2370   38.2060 C.3   108  ALA108      0.0290
    104  N         17.3290   -1.0200   37.6320 N.3   109  GLY109     -0.1210
    105  CA        16.4800   -1.4600   36.5480 C.3   109  GLY109      0.1956
    106  C         15.0120   -1.5190   36.9180 C.2   109  GLY109      0.2612
    107  O         14.6320   -1.6230   38.0990 O.2   109  GLY109     -0.2717
    108  N         14.1780   -1.4850   35.8800 N.am  110  LYS110     -0.1965
    109  CA        12.7260   -1.4560   36.0500 C.3   110  LYS110      0.1728
    110  C         12.1870   -2.7050   36.7380 C.2   110  LYS110      0.2616
    111  O         11.1500   -2.6360   37.4250 O.2   110  LYS110     -0.2715
    112  CB        12.0440   -1.2700   34.6960 C.3   110  LYS110      0.0311
    113  CG        10.8700   -0.2970   34.7600 C.3   110  LYS110      0.0038
    114  CD        10.0850   -0.1970   33.4640 C.3   110  LYS110      0.0206
    115  CE         8.7310    0.5030   33.7250 C.3   110  LYS110      0.1093
    116  NZ         7.7470   -0.3110   34.5400 N.3   110  LYS110     -0.1314
    117  N         12.8620   -3.8490   36.5490 N.am  111  VAL111     -0.1963
    118  CA        12.3920   -5.0860   37.1700 C.3   111  VAL111      0.1727
    119  C         12.4930   -4.9450   38.6920 C.2   111  VAL111      0.2616
    120  O         11.5770   -5.3250   39.4110 O.2   111  VAL111     -0.2715
    121  CB        13.0870   -6.3370   36.6520 C.3   111  VAL111      0.0290
    122  CG1       12.7290   -7.5790   37.5420 C.3   111  VAL111      0.0023
    123  CG2       12.7360   -6.5720   35.1740 C.3   111  VAL111      0.0023
    124  N         13.5840   -4.3500   39.1600 N.am  112  VAL112     -0.1977
    125  CA        13.8170   -4.1490   40.5900 C.3   112  VAL112      0.1596
    126  C         12.8450   -3.1140   41.1850 C.2   112  VAL112      0.2287
    127  O         12.3500   -3.2800   42.2920 O.2   112  VAL112     -0.2864
    128  CB        15.2560   -3.6910   40.8370 C.3   112  VAL112      0.0276
    129  CG1       15.4090   -3.2040   42.2680 C.3   112  VAL112      0.0022
    130  CG2       16.2540   -4.8250   40.4970 C.3   112  VAL112      0.0022
    131  N         28.5170   -5.0850   51.9160 N.3   150  LEU150     -0.1245
    132  CA        28.4520   -6.3240   51.1380 C.3   150  LEU150      0.1561
    133  C         29.2640   -7.4730   51.7850 C.2   150  LEU150      0.2260
    134  O         29.6590   -8.4270   51.1070 O.2   150  LEU150     -0.2867
    135  CB        28.8950   -6.0720   49.6810 C.3   150  LEU150      0.0270
    136  CG        28.1430   -4.9420   48.9390 C.3   150  LEU150      0.0019
    137  CD1       28.4840   -4.8840   47.4230 C.3   150  LEU150      0.0001
    138  CD2       26.6250   -4.9990   49.1640 C.3   150  LEU150      0.0001
    139  N         20.3940  -10.7750   30.6640 N.3   170  GLY170     -0.1210
    140  CA        20.8280   -9.7500   29.7110 C.3   170  GLY170      0.1956
    141  C         21.8300   -8.7290   30.2580 C.2   170  GLY170      0.2611
    142  O         21.9800   -7.6410   29.6840 O.2   170  GLY170     -0.2717
    143  N         22.5180   -9.0810   31.3500 N.am  171  VAL171     -0.1979
    144  CA        23.5340   -8.2290   31.9570 C.3   171  VAL171      0.1595
    145  C         24.8160   -9.0390   32.1590 C.2   171  VAL171      0.2287
    146  O         24.7900  -10.2610   32.1620 O.2   171  VAL171     -0.2864
    147  CB        23.0630   -7.6150   33.3160 C.3   171  VAL171      0.0276
    148  CG1       21.7660   -6.8130   33.1340 C.3   171  VAL171      0.0022
    149  CG2       22.8540   -8.6930   34.3940 C.3   171  VAL171      0.0022
    150  N         29.6810   -7.2200   35.6160 N.3   174  ASP174     -0.1225
    151  CA        29.7730   -5.9330   36.3420 C.3   174  ASP174      0.1805
    152  C         28.5420   -5.6470   37.1890 C.2   174  ASP174      0.2598
    153  O         28.5880   -4.8340   38.1280 O.2   174  ASP174     -0.2718
    154  CB        30.0500   -4.7600   35.3960 C.3   174  ASP174      0.1424
    155  CG        29.0970   -4.7290   34.2140 C.2   174  ASP174      0.3668
    156  OD1       28.5760   -5.8000   33.8470 O.co2 174  ASP174     -0.2456
    157  OD2       28.8750   -3.6370   33.6590 O.co2 174  ASP174     -0.2456
    158  N         27.4380   -6.3150   36.8800 N.am  175  SER175     -0.1952
    159  CA        26.2550   -6.2270   37.6800 C.3   175  SER175      0.1924
    160  C         26.1820   -7.3020   38.7560 C.2   175  SER175      0.2314
    161  O         25.1890   -7.3460   39.4630 O.2   175  SER175     -0.2863
    162  CB        25.0250   -6.3270   36.7950 C.3   175  SER175      0.2116
    163  OG        25.0800   -5.3220   35.7940 O.3   175  SER175     -0.2180
    164  N         26.5320   -8.3480   42.0030 N.3   177  THR177     -0.1218
    165  CA        26.7910   -7.8100   43.3630 C.3   177  THR177      0.1862
    166  C         27.5370   -8.7910   44.3200 C.2   177  THR177      0.2287
    167  O         28.4230   -8.3970   45.0430 O.2   177  THR177     -0.2866
    168  CB        25.4670   -7.3230   43.9860 C.3   177  THR177      0.1770
    169  OG1       24.7770   -6.4940   43.0290 O.3   177  THR177     -0.2211
    170  CG2       25.7320   -6.5250   45.2550 C.3   177  THR177      0.0375
    171  N         34.2820   -0.7370   46.3790 N.3   213  TYR213     -0.1241
    172  CA        33.9120   -1.8460   45.5000 C.3   213  TYR213      0.1605
    173  C         34.1790   -1.3650   44.0840 C.2   213  TYR213      0.2264
    174  O         33.8870   -0.2130   43.7740 O.2   213  TYR213     -0.2867
    175  CB        32.4240   -2.2850   45.6770 C.3   213  TYR213      0.0534
    176  CG        32.0630   -2.7460   47.1000 C.ar  213  TYR213     -0.0201
    177  CD1       31.2860   -1.9500   47.9390 C.ar  213  TYR213     -0.0009
    178  CD2       32.5190   -3.9730   47.6030 C.ar  213  TYR213     -0.0009
    179  CE1       30.9880   -2.3510   49.2530 C.ar  213  TYR213      0.0417
    180  CE2       32.2270   -4.3850   48.9060 C.ar  213  TYR213      0.0417
    181  CZ        31.4520   -3.5760   49.7280 C.ar  213  TYR213      0.1957
    182  OH        31.1720   -3.9740   51.0310 O.3   213  TYR213     -0.2866
    183  N         33.7030   -2.6610   40.1420 N.3   215  SER215     -0.1217
    184  CA        33.0850   -3.6100   39.2340 C.3   215  SER215      0.1889
    185  C         33.9030   -3.9320   37.9710 C.2   215  SER215      0.2288
    186  O         33.5610   -4.8400   37.2300 O.2   215  SER215     -0.2866
    187  CB        31.7080   -3.1040   38.8280 C.3   215  SER215      0.2089
    188  OG        31.8330   -1.9220   38.0710 O.3   215  SER215     -0.2183
    189  N         35.2360   -7.1610   38.8190 N.3   218  PHE218     -0.1241
    190  CA        34.1500   -8.1390   38.7200 C.3   218  PHE218      0.1605
    191  C         34.0980   -8.7150   37.2810 C.2   218  PHE218      0.2264
    192  O         33.8870   -9.9170   37.0850 O.2   218  PHE218     -0.2867
    193  CB        32.7960   -7.5050   39.0570 C.3   218  PHE218      0.0534
    194  CG        32.5890   -7.1560   40.5140 C.ar  218  PHE218     -0.0203
    195  CD1       33.6470   -7.0550   41.4190 C.ar  218  PHE218     -0.0042
    196  CD2       31.3140   -6.8630   40.9600 C.ar  218  PHE218     -0.0042
    197  CE1       33.4140   -6.7140   42.7400 C.ar  218  PHE218     -0.0003
    198  CE2       31.0800   -6.5120   42.2770 C.ar  218  PHE218     -0.0003
    199  CZ        32.1380   -6.4380   43.1710 C.ar  218  PHE218     -0.0000
@<TRIPOS>BOND
     1     9    10    1
     2    11    12    2
     3    11    10    1
     4    10    13    1
     5    13    14    1
     6    13    15    1
     7    61    62    1
     8    61    58    1
     9    14    16    1
    10    62    63   ar
    11    62    64   ar
    12     1     2    1
    13    67    64   ar
    14    67    69   ar
    15    57    58    1
    16    57    55   am
    17    63    65   ar
    18    64    66   ar
    19     3     2    1
    20     3     4    2
    21    54    55    1
    22    54    53    1
    23    69    70   ar
    24    58    59    1
    25    65    66   ar
    26    66    68   ar
    27     2     5    1
    28    55    56    2
    29    70    68   ar
    30    60    59    2
    31    59    71   am
    32    50    49    2
    33     5     6    1
    34     7     6    2
    35    71    72    1
    36     6     8   am
    37    49    48    1
    38    72    73    1
    39    72    75    1
    40    51    52    1
    41    51    48    1
    42    73    74    2
    43    48    47    1
    44    76    75    1
    45    76    78    1
    46    75    77    1
    47    42    41    2
    48    47    41   am
    49    41    40    1
    50    38    37    1
    51   142   141    2
    52   140   141    1
    53   140   139    1
    54   141   143   am
    55    79    80    1
    56    36    35    2
    57    40    43    1
    58    40    39    1
    59    44    46    1
    60    44    43    1
    61    44    45    1
    62    37    34    1
    63    80    81    1
    64    35    39   am
    65    35    34    1
    66   143   144    1
    67    34    33    1
    68   144   145    1
    69   144   147    1
    70   145   146    2
    71    81    82    2
    72    33    29   am
    73   148   147    1
    74   147   149    1
    75   114   115    1
    76   114   113    1
    77   157   155   ar
    78   115   116    1
    79   156   155   ar
    80    29    30    2
    81    29    28    1
    82   155   154    1
    83   112   113    1
    84   112   109    1
    85    28    31    1
    86    28    27    1
    87    31    32    1
    88   123   121    1
    89   154   151    1
    90   150   151    1
    91   163   162    1
    92   108   109    1
    93   108   106   am
    94    20    19    2
    95   109   110    1
    96    27    19   am
    97   151   152    1
    98   105   106    1
    99   105   104    1
   100   117   110   am
   101   117   118    1
   102    19    18    1
   103   121   118    1
   104   121   122    1
   105   110   111    2
   106   162   159    1
   107   158   152   am
   108   158   159    1
   109   106   107    2
   110   192   191    2
   111   118   119    1
   112   152   153    2
   113   186   185    2
   114   191   190    1
   115   159   160    1
   116   185   184    1
   117    21    18    1
   118    21    22    1
   119    18    17    1
   120   188   187    1
   121   102   101    2
   122   100   103    1
   123   100   101    1
   124   100    99    1
   125   119   124   am
   126   119   120    2
   127   190   189    1
   128   190   193    1
   129   160   161    2
   130   187   184    1
   131   193   194    1
   132   124   125    1
   133   184   183    1
   134    22    24   ar
   135    22    23   ar
   136    24    26   ar
   137    23    25   ar
   138   130   128    1
   139   194   196   ar
   140   194   195   ar
   141   125   128    1
   142   125   126    1
   143   128   129    1
   144   196   198   ar
   145   126   127    2
   146    26    25   ar
   147   195   197   ar
   148   164   165    1
   149   198   199   ar
   150   197   199   ar
   151    88    89    1
   152    88    87    1
   153   169   168    1
   154    89    83    1
   155   165   168    1
   156   165   166    1
   157    86    85    2
   158   174   173    2
   159   168   170    1
   160   173   172    1
   161    97    96    2
   162    87    84    1
   163   166   167    2
   164    83    84    1
   165    93    92    2
   166    85    84    1
   167    96    95    1
   168    96    98   am
   169    94    95    1
   170    94    91    1
   171    92    91    1
   172   172   175    1
   173   172   171    1
   174    90    91    1
   175   175   176    1
   176   176   178   ar
   177   176   177   ar
   178   137   136    1
   179   178   180   ar
   180   177   179   ar
   181   180   181   ar
   182   136   138    1
   183   136   135    1
   184   179   181   ar
   185   135   132    1
   186   181   182    1
   187   134   133    2
   188   132   133    1
   189   132   131    1
