@<TRIPOS>MOLECULE
tmp/3sldC00.pdb
 71 67 0 0 0
SMALL
GASTEIGER

@<TRIPOS>ATOM
      1  N         75.5440   70.5210   -0.7680 N.3   111  GLN111     -0.1245
      2  CA        76.3860   69.9540    0.2790 C.3   111  GLN111      0.1566
      3  C         77.7800   69.5360   -0.2320 C.2   111  GLN111      0.2260
      4  O         77.9230   69.0560   -1.3630 O.2   111  GLN111     -0.2867
      5  CB        75.7150   68.7570    0.9020 C.3   111  GLN111      0.0367
      6  CG        76.4360   68.3070    2.1300 C.3   111  GLN111      0.0905
      7  CD        75.8570   67.0480    2.7120 C.2   111  GLN111      0.2608
      8  OE1       76.5210   66.0330    2.7500 O.2   111  GLN111     -0.2717
      9  NE2       74.6150   67.1040    3.1720 N.am  111  GLN111     -0.0878
     10  N         82.0980   68.3690    6.9210 N.3   128  LYS128     -0.1245
     11  CA        80.8850   68.4790    6.1280 C.3   128  LYS128      0.1561
     12  C         80.2790   69.8720    6.2530 C.2   128  LYS128      0.2260
     13  O         80.2370   70.4390    7.3300 O.2   128  LYS128     -0.2867
     14  CB        79.9110   67.4210    6.5530 C.3   128  LYS128      0.0271
     15  CG        78.5160   67.6250    6.0580 C.3   128  LYS128      0.0035
     16  CD        77.6370   66.5030    6.5430 C.3   128  LYS128      0.0206
     17  CE        76.2560   67.0280    6.8470 C.3   128  LYS128      0.1093
     18  NZ        75.4390   66.0200    7.5330 N.3   128  LYS128     -0.1314
     19  N         70.6680   68.6760   -1.5580 N.3   169  VAL169     -0.1245
     20  CA        69.9580   68.1900   -0.4110 C.3   169  VAL169      0.1561
     21  C         68.5040   68.6820   -0.5090 C.2   169  VAL169      0.2260
     22  O         68.2300   69.6230   -1.2310 O.2   169  VAL169     -0.2867
     23  CB        70.7370   68.7530    0.7890 C.3   169  VAL169      0.0252
     24  CG1       69.8730   69.2730    1.8560 C.3   169  VAL169      0.0019
     25  CG2       71.8130   67.7580    1.2550 C.3   169  VAL169      0.0019
     26  N         64.6320   68.7720    2.0850 N.3   171  ASP171     -0.1225
     27  CA        63.9700   68.4120    3.3490 C.3   171  ASP171      0.1805
     28  C         62.7330   67.4730    3.1370 C.2   171  ASP171      0.2598
     29  O         61.6950   67.9020    2.6080 O.2   171  ASP171     -0.2718
     30  CB        63.6440   69.6960    4.1100 C.3   171  ASP171      0.1424
     31  CG        62.9220   69.4630    5.4460 C.2   171  ASP171      0.3668
     32  OD1       62.6970   68.3140    5.8940 O.co2 171  ASP171     -0.2456
     33  OD2       62.5640   70.4860    6.0540 O.co2 171  ASP171     -0.2456
     34  N         62.8870   66.2020    3.5550 N.am  172  GLY172     -0.1942
     35  CA        61.9830   65.1040    3.2320 C.3   172  GLY172      0.2014
     36  C         60.5820   65.2280    3.7900 C.2   172  GLY172      0.2639
     37  O         59.6090   64.6900    3.2480 O.2   172  GLY172     -0.2714
     38  N         60.4700   65.9600    4.8800 N.am  173  SER173     -0.1949
     39  CA        59.1820   66.2410    5.4670 C.3   173  SER173      0.1924
     40  C         58.4900   67.3540    4.7100 C.2   173  SER173      0.2314
     41  O         57.4030   67.7450    5.1050 O.2   173  SER173     -0.2863
     42  CB        59.3330   66.6540    6.9210 C.3   173  SER173      0.2116
     43  OG        60.0640   67.8730    6.9840 O.3   173  SER173     -0.2180
     44  N         72.4560   64.0950   -1.3870 N.3   221  CYS221     -0.1221
     45  CA        73.0170   63.6730   -0.1410 C.3   221  CYS221      0.1808
     46  C         71.9910   63.5870    0.9390 C.2   221  CYS221      0.2602
     47  O         72.3360   63.2950    2.0740 O.2   221  CYS221     -0.2717
     48  CB        74.1100   64.6290    0.3350 C.3   221  CYS221      0.0970
     49  SG        75.2850   65.0020   -0.9070 S.3   221  CYS221     -0.0800
     50  N         70.7250   63.8570    0.6480 N.am  222  SER222     -0.1938
     51  CA        69.7350   63.7700    1.7340 C.3   222  SER222      0.2055
     52  C         68.3550   64.0610    1.2300 C.2   222  SER222      0.2644
     53  O         68.2530   64.8540    0.3260 O.2   222  SER222     -0.2714
     54  CB        70.1130   64.7790    2.7580 C.3   222  SER222      0.2130
     55  OG        69.5470   64.3740    3.9360 O.3   222  SER222     -0.2179
     56  N         67.3040   63.4320    1.7420 N.am  223  GLY223     -0.1939
     57  CA        65.9550   63.7660    1.2800 C.3   223  GLY223      0.2014
     58  C         65.6290   63.4290   -0.1760 C.2   223  GLY223      0.2638
     59  O         66.2400   62.5490   -0.7720 O.2   223  GLY223     -0.2714
     60  N         64.6640   64.1230   -0.7680 N.am  224  TYR224     -0.1973
     61  CA        64.1610   63.7560   -2.0900 C.3   224  TYR224      0.1639
     62  C         64.2980   64.9320   -3.0620 C.2   224  TYR224      0.2290
     63  O         63.2910   65.4940   -3.5280 O.2   224  TYR224     -0.2864
     64  CB        62.6780   63.3440   -2.0050 C.3   224  TYR224      0.0560
     65  CG        62.3850   62.1540   -1.0820 C.ar  224  TYR224     -0.0198
     66  CD1       62.1120   60.8810   -1.6280 C.ar  224  TYR224     -0.0009
     67  CD2       62.4200   62.2880    0.3380 C.ar  224  TYR224     -0.0009
     68  CE1       61.8700   59.7930   -0.8200 C.ar  224  TYR224      0.0417
     69  CE2       62.1750   61.2080    1.1470 C.ar  224  TYR224      0.0417
     70  CZ        61.8740   59.9540    0.5560 C.ar  224  TYR224      0.1957
     71  OH        61.6460   58.8390    1.3340 O.3   224  TYR224     -0.2866
@<TRIPOS>BOND
     1    63    62    2
     2    62    61    1
     3    61    64    1
     4    61    60    1
     5    64    65    1
     6    66    65   ar
     7    66    68   ar
     8    19    20    1
     9    44    45    1
    10     4     3    2
    11    22    21    2
    12    65    67   ar
    13    49    48    1
    14    68    70   ar
    15    59    58    2
    16     1     2    1
    17    60    58   am
    18    21    20    1
    19    20    23    1
    20     3     2    1
    21    58    57    1
    22    45    48    1
    23    45    46    1
    24     2     5    1
    25    53    52    2
    26    67    69   ar
    27    70    69   ar
    28    70    71    1
    29    50    46   am
    30    50    51    1
    31    23    25    1
    32    23    24    1
    33     5     6    1
    34    46    47    2
    35    52    51    1
    36    52    56   am
    37    57    56    1
    38    51    54    1
    39    26    27    1
    40     6     7    1
    41    29    28    2
    42     7     8    2
    43     7     9   am
    44    54    55    1
    45    28    27    1
    46    28    34   am
    47    35    34    1
    48    35    36    1
    49    37    36    2
    50    27    30    1
    51    36    38   am
    52    30    31    1
    53    40    41    2
    54    40    39    1
    55    38    39    1
    56    31    32   ar
    57    31    33   ar
    58    39    42    1
    59    15    16    1
    60    15    14    1
    61    11    12    1
    62    11    14    1
    63    11    10    1
    64    12    13    2
    65    16    17    1
    66    17    18    1
    67    42    43    1
