@<TRIPOS>MOLECULE
tmp/3slhD01.pdb
 134 124 0 0 0
SMALL
GASTEIGER

@<TRIPOS>ATOM
      1  N         19.3720   71.1580  -41.4120 N.3    23  LYS23      -0.1231
      2  CA        20.6290   71.6450  -41.9330 C.3    23  LYS23       0.1693
      3  C         20.5740   73.1240  -42.2580 C.2    23  LYS23       0.2592
      4  O         21.5220   73.8770  -41.9460 O.2    23  LYS23      -0.2718
      5  CB        21.0020   70.8080  -43.1740 C.3    23  LYS23       0.0285
      6  CG        22.2730   71.2530  -43.8630 C.3    23  LYS23       0.0035
      7  CD        22.7270   70.2530  -44.9450 C.3    23  LYS23       0.0206
      8  CE        21.6940   70.0070  -46.0520 C.3    23  LYS23       0.1093
      9  NZ        21.3850   71.2300  -46.8450 N.3    23  LYS23      -0.1314
     10  N         19.4880   73.5370  -42.9130 N.am   24  SER24      -0.1952
     11  CA        19.3190   74.9250  -43.3290 C.3    24  SER24       0.1924
     12  C         19.2660   75.8660  -42.1400 C.2    24  SER24       0.2314
     13  O         19.9540   76.8920  -42.1240 O.2    24  SER24      -0.2863
     14  CB        18.0580   75.0870  -44.1820 C.3    24  SER24       0.2116
     15  OG        18.2540   74.5140  -45.4650 O.3    24  SER24      -0.2180
     16  N         22.2000   78.9100  -40.5030 N.3    28  ARG28      -0.1245
     17  CA        21.7990   80.2730  -40.1680 C.3    28  ARG28       0.1563
     18  C         21.9460   80.5450  -38.6650 C.2    28  ARG28       0.2260
     19  O         22.4330   81.6070  -38.2550 O.2    28  ARG28      -0.2867
     20  CB        20.3410   80.4570  -40.6160 C.3    28  ARG28       0.0307
     21  CG        20.1510   80.4060  -42.1290 C.3    28  ARG28       0.0489
     22  CD        18.7500   80.0360  -42.4780 C.3    28  ARG28       0.2205
     23  NE        18.4410   80.2980  -43.8720 N.pl3  28  ARG28      -0.0865
     24  CZ        18.7670   79.5030  -44.8930 C.cat  28  ARG28       0.5346
     25  NH1       19.4230   78.3660  -44.6850 N.pl3  28  ARG28       0.1354
     26  NH2       18.4130   79.8350  -46.1280 N.pl3  28  ARG28       0.1354
     27  N         25.4010   76.0660  -49.3340 N.3    98  THR98      -0.1218
     28  CA        24.7490   76.9870  -48.3930 C.3    98  THR98       0.1862
     29  C         25.8030   77.7450  -47.6030 C.2    98  THR98       0.2287
     30  O         25.7010   78.9670  -47.4190 O.2    98  THR98      -0.2866
     31  CB        23.7910   76.2630  -47.3960 C.3    98  THR98       0.1770
     32  OG1       22.7670   75.5730  -48.1080 O.3    98  THR98      -0.2211
     33  CG2       23.1280   77.2800  -46.4180 C.3    98  THR98       0.0375
     34  N         27.7440   80.3500  -49.9670 N.3   101  ARG101     -0.1245
     35  CA        26.9050   81.4720  -50.3960 C.3   101  ARG101      0.1563
     36  C         26.5280   82.3820  -49.2200 C.2   101  ARG101      0.2260
     37  O         26.5580   83.6160  -49.3600 O.2   101  ARG101     -0.2867
     38  CB        25.6920   81.0030  -51.1760 C.3   101  ARG101      0.0307
     39  CG        26.0980   80.2660  -52.4620 C.3   101  ARG101      0.0489
     40  CD        24.9290   80.1140  -53.4260 C.3   101  ARG101      0.2205
     41  NE        25.2710   79.4080  -54.6690 N.pl3 101  ARG101     -0.0865
     42  CZ        24.9030   78.1600  -54.9700 C.cat 101  ARG101      0.5346
     43  NH1       24.1930   77.4320  -54.1180 N.pl3 101  ARG101      0.1354
     44  NH2       25.2500   77.6360  -56.1420 N.pl3 101  ARG101      0.1354
     45  N         25.1150   83.9800  -59.5100 N.3   129  ARG129     -0.1245
     46  CA        23.8710   84.3710  -58.8500 C.3   129  ARG129      0.1563
     47  C         24.0460   85.1850  -57.5740 C.2   129  ARG129      0.2260
     48  O         23.0940   85.8250  -57.1450 O.2   129  ARG129     -0.2867
     49  CB        23.0260   83.1270  -58.5580 C.3   129  ARG129      0.0307
     50  CG        23.7580   82.0620  -57.7130 C.3   129  ARG129      0.0489
     51  CD        22.8940   80.8350  -57.5080 C.3   129  ARG129      0.2205
     52  NE        22.5620   80.2110  -58.7890 N.pl3 129  ARG129     -0.0865
     53  CZ        21.6180   79.2840  -58.9520 C.cat 129  ARG129      0.5346
     54  NH1       20.8860   78.8730  -57.9250 N.pl3 129  ARG129      0.1354
     55  NH2       21.3800   78.7970  -60.1620 N.pl3 129  ARG129      0.1354
     56  N         14.2010   81.0360  -57.8050 N.3   168  ALA168     -0.1231
     57  CA        13.6740   80.8840  -56.4470 C.3   168  ALA168      0.1694
     58  C         14.7160   80.2920  -55.4860 C.2   168  ALA168      0.2593
     59  O         14.5570   79.1690  -54.9870 O.2   168  ALA168     -0.2718
     60  CB        12.3780   80.0210  -56.4770 C.3   168  ALA168      0.0304
     61  N         15.7550   81.0800  -55.2000 N.am  169  SER169     -0.1938
     62  CA        16.8710   80.6600  -54.3580 C.3   169  SER169      0.2055
     63  C         16.8710   81.3310  -53.0000 C.2   169  SER169      0.2643
     64  O         17.0850   82.5490  -52.8930 O.2   169  SER169     -0.2714
     65  CB        18.2080   80.9710  -55.0460 C.3   169  SER169      0.2130
     66  OG        19.2940   80.7790  -54.1470 O.3   169  SER169     -0.2179
     67  N         16.6510   80.5290  -51.9570 N.am  170  ALA170     -0.1963
     68  CA        16.6870   81.0210  -50.6010 C.3   170  ALA170      0.1728
     69  C         18.1460   81.3700  -50.2270 C.2   170  ALA170      0.2616
     70  O         18.3770   82.2070  -49.3780 O.2   170  ALA170     -0.2715
     71  CB        16.0940   79.9650  -49.6220 C.3   170  ALA170      0.0334
     72  N         19.1260   80.7290  -50.8610 N.am  171  GLN171     -0.1977
     73  CA        20.5290   81.0680  -50.5950 C.3   171  GLN171      0.1601
     74  C         20.8910   82.4650  -51.1110 C.2   171  GLN171      0.2287
     75  O         21.5890   83.2030  -50.4230 O.2   171  GLN171     -0.2864
     76  CB        21.4880   80.0290  -51.1920 C.3   171  GLN171      0.0394
     77  CG        21.3790   78.6530  -50.5600 C.3   171  GLN171      0.0908
     78  CD        22.4590   77.7060  -51.0540 C.2   171  GLN171      0.2608
     79  OE1       23.5480   78.1380  -51.4320 O.2   171  GLN171     -0.2717
     80  NE2       22.2040   76.4180  -50.9580 N.am  171  GLN171     -0.0878
     81  N         12.3180   78.7920  -49.0160 N.3   196  ARG196     -0.1245
     82  CA        12.3680   78.6260  -47.5570 C.3   196  ARG196      0.1563
     83  C         12.6990   79.9260  -46.8450 C.2   196  ARG196      0.2260
     84  O         13.5940   80.6740  -47.2680 O.2   196  ARG196     -0.2867
     85  CB        13.3110   77.4880  -47.1280 C.3   196  ARG196      0.0307
     86  CG        14.7910   77.6960  -47.3890 C.3   196  ARG196      0.0489
     87  CD        15.5380   76.3710  -47.1910 C.3   196  ARG196      0.2205
     88  NE        15.0850   75.4060  -48.1760 N.pl3 196  ARG196     -0.0865
     89  CZ        15.3560   74.1090  -48.1700 C.cat 196  ARG196      0.5346
     90  NH1       16.0850   73.5820  -47.2050 N.pl3 196  ARG196      0.1354
     91  NH2       14.8500   73.3380  -49.1060 N.pl3 196  ARG196      0.1354
     92  N         12.2560   71.2910  -53.3790 N.3   316  ILE316     -0.1231
     93  CA        13.4530   71.1810  -54.2000 C.3   316  ILE316      0.1692
     94  C         14.4150   70.0540  -53.8130 C.2   316  ILE316      0.2592
     95  O         14.8410   69.2930  -54.6840 O.2   316  ILE316     -0.2718
     96  CB        14.1900   72.5610  -54.3460 C.3   316  ILE316      0.0266
     97  CG1       15.2130   72.5070  -55.4890 C.3   316  ILE316      0.0019
     98  CG2       14.8060   73.0140  -52.9980 C.3   316  ILE316      0.0020
     99  CD1       14.6000   72.2570  -56.8350 C.3   316  ILE316      0.0001
    100  N         14.7150   69.9010  -52.5270 N.am  317  ASP317     -0.1974
    101  CA        15.6510   68.8560  -52.1000 C.3   317  ASP317      0.1709
    102  C         15.0170   67.4690  -51.9710 C.2   317  ASP317      0.2293
    103  O         15.7260   66.4770  -51.8890 O.2   317  ASP317     -0.2864
    104  CB        16.3230   69.2370  -50.7810 C.3   317  ASP317      0.1436
    105  CG        17.2550   70.4130  -50.9170 C.2   317  ASP317      0.3671
    106  OD1       17.6310   70.7880  -52.0580 O.co2 317  ASP317     -0.2456
    107  OD2       17.6610   70.9310  -49.8530 O.co2 317  ASP317     -0.2456
    108  N         16.7300   73.9770  -61.5800 N.3   340  GLU340     -0.1245
    109  CA        17.6640   74.1680  -60.4500 C.3   340  GLU340      0.1567
    110  C         18.2700   72.8510  -59.9380 C.2   340  GLU340      0.2260
    111  O         19.3710   72.8430  -59.3600 O.2   340  GLU340     -0.2867
    112  CB        16.9720   74.9290  -59.2990 C.3   340  GLU340      0.0388
    113  CG        16.9180   76.4190  -59.5150 C.3   340  GLU340      0.1160
    114  CD        18.2740   77.0430  -59.3710 C.2   340  GLU340      0.3649
    115  OE1       18.8290   76.9880  -58.2460 O.co2 340  GLU340     -0.2457
    116  OE2       18.7890   77.5840  -60.3710 O.co2 340  GLU340     -0.2457
    117  N         22.9570   71.3510  -58.3690 N.3   344  LYS344     -0.1231
    118  CA        23.1370   70.9870  -56.9740 C.3   344  LYS344      0.1693
    119  C         24.4570   70.2090  -56.8130 C.2   344  LYS344      0.2591
    120  O         25.3750   70.3360  -57.6320 O.2   344  LYS344     -0.2718
    121  CB        21.9210   70.2050  -56.4750 C.3   344  LYS344      0.0285
    122  CG        20.6030   70.9610  -56.5400 C.3   344  LYS344      0.0035
    123  CD        20.5510   72.1100  -55.5180 C.3   344  LYS344      0.0206
    124  CE        19.2450   72.8950  -55.6250 C.3   344  LYS344      0.1093
    125  NZ        19.2590   74.0950  -54.7110 N.3   344  LYS344     -0.1314
    126  N         24.5900   69.4580  -55.7250 N.am  345  GLU345     -0.1979
    127  CA        25.8330   68.7170  -55.4560 C.3   345  GLU345      0.1602
    128  C         26.2520   67.9610  -56.7060 C.2   345  GLU345      0.2287
    129  O         27.4460   67.8920  -57.0500 O.2   345  GLU345     -0.2864
    130  CB        25.6820   67.7890  -54.2550 C.3   345  GLU345      0.0415
    131  CG        25.5620   68.5120  -52.8730 C.3   345  GLU345      0.1163
    132  CD        24.1550   68.9810  -52.5050 C.2   345  GLU345      0.3649
    133  OE1       23.3680   69.3510  -53.4010 O.co2 345  GLU345     -0.2457
    134  OE2       23.8450   69.0330  -51.2900 O.co2 345  GLU345     -0.2457
@<TRIPOS>BOND
     1   108   109    1
     2   109   110    1
     3   109   112    1
     4   116   114   ar
     5    55    53    1
     6   110   111    2
     7   113   114    1
     8   113   112    1
     9    45    46    1
    10   114   115   ar
    11    53    52    2
    12    53    54    1
    13    46    49    1
    14    46    47    1
    15    52    51    1
    16    49    50    1
    17   117   118    1
    18    56    57    1
    19    50    51    1
    20   120   119    2
    21    47    48    2
    22   129   128    2
    23   118   119    1
    24   118   121    1
    25    99    97    1
    26   119   126   am
    27   128   127    1
    28   122   121    1
    29   122   123    1
    30    60    57    1
    31    57    58    1
    32    44    42    1
    33   126   127    1
    34   124   123    1
    35   124   125    1
    36    97    96    1
    37    58    61   am
    38    58    59    2
    39   127   130    1
    40    61    62    1
    41    65    62    1
    42    65    66    1
    43    42    41    2
    44    42    43    1
    45    95    94    2
    46    41    40    1
    47    62    63    1
    48    96    93    1
    49    96    98    1
    50   130   131    1
    51    93    94    1
    52    93    92    1
    53    94   100   am
    54    40    39    1
    55   133   132   ar
    56    63    64    2
    57    63    67   am
    58   131   132    1
    59   100   101    1
    60   132   134   ar
    61    39    38    1
    62   101   102    1
    63   101   104    1
    64   106   105   ar
    65   102   103    2
    66    67    68    1
    67    79    78    2
    68    76    73    1
    69    76    77    1
    70    38    35    1
    71    74    73    1
    72    74    75    2
    73    78    80   am
    74    78    77    1
    75   105   104    1
    76   105   107   ar
    77    72    73    1
    78    72    69   am
    79    68    69    1
    80    68    71    1
    81    35    34    1
    82    35    36    1
    83    69    70    2
    84    37    36    2
    85    27    28    1
    86    91    89    1
    87    81    82    1
    88    28    29    1
    89    28    31    1
    90    88    89    2
    91    88    87    1
    92    89    90    1
    93    32    31    1
    94    29    30    2
    95    82    85    1
    96    82    83    1
    97    31    33    1
    98    86    87    1
    99    86    85    1
   100    84    83    2
   101     9     8    1
   102    26    24    1
   103     8     7    1
   104    15    14    1
   105     7     6    1
   106    24    25    1
   107    24    23    2
   108    14    11    1
   109    23    22    1
   110     6     5    1
   111    11    10    1
   112    11    12    1
   113     5     2    1
   114    10     3   am
   115    22    21    1
   116     3     4    2
   117     3     2    1
   118    12    13    2
   119    21    20    1
   120     2     1    1
   121    20    17    1
   122    16    17    1
   123    17    18    1
   124    18    19    2
