@<TRIPOS>MOLECULE
tmp/3slhD00.pdb
 130 122 0 0 0
SMALL
GASTEIGER

@<TRIPOS>ATOM
      1  N         19.3720   71.1580  -41.4120 N.3    23  LYS23      -0.1245
      2  CA        20.6290   71.6450  -41.9330 C.3    23  LYS23       0.1561
      3  C         20.5740   73.1240  -42.2580 C.2    23  LYS23       0.2260
      4  O         21.5220   73.8770  -41.9460 O.2    23  LYS23      -0.2867
      5  CB        21.0020   70.8080  -43.1740 C.3    23  LYS23       0.0271
      6  CG        22.2730   71.2530  -43.8630 C.3    23  LYS23       0.0035
      7  CD        22.7270   70.2530  -44.9450 C.3    23  LYS23       0.0206
      8  CE        21.6940   70.0070  -46.0520 C.3    23  LYS23       0.1093
      9  NZ        21.3850   71.2300  -46.8450 N.3    23  LYS23      -0.1314
     10  N         22.7030   76.0700  -40.2150 N.3    27  HIS27      -0.1241
     11  CA        23.6510   77.0240  -40.8410 C.3    27  HIS27       0.1621
     12  C         23.4440   78.4800  -40.4160 C.2    27  HIS27       0.2264
     13  O         24.3940   79.1850  -40.0500 O.2    27  HIS27      -0.2867
     14  CB        23.5560   76.9980  -42.3550 C.3    27  HIS27       0.0745
     15  CG        24.2910   75.8710  -42.9980 C.ar   27  HIS27       0.0817
     16  ND1       25.6480   75.6710  -42.8310 N.ar   27  HIS27      -0.2268
     17  CD2       23.8770   74.9490  -43.9040 C.ar   27  HIS27       0.1154
     18  CE1       26.0240   74.6510  -43.5790 C.ar   27  HIS27       0.1986
     19  NE2       24.9730   74.2090  -44.2560 N.ar   27  HIS27      -0.2212
     20  N         28.5720   69.4460  -43.3120 N.3    50  ASP50      -0.1239
     21  CA        28.3250   70.7710  -43.8740 C.3    50  ASP50       0.1674
     22  C         28.2160   71.8190  -42.7640 C.2    50  ASP50       0.2266
     23  O         28.8690   72.8590  -42.8230 O.2    50  ASP50      -0.2867
     24  CB        27.0630   70.8440  -44.7640 C.3    50  ASP50       0.1410
     25  CG        27.2540   70.2250  -46.1540 C.2    50  ASP50       0.3668
     26  OD1       28.3420   69.7080  -46.4980 O.co2  50  ASP50      -0.2456
     27  OD2       26.2780   70.2700  -46.9300 O.co2  50  ASP50      -0.2456
     28  N         31.5910   70.4720  -48.9020 N.3    95  ASN95      -0.1225
     29  CA        30.5960   70.1940  -49.9150 C.3    95  ASN95       0.1785
     30  C         29.4410   71.1980  -49.8950 C.2    95  ASN95       0.2598
     31  O         28.5190   71.0870  -50.7130 O.2    95  ASN95      -0.2718
     32  CB        29.9990   68.8130  -49.5760 C.3    95  ASN95       0.1169
     33  CG        29.2410   68.1930  -50.6990 C.2    95  ASN95       0.2627
     34  OD1       28.1000   67.7620  -50.5130 O.2    95  ASN95      -0.2716
     35  ND2       29.8810   68.0700  -51.8630 N.am   95  ASN95      -0.0877
     36  N         29.4900   72.1650  -48.9810 N.am   96  SER96      -0.1938
     37  CA        28.3340   73.0590  -48.7130 C.3    96  SER96       0.2055
     38  C         28.1570   74.3570  -49.5120 C.2    96  SER96       0.2644
     39  O         28.8400   75.3520  -49.2440 O.2    96  SER96      -0.2714
     40  CB        28.3320   73.4210  -47.2300 C.3    96  SER96       0.2130
     41  OG        27.1720   74.1560  -46.8870 O.3    96  SER96      -0.2179
     42  N         27.2180   74.3430  -50.4680 N.am   97  GLY97      -0.1939
     43  CA        26.8700   75.5450  -51.2280 C.3    97  GLY97       0.2014
     44  C         26.2170   76.5500  -50.2740 C.2    97  GLY97       0.2639
     45  O         26.4660   77.7660  -50.3610 O.2    97  GLY97      -0.2714
     46  N         25.4010   76.0660  -49.3340 N.am   98  THR98      -0.1950
     47  CA        24.7490   76.9870  -48.3930 C.3    98  THR98       0.1897
     48  C         25.8030   77.7450  -47.6030 C.2    98  THR98       0.2313
     49  O         25.7010   78.9670  -47.4190 O.2    98  THR98      -0.2863
     50  CB        23.7910   76.2630  -47.3960 C.3    98  THR98       0.1794
     51  OG1       22.7670   75.5730  -48.1080 O.3    98  THR98      -0.2208
     52  CG2       23.1280   77.2800  -46.4180 C.3    98  THR98       0.0378
     53  N         29.9570   74.5620  -58.5080 N.3   125  ARG125     -0.1245
     54  CA        28.6400   75.1540  -58.1900 C.3   125  ARG125      0.1563
     55  C         28.5870   76.6000  -58.6520 C.2   125  ARG125      0.2260
     56  O         29.5270   77.3210  -58.4300 O.2   125  ARG125     -0.2867
     57  CB        28.3830   75.1110  -56.6870 C.3   125  ARG125      0.0307
     58  CG        28.4510   73.7080  -56.0300 C.3   125  ARG125      0.0489
     59  CD        27.3350   72.7430  -56.4310 C.3   125  ARG125      0.2205
     60  NE        26.0380   73.2170  -55.9880 N.pl3 125  ARG125     -0.0865
     61  CZ        25.5610   73.1230  -54.7510 C.cat 125  ARG125      0.5346
     62  NH1       26.2730   72.5510  -53.7770 N.pl3 125  ARG125      0.1354
     63  NH2       24.3470   73.6080  -54.4820 N.pl3 125  ARG125      0.1354
     64  N         19.1260   80.7290  -50.8610 N.3   171  GLN171     -0.1245
     65  CA        20.5290   81.0680  -50.5950 C.3   171  GLN171      0.1566
     66  C         20.8910   82.4650  -51.1110 C.2   171  GLN171      0.2260
     67  O         21.5890   83.2030  -50.4230 O.2   171  GLN171     -0.2867
     68  CB        21.4880   80.0290  -51.1920 C.3   171  GLN171      0.0367
     69  CG        21.3790   78.6530  -50.5600 C.3   171  GLN171      0.0905
     70  CD        22.4590   77.7060  -51.0540 C.2   171  GLN171      0.2608
     71  OE1       23.5480   78.1380  -51.4320 O.2   171  GLN171     -0.2717
     72  NE2       22.2040   76.4180  -50.9580 N.am  171  GLN171     -0.0878
     73  N         14.7150   69.9010  -52.5270 N.3   317  ASP317     -0.1239
     74  CA        15.6510   68.8560  -52.1000 C.3   317  ASP317      0.1674
     75  C         15.0170   67.4690  -51.9710 C.2   317  ASP317      0.2266
     76  O         15.7260   66.4770  -51.8890 O.2   317  ASP317     -0.2867
     77  CB        16.3230   69.2370  -50.7810 C.3   317  ASP317      0.1410
     78  CG        17.2550   70.4130  -50.9170 C.2   317  ASP317      0.3668
     79  OD1       17.6310   70.7880  -52.0580 O.co2 317  ASP317     -0.2456
     80  OD2       17.6610   70.9310  -49.8530 O.co2 317  ASP317     -0.2456
     81  N         22.9570   71.3510  -58.3690 N.3   344  LYS344     -0.1231
     82  CA        23.1370   70.9870  -56.9740 C.3   344  LYS344      0.1693
     83  C         24.4570   70.2090  -56.8130 C.2   344  LYS344      0.2591
     84  O         25.3750   70.3360  -57.6320 O.2   344  LYS344     -0.2718
     85  CB        21.9210   70.2050  -56.4750 C.3   344  LYS344      0.0285
     86  CG        20.6030   70.9610  -56.5400 C.3   344  LYS344      0.0035
     87  CD        20.5510   72.1100  -55.5180 C.3   344  LYS344      0.0206
     88  CE        19.2450   72.8950  -55.6250 C.3   344  LYS344      0.1093
     89  NZ        19.2590   74.0950  -54.7110 N.3   344  LYS344     -0.1314
     90  N         24.5900   69.4580  -55.7250 N.am  345  GLU345     -0.1979
     91  CA        25.8330   68.7170  -55.4560 C.3   345  GLU345      0.1602
     92  C         26.2520   67.9610  -56.7060 C.2   345  GLU345      0.2287
     93  O         27.4460   67.8920  -57.0500 O.2   345  GLU345     -0.2864
     94  CB        25.6820   67.7890  -54.2550 C.3   345  GLU345      0.0415
     95  CG        25.5620   68.5120  -52.8730 C.3   345  GLU345      0.1163
     96  CD        24.1550   68.9810  -52.5050 C.2   345  GLU345      0.3649
     97  OE1       23.3680   69.3510  -53.4010 O.co2 345  GLU345     -0.2457
     98  OE2       23.8450   69.0330  -51.2900 O.co2 345  GLU345     -0.2457
     99  N         21.0620   66.5230  -60.3690 N.3   348  ARG348     -0.1245
    100  CA        20.1480   65.5230  -59.7750 C.3   348  ARG348      0.1563
    101  C         19.1690   64.9080  -60.7690 C.2   348  ARG348      0.2260
    102  O         18.7290   63.7720  -60.5960 O.2   348  ARG348     -0.2867
    103  CB        19.4420   66.1260  -58.5450 C.3   348  ARG348      0.0307
    104  CG        20.4230   66.3790  -57.4330 C.3   348  ARG348      0.0489
    105  CD        19.8090   67.0450  -56.2330 C.3   348  ARG348      0.2205
    106  NE        20.6530   66.7920  -55.0750 N.pl3 348  ARG348     -0.0865
    107  CZ        20.3910   67.2010  -53.8490 C.cat 348  ARG348      0.5346
    108  NH1       19.3460   67.9500  -53.6090 N.pl3 348  ARG348      0.1354
    109  NH2       21.1910   66.8490  -52.8590 N.pl3 348  ARG348      0.1354
    110  N         24.6950   63.1890  -51.5180 N.3   388  HIS388     -0.1226
    111  CA        24.0030   62.5900  -50.3710 C.3   388  HIS388      0.1752
    112  C         22.5690   62.1660  -50.6140 C.2   388  HIS388      0.2595
    113  O         22.1800   61.0500  -50.1850 O.2   388  HIS388     -0.2718
    114  CB        24.1370   63.4800  -49.1250 C.3   388  HIS388      0.0759
    115  CG        23.5080   64.8320  -49.2390 C.ar  388  HIS388      0.0818
    116  ND1       22.5870   65.2960  -48.3300 N.ar  388  HIS388     -0.2268
    117  CD2       23.6990   65.8380  -50.1250 C.ar  388  HIS388      0.1154
    118  CE1       22.2220   66.5180  -48.6600 C.ar  388  HIS388      0.1986
    119  NE2       22.8830   66.8740  -49.7450 N.ar  388  HIS388     -0.2212
    120  N         21.7640   63.0080  -51.2680 N.am  389  ARG389     -0.1980
    121  CA        20.3640   62.6770  -51.4640 C.3   389  ARG389      0.1597
    122  C         20.1260   61.6590  -52.5450 C.2   389  ARG389      0.2287
    123  O         19.1590   60.8950  -52.4700 O.2   389  ARG389     -0.2864
    124  CB        19.4790   63.8950  -51.6220 C.3   389  ARG389      0.0334
    125  CG        19.5240   64.8010  -50.4030 C.3   389  ARG389      0.0492
    126  CD        18.3210   65.6870  -50.2680 C.3   389  ARG389      0.2205
    127  NE        18.6650   66.6930  -49.2640 N.pl3 389  ARG389     -0.0865
    128  CZ        18.5980   66.5180  -47.9550 C.cat 389  ARG389      0.5346
    129  NH1       18.1220   65.3970  -47.4260 N.pl3 389  ARG389      0.1354
    130  NH2       19.0180   67.5050  -47.1510 N.pl3 389  ARG389      0.1354
@<TRIPOS>BOND
     1   101   102    2
     2   101   100    1
     3    99   100    1
     4   100   103    1
     5    55    56    2
     6    55    54    1
     7   103   104    1
     8    53    54    1
     9    81    82    1
    10    54    57    1
    11    84    83    2
    12   104   105    1
    13    93    92    2
    14    82    83    1
    15    82    85    1
    16    83    90   am
    17    92    91    1
    18    57    58    1
    19    86    85    1
    20    86    87    1
    21    59    58    1
    22    59    60    1
    23   105   106    1
    24    60    61    2
    25    90    91    1
    26    88    87    1
    27    88    89    1
    28    91    94    1
    29   106   107    2
    30    61    63    1
    31    61    62    1
    32    94    95    1
    33   107   108    1
    34   107   109    1
    35    97    96   ar
    36    95    96    1
    37   122   123    2
    38   122   121    1
    39    73    74    1
    40    96    98   ar
    41    74    75    1
    42    74    77    1
    43    79    78   ar
    44    75    76    2
    45    35    33   am
    46   124   121    1
    47   124   125    1
    48   110   111    1
    49   121   120    1
    50    71    70    2
    51   120   112   am
    52    43    42    1
    53    43    44    1
    54    68    65    1
    55    68    69    1
    56    66    65    1
    57    66    67    2
    58    70    72   am
    59    70    69    1
    60    78    77    1
    61    78    80   ar
    62    64    65    1
    63    31    30    2
    64    33    34    2
    65    33    32    1
    66   112   111    1
    67   112   113    2
    68    42    38   am
    69   125   126    1
    70   111   114    1
    71    45    44    2
    72    44    46   am
    73   126   127    1
    74   117   119   ar
    75   117   115   ar
    76    29    30    1
    77    29    32    1
    78    29    28    1
    79    30    36   am
    80   119   118   ar
    81    38    39    2
    82    38    37    1
    83    46    47    1
    84   127   128    2
    85   115   114    1
    86   115   116   ar
    87    36    37    1
    88    37    40    1
    89   118   116   ar
    90    47    48    1
    91    47    50    1
    92    51    50    1
    93   128   129    1
    94   128   130    1
    95    48    49    2
    96    50    52    1
    97    40    41    1
    98    27    25   ar
    99     9     8    1
   100    26    25   ar
   101    25    24    1
   102     8     7    1
   103     7     6    1
   104    24    21    1
   105    19    17   ar
   106    19    18   ar
   107    17    15   ar
   108    21    20    1
   109    21    22    1
   110     6     5    1
   111    18    16   ar
   112     5     2    1
   113    15    16   ar
   114    15    14    1
   115    23    22    2
   116    14    11    1
   117     3     4    2
   118     3     2    1
   119     2     1    1
   120    11    12    1
   121    11    10    1
   122    12    13    2
