@<TRIPOS>MOLECULE
tmp/3slhD02.pdb
 98 91 0 0 0
SMALL
GASTEIGER

@<TRIPOS>ATOM
      1  N         19.3720   71.1580  -41.4120 N.3    23  LYS23      -0.1231
      2  CA        20.6290   71.6450  -41.9330 C.3    23  LYS23       0.1693
      3  C         20.5740   73.1240  -42.2580 C.2    23  LYS23       0.2592
      4  O         21.5220   73.8770  -41.9460 O.2    23  LYS23      -0.2718
      5  CB        21.0020   70.8080  -43.1740 C.3    23  LYS23       0.0285
      6  CG        22.2730   71.2530  -43.8630 C.3    23  LYS23       0.0035
      7  CD        22.7270   70.2530  -44.9450 C.3    23  LYS23       0.0206
      8  CE        21.6940   70.0070  -46.0520 C.3    23  LYS23       0.1093
      9  NZ        21.3850   71.2300  -46.8450 N.3    23  LYS23      -0.1314
     10  N         19.4880   73.5370  -42.9130 N.am   24  SER24      -0.1952
     11  CA        19.3190   74.9250  -43.3290 C.3    24  SER24       0.1924
     12  C         19.2660   75.8660  -42.1400 C.2    24  SER24       0.2314
     13  O         19.9540   76.8920  -42.1240 O.2    24  SER24      -0.2863
     14  CB        18.0580   75.0870  -44.1820 C.3    24  SER24       0.2116
     15  OG        18.2540   74.5140  -45.4650 O.3    24  SER24      -0.2180
     16  N         22.2000   78.9100  -40.5030 N.3    28  ARG28      -0.1245
     17  CA        21.7990   80.2730  -40.1680 C.3    28  ARG28       0.1563
     18  C         21.9460   80.5450  -38.6650 C.2    28  ARG28       0.2260
     19  O         22.4330   81.6070  -38.2550 O.2    28  ARG28      -0.2867
     20  CB        20.3410   80.4570  -40.6160 C.3    28  ARG28       0.0307
     21  CG        20.1510   80.4060  -42.1290 C.3    28  ARG28       0.0489
     22  CD        18.7500   80.0360  -42.4780 C.3    28  ARG28       0.2205
     23  NE        18.4410   80.2980  -43.8720 N.pl3  28  ARG28      -0.0865
     24  CZ        18.7670   79.5030  -44.8930 C.cat  28  ARG28       0.5346
     25  NH1       19.4230   78.3660  -44.6850 N.pl3  28  ARG28       0.1354
     26  NH2       18.4130   79.8350  -46.1280 N.pl3  28  ARG28       0.1354
     27  N         25.4010   76.0660  -49.3340 N.3    98  THR98      -0.1218
     28  CA        24.7490   76.9870  -48.3930 C.3    98  THR98       0.1862
     29  C         25.8030   77.7450  -47.6030 C.2    98  THR98       0.2287
     30  O         25.7010   78.9670  -47.4190 O.2    98  THR98      -0.2866
     31  CB        23.7910   76.2630  -47.3960 C.3    98  THR98       0.1770
     32  OG1       22.7670   75.5730  -48.1080 O.3    98  THR98      -0.2211
     33  CG2       23.1280   77.2800  -46.4180 C.3    98  THR98       0.0375
     34  N         15.7550   81.0800  -55.2000 N.3   169  SER169     -0.1202
     35  CA        16.8710   80.6600  -54.3580 C.3   169  SER169      0.2020
     36  C         16.8710   81.3310  -53.0000 C.2   169  SER169      0.2619
     37  O         17.0850   82.5490  -52.8930 O.2   169  SER169     -0.2717
     38  CB        18.2080   80.9710  -55.0460 C.3   169  SER169      0.2103
     39  OG        19.2940   80.7790  -54.1470 O.3   169  SER169     -0.2182
     40  N         16.6510   80.5290  -51.9570 N.am  170  ALA170     -0.1965
     41  CA        16.6870   81.0210  -50.6010 C.3   170  ALA170      0.1728
     42  C         18.1460   81.3700  -50.2270 C.2   170  ALA170      0.2616
     43  O         18.3770   82.2070  -49.3780 O.2   170  ALA170     -0.2715
     44  CB        16.0940   79.9650  -49.6220 C.3   170  ALA170      0.0334
     45  N         19.1260   80.7290  -50.8610 N.am  171  GLN171     -0.1977
     46  CA        20.5290   81.0680  -50.5950 C.3   171  GLN171      0.1601
     47  C         20.8910   82.4650  -51.1110 C.2   171  GLN171      0.2287
     48  O         21.5890   83.2030  -50.4230 O.2   171  GLN171     -0.2864
     49  CB        21.4880   80.0290  -51.1920 C.3   171  GLN171      0.0394
     50  CG        21.3790   78.6530  -50.5600 C.3   171  GLN171      0.0908
     51  CD        22.4590   77.7060  -51.0540 C.2   171  GLN171      0.2608
     52  OE1       23.5480   78.1380  -51.4320 O.2   171  GLN171     -0.2717
     53  NE2       22.2040   76.4180  -50.9580 N.am  171  GLN171     -0.0878
     54  N         12.3180   78.7920  -49.0160 N.3   196  ARG196     -0.1245
     55  CA        12.3680   78.6260  -47.5570 C.3   196  ARG196      0.1563
     56  C         12.6990   79.9260  -46.8450 C.2   196  ARG196      0.2260
     57  O         13.5940   80.6740  -47.2680 O.2   196  ARG196     -0.2867
     58  CB        13.3110   77.4880  -47.1280 C.3   196  ARG196      0.0307
     59  CG        14.7910   77.6960  -47.3890 C.3   196  ARG196      0.0489
     60  CD        15.5380   76.3710  -47.1910 C.3   196  ARG196      0.2205
     61  NE        15.0850   75.4060  -48.1760 N.pl3 196  ARG196     -0.0865
     62  CZ        15.3560   74.1090  -48.1700 C.cat 196  ARG196      0.5346
     63  NH1       16.0850   73.5820  -47.2050 N.pl3 196  ARG196      0.1354
     64  NH2       14.8500   73.3380  -49.1060 N.pl3 196  ARG196      0.1354
     65  N         12.2560   71.2910  -53.3790 N.3   316  ILE316     -0.1231
     66  CA        13.4530   71.1810  -54.2000 C.3   316  ILE316      0.1692
     67  C         14.4150   70.0540  -53.8130 C.2   316  ILE316      0.2592
     68  O         14.8410   69.2930  -54.6840 O.2   316  ILE316     -0.2718
     69  CB        14.1900   72.5610  -54.3460 C.3   316  ILE316      0.0266
     70  CG1       15.2130   72.5070  -55.4890 C.3   316  ILE316      0.0019
     71  CG2       14.8060   73.0140  -52.9980 C.3   316  ILE316      0.0020
     72  CD1       14.6000   72.2570  -56.8350 C.3   316  ILE316      0.0001
     73  N         14.7150   69.9010  -52.5270 N.am  317  ASP317     -0.1974
     74  CA        15.6510   68.8560  -52.1000 C.3   317  ASP317      0.1709
     75  C         15.0170   67.4690  -51.9710 C.2   317  ASP317      0.2293
     76  O         15.7260   66.4770  -51.8890 O.2   317  ASP317     -0.2864
     77  CB        16.3230   69.2370  -50.7810 C.3   317  ASP317      0.1436
     78  CG        17.2550   70.4130  -50.9170 C.2   317  ASP317      0.3671
     79  OD1       17.6310   70.7880  -52.0580 O.co2 317  ASP317     -0.2456
     80  OD2       17.6610   70.9310  -49.8530 O.co2 317  ASP317     -0.2456
     81  N         22.9570   71.3510  -58.3690 N.3   344  LYS344     -0.1231
     82  CA        23.1370   70.9870  -56.9740 C.3   344  LYS344      0.1693
     83  C         24.4570   70.2090  -56.8130 C.2   344  LYS344      0.2591
     84  O         25.3750   70.3360  -57.6320 O.2   344  LYS344     -0.2718
     85  CB        21.9210   70.2050  -56.4750 C.3   344  LYS344      0.0285
     86  CG        20.6030   70.9610  -56.5400 C.3   344  LYS344      0.0035
     87  CD        20.5510   72.1100  -55.5180 C.3   344  LYS344      0.0206
     88  CE        19.2450   72.8950  -55.6250 C.3   344  LYS344      0.1093
     89  NZ        19.2590   74.0950  -54.7110 N.3   344  LYS344     -0.1314
     90  N         24.5900   69.4580  -55.7250 N.am  345  GLU345     -0.1979
     91  CA        25.8330   68.7170  -55.4560 C.3   345  GLU345      0.1602
     92  C         26.2520   67.9610  -56.7060 C.2   345  GLU345      0.2287
     93  O         27.4460   67.8920  -57.0500 O.2   345  GLU345     -0.2864
     94  CB        25.6820   67.7890  -54.2550 C.3   345  GLU345      0.0415
     95  CG        25.5620   68.5120  -52.8730 C.3   345  GLU345      0.1163
     96  CD        24.1550   68.9810  -52.5050 C.2   345  GLU345      0.3649
     97  OE1       23.3680   69.3510  -53.4010 O.co2 345  GLU345     -0.2457
     98  OE2       23.8450   69.0330  -51.2900 O.co2 345  GLU345     -0.2457
@<TRIPOS>BOND
     1    81    82    1
     2    84    83    2
     3    93    92    2
     4    82    83    1
     5    82    85    1
     6    72    70    1
     7    83    90   am
     8    92    91    1
     9    86    85    1
    10    86    87    1
    11    90    91    1
    12    88    87    1
    13    88    89    1
    14    70    69    1
    15    91    94    1
    16    34    35    1
    17    38    35    1
    18    38    39    1
    19    68    67    2
    20    35    36    1
    21    69    66    1
    22    69    71    1
    23    94    95    1
    24    66    67    1
    25    66    65    1
    26    67    73   am
    27    97    96   ar
    28    36    37    2
    29    36    40   am
    30    95    96    1
    31    73    74    1
    32    96    98   ar
    33    74    75    1
    34    74    77    1
    35    79    78   ar
    36    75    76    2
    37    40    41    1
    38    52    51    2
    39    49    46    1
    40    49    50    1
    41    47    46    1
    42    47    48    2
    43    51    53   am
    44    51    50    1
    45    78    77    1
    46    78    80   ar
    47    45    46    1
    48    45    42   am
    49    41    42    1
    50    41    44    1
    51    42    43    2
    52    27    28    1
    53    64    62    1
    54    54    55    1
    55    28    29    1
    56    28    31    1
    57    61    62    2
    58    61    60    1
    59    62    63    1
    60    32    31    1
    61    29    30    2
    62    55    58    1
    63    55    56    1
    64    31    33    1
    65    59    60    1
    66    59    58    1
    67    57    56    2
    68     9     8    1
    69    26    24    1
    70     8     7    1
    71    15    14    1
    72     7     6    1
    73    24    25    1
    74    24    23    2
    75    14    11    1
    76    23    22    1
    77     6     5    1
    78    11    10    1
    79    11    12    1
    80     5     2    1
    81    10     3   am
    82    22    21    1
    83     3     4    2
    84     3     2    1
    85    12    13    2
    86    21    20    1
    87     2     1    1
    88    20    17    1
    89    16    17    1
    90    17    18    1
    91    18    19    2
