@<TRIPOS>MOLECULE
tmp/3slhA03.pdb
 85 83 0 0 0
SMALL
GASTEIGER

@<TRIPOS>ATOM
      1  N         -3.5670   25.9630  -19.6720 N.3    80  MET80      -0.1230
      2  CA        -2.7950   27.0790  -20.2380 C.3    80  MET80       0.1702
      3  C         -1.2950   26.9710  -20.0330 C.2    80  MET80       0.2593
      4  O         -0.5240   27.3270  -20.9420 O.2    80  MET80      -0.2718
      5  CB        -3.2890   28.4290  -19.6910 C.3    80  MET80       0.0401
      6  CG        -4.7820   28.7050  -19.9150 C.3    80  MET80       0.0596
      7  SD        -5.3340   28.6400  -21.6530 S.3    80  MET80      -0.1393
      8  CE        -4.4990   30.1090  -22.2820 C.3    80  MET80       0.0692
      9  N         -0.8730   26.4800  -18.8630 N.am   81  THR81      -0.1953
     10  CA         0.5450   26.4330  -18.5150 C.3    81  THR81       0.1897
     11  C          1.1180   25.0270  -18.5460 C.2    81  THR81       0.2313
     12  O          2.2370   24.7890  -18.0870 O.2    81  THR81      -0.2863
     13  CB         0.7950   27.0790  -17.1430 C.3    81  THR81       0.1794
     14  OG1        0.2970   26.2230  -16.1240 O.3    81  THR81      -0.2208
     15  CG2        0.1040   28.4500  -17.0500 C.3    81  THR81       0.0378
     16  N          7.4550   34.6350  -19.7030 N.3   155  PRO155     -0.2102
     17  CA         6.1530   34.4620  -19.0670 C.3   155  PRO155      0.1504
     18  C          5.4900   35.7450  -18.5390 C.2   155  PRO155      0.2575
     19  O          4.4160   35.6620  -17.9600 O.2   155  PRO155     -0.2718
     20  CB         6.4430   33.4600  -17.9450 C.3   155  PRO155      0.0282
     21  CG         7.9210   33.5580  -17.6960 C.3   155  PRO155      0.0208
     22  CD         8.5580   34.0120  -18.9550 C.3   155  PRO155      0.0893
     23  N          6.1240   36.9030  -18.7140 N.am  156  ARG156     -0.1980
     24  CA         5.5630   38.1830  -18.3000 C.3   156  ARG156      0.1597
     25  C          5.3360   39.1400  -19.4810 C.2   156  ARG156      0.2287
     26  O          5.7440   40.2850  -19.4380 O.2   156  ARG156     -0.2864
     27  CB         6.4900   38.8790  -17.2770 C.3   156  ARG156      0.0334
     28  CG         6.8400   38.0210  -16.0950 C.3   156  ARG156      0.0492
     29  CD         5.6570   37.7980  -15.1960 C.3   156  ARG156      0.2205
     30  NE         5.3990   38.9560  -14.3450 N.pl3 156  ARG156     -0.0865
     31  CZ         4.3340   39.0860  -13.5560 C.cat 156  ARG156      0.5346
     32  NH1        4.1970   40.1740  -12.8070 N.pl3 156  ARG156      0.1354
     33  NH2        3.4000   38.1400  -13.5210 N.pl3 156  ARG156      0.1354
     34  N         -3.3760   35.6940  -24.7020 N.3   180  LEU180     -0.1231
     35  CA        -3.9250   34.8100  -23.6630 C.3   180  LEU180      0.1693
     36  C         -2.9360   34.7090  -22.4890 C.2   180  LEU180      0.2592
     37  O         -3.3240   34.3790  -21.3680 O.2   180  LEU180     -0.2718
     38  CB        -4.1810   33.4310  -24.2240 C.3   180  LEU180      0.0284
     39  CG        -5.0170   33.2890  -25.4990 C.3   180  LEU180      0.0019
     40  CD1       -5.2060   31.8190  -25.8570 C.3   180  LEU180      0.0001
     41  CD2       -6.3630   33.9790  -25.4090 C.3   180  LEU180      0.0001
     42  N         -1.6660   34.9570  -22.7770 N.am  181  TYR181     -0.1962
     43  CA        -0.5900   34.8650  -21.8010 C.3   181  TYR181      0.1771
     44  C         -0.0900   36.1940  -21.2940 C.2   181  TYR181      0.2619
     45  O          0.6910   36.2310  -20.3370 O.2   181  TYR181     -0.2715
     46  CB         0.5660   34.1060  -22.4300 C.3   181  TYR181      0.0574
     47  CG         0.2240   32.6740  -22.6660 C.ar  181  TYR181     -0.0198
     48  CD1        0.4130   31.7330  -21.6650 C.ar  181  TYR181     -0.0009
     49  CD2       -0.3410   32.2520  -23.8550 C.ar  181  TYR181     -0.0009
     50  CE1        0.0960   30.4040  -21.8460 C.ar  181  TYR181      0.0417
     51  CE2       -0.6860   30.9060  -24.0510 C.ar  181  TYR181      0.0417
     52  CZ        -0.4610   29.9810  -23.0290 C.ar  181  TYR181      0.1957
     53  OH        -0.7760   28.6500  -23.2240 O.3   181  TYR181     -0.2866
     54  N         -0.5940   37.2820  -21.8540 N.am  182  ALA182     -0.1963
     55  CA        -0.0820   38.6120  -21.5320 C.3   182  ALA182      0.1728
     56  C         -0.9000   39.3090  -20.4580 C.2   182  ALA182      0.2616
     57  O         -2.1030   39.0920  -20.3330 O.2   182  ALA182     -0.2715
     58  CB        -0.0540   39.4610  -22.7890 C.3   182  ALA182      0.0334
     59  N         -0.2280   40.1450  -19.6790 N.am  183  ARG183     -0.1963
     60  CA        -0.8810   40.9120  -18.6380 C.3   183  ARG183      0.1729
     61  C         -1.7200   42.0140  -19.2770 C.2   183  ARG183      0.2616
     62  O         -1.2270   42.7910  -20.1150 O.2   183  ARG183     -0.2715
     63  CB         0.1860   41.5110  -17.7170 C.3   183  ARG183      0.0348
     64  CG         1.0780   40.4600  -17.0220 C.3   183  ARG183      0.0492
     65  CD         2.2300   41.0840  -16.2290 C.3   183  ARG183      0.2205
     66  NE         3.3140   41.5950  -17.0780 N.pl3 183  ARG183     -0.0865
     67  CZ         4.4330   42.1530  -16.6050 C.cat 183  ARG183      0.5346
     68  NH1        5.3750   42.5910  -17.4370 N.pl3 183  ARG183      0.1354
     69  NH2        4.6150   42.2780  -15.2900 N.pl3 183  ARG183      0.1354
     70  N         -2.9960   42.0650  -18.9310 N.am  184  GLY184     -0.1955
     71  CA        -3.8810   43.0820  -19.4720 C.3   184  GLY184      0.1869
     72  C         -4.5330   42.7560  -20.8000 C.2   184  GLY184      0.2309
     73  O         -4.6030   41.5950  -21.1890 O.2   184  GLY184     -0.2863
     74  N         -5.4150   38.5930  -20.9350 N.3   220  GLY220     -0.1210
     75  CA        -4.6420   37.4410  -20.5480 C.3   220  GLY220      0.1956
     76  C         -5.0970   36.8540  -19.2310 C.2   220  GLY220      0.2612
     77  O         -5.7640   37.5330  -18.4200 O.2   220  GLY220     -0.2717
     78  N         -4.7500   35.5910  -19.0230 N.am  221  GLY221     -0.1942
     79  CA        -5.0240   34.9140  -17.7520 C.3   221  GLY221      0.2014
     80  C         -6.2880   34.0920  -17.6700 C.2   221  GLY221      0.2639
     81  O         -6.5770   33.5100  -16.6220 O.2   221  GLY221     -0.2714
     82  N         -7.0500   34.0360  -18.7570 N.am  222  GLY222     -0.1954
     83  CA        -8.2690   33.2340  -18.7930 C.3   222  GLY222      0.1869
     84  C         -7.9160   31.7750  -19.0200 C.2   222  GLY222      0.2309
     85  O         -6.7420   31.4300  -19.1860 O.2   222  GLY222     -0.2863
@<TRIPOS>BOND
     1    40    39    1
     2    39    41    1
     3    39    38    1
     4    34    35    1
     5    38    35    1
     6    51    49   ar
     7    51    52   ar
     8    49    47   ar
     9    35    36    1
    10    53    52    1
    11    52    50   ar
    12    58    55    1
    13    42    36   am
    14    42    43    1
    15    47    46    1
    16    47    48   ar
    17    36    37    2
    18    46    43    1
    19     8     7    1
    20    54    55    1
    21    54    44   am
    22    50    48   ar
    23    43    44    1
    24     7     6    1
    25    55    56    1
    26    44    45    2
    27    73    72    2
    28     4     3    2
    29    74    75    1
    30    72    71    1
    31    75    76    1
    32    56    57    2
    33    56    59   am
    34     2     3    1
    35     2     5    1
    36     2     1    1
    37    62    61    2
    38     3     9   am
    39     6     5    1
    40    16    17    1
    41    16    22    1
    42    59    60    1
    43    25    26    2
    44    25    24    1
    45    71    70    1
    46    61    70   am
    47    61    60    1
    48    76    78   am
    49    76    77    2
    50    85    84    2
    51    17    18    1
    52    17    20    1
    53    78    79    1
    54    84    83    1
    55    22    21    1
    56     9    10    1
    57    83    82    1
    58    82    80   am
    59    23    18   am
    60    23    24    1
    61    60    63    1
    62    11    10    1
    63    11    12    2
    64    18    19    2
    65    10    13    1
    66    24    27    1
    67    20    21    1
    68    79    80    1
    69    63    64    1
    70    80    81    2
    71    68    67    1
    72    27    28    1
    73    13    15    1
    74    13    14    1
    75    66    67    2
    76    66    65    1
    77    64    65    1
    78    67    69    1
    79    28    29    1
    80    29    30    1
    81    30    31    2
    82    31    33    1
    83    31    32    1
