@<TRIPOS>MOLECULE
tmp/3sljA01.pdb
 99 97 0 0 0
SMALL
GASTEIGER

@<TRIPOS>ATOM
      1  N         -1.1390  -12.8380  -14.6000 N.3   174  PRO174     -0.2102
      2  CA        -1.9590  -13.8820  -15.2200 C.3   174  PRO174      0.1504
      3  C         -2.6760  -13.3440  -16.4400 C.2   174  PRO174      0.2576
      4  O         -3.0780  -12.1800  -16.4740 O.2   174  PRO174     -0.2718
      5  CB        -2.9760  -14.2280  -14.1300 C.3   174  PRO174      0.0282
      6  CG        -3.0630  -13.0100  -13.2990 C.3   174  PRO174      0.0208
      7  CD        -1.6720  -12.4340  -13.2880 C.3   174  PRO174      0.0893
      8  N         -2.8340  -14.2030  -17.4360 N.am  175  GLN175     -0.1966
      9  CA        -3.3750  -13.7990  -18.7150 C.3   175  GLN175      0.1733
     10  C         -4.2450  -14.9000  -19.2690 C.2   175  GLN175      0.2616
     11  O         -4.0130  -16.0820  -19.0330 O.2   175  GLN175     -0.2715
     12  CB        -2.2430  -13.5640  -19.7180 C.3   175  GLN175      0.0408
     13  CG        -1.2310  -12.5140  -19.3280 C.3   175  GLN175      0.0908
     14  CD         0.0100  -12.5570  -20.2080 C.2   175  GLN175      0.2608
     15  OE1        0.1130  -13.3740  -21.1250 O.2   175  GLN175     -0.2717
     16  NE2        0.9550  -11.6750  -19.9300 N.am  175  GLN175     -0.0878
     17  N         -5.2320  -14.5020  -20.0450 N.am  176  ALA176     -0.1977
     18  CA        -6.0670  -15.4530  -20.7400 C.3   176  ALA176      0.1597
     19  C         -6.3550  -14.8530  -22.0980 C.2   176  ALA176      0.2287
     20  O         -6.5280  -13.6410  -22.2350 O.2   176  ALA176     -0.2864
     21  CB        -7.3610  -15.7050  -19.9660 C.3   176  ALA176      0.0319
     22  N         -3.7760  -19.7150  -21.4740 N.3   211  THR211     -0.1203
     23  CA        -3.7570  -19.2230  -20.1110 C.3   211  THR211      0.1994
     24  C         -2.2970  -19.2860  -19.6690 C.2   211  THR211      0.2618
     25  O         -1.6180  -20.2860  -19.8870 O.2   211  THR211     -0.2717
     26  CB        -4.6380  -20.0730  -19.1750 C.3   211  THR211      0.1784
     27  OG1       -4.1610  -21.4250  -19.1550 O.3   211  THR211     -0.2211
     28  CG2       -6.0680  -20.0800  -19.6560 C.3   211  THR211      0.0376
     29  N         -1.8060  -18.2090  -19.0750 N.am  212  GLY212     -0.1942
     30  CA        -0.4230  -18.1630  -18.6690 C.3   212  GLY212      0.2014
     31  C         -0.1570  -17.1140  -17.6210 C.2   212  GLY212      0.2638
     32  O         -1.0530  -16.3600  -17.2320 O.2   212  GLY212     -0.2714
     33  N          1.0910  -17.0760  -17.1660 N.am  213  VAL213     -0.1977
     34  CA         1.5440  -16.0800  -16.2110 C.3   213  VAL213      0.1596
     35  C          2.8530  -15.4860  -16.6960 C.2   213  VAL213      0.2287
     36  O          3.7050  -16.1870  -17.2300 O.2   213  VAL213     -0.2864
     37  CB         1.7610  -16.6860  -14.8180 C.3   213  VAL213      0.0276
     38  CG1        2.0590  -15.5900  -13.8090 C.3   213  VAL213      0.0022
     39  CG2        0.5330  -17.4560  -14.4010 C.3   213  VAL213      0.0022
     40  N          5.3030  -18.3050  -18.7050 N.3   232  LEU232     -0.1231
     41  CA         4.9250  -19.7020  -18.7710 C.3   232  LEU232      0.1693
     42  C          3.4360  -19.7770  -19.0850 C.2   232  LEU232      0.2593
     43  O          2.6150  -19.1710  -18.3920 O.2   232  LEU232     -0.2718
     44  CB         5.2160  -20.3800  -17.4380 C.3   232  LEU232      0.0284
     45  CG         5.0380  -21.8930  -17.4130 C.3   232  LEU232      0.0019
     46  CD1        5.9730  -22.5310  -18.4100 C.3   232  LEU232      0.0001
     47  CD2        5.3050  -22.4270  -16.0200 C.3   232  LEU232      0.0001
     48  N          3.0760  -20.5050  -20.1340 N.am  233  GLY233     -0.1942
     49  CA         1.6780  -20.5890  -20.5100 C.3   233  GLY233      0.2014
     50  C          1.2320  -21.9350  -21.0510 C.2   233  GLY233      0.2638
     51  O          2.0230  -22.8710  -21.2120 O.2   233  GLY233     -0.2714
     52  N         -0.0610  -22.0200  -21.3400 N.am  234  TYR234     -0.1973
     53  CA        -0.6590  -23.2210  -21.8850 C.3   234  TYR234      0.1639
     54  C         -1.5240  -22.8340  -23.0720 C.2   234  TYR234      0.2290
     55  O         -2.4320  -22.0240  -22.9400 O.2   234  TYR234     -0.2864
     56  CB        -1.4830  -23.9220  -20.8090 C.3   234  TYR234      0.0560
     57  CG        -2.1140  -25.2080  -21.2660 C.ar  234  TYR234     -0.0198
     58  CD1       -1.3790  -26.1490  -21.9840 C.ar  234  TYR234     -0.0009
     59  CD2       -3.4410  -25.4980  -20.9620 C.ar  234  TYR234     -0.0009
     60  CE1       -1.9520  -27.3390  -22.3990 C.ar  234  TYR234      0.0417
     61  CE2       -4.0270  -26.6830  -21.3700 C.ar  234  TYR234      0.0417
     62  CZ        -3.2790  -27.6020  -22.0890 C.ar  234  TYR234      0.1957
     63  OH        -3.8620  -28.7810  -22.5000 O.3   234  TYR234     -0.2866
     64  N         -2.3450  -29.3370  -28.0980 N.3   261  SER261     -0.1202
     65  CA        -1.9840  -28.3420  -27.1020 C.3   261  SER261      0.2020
     66  C         -0.4810  -28.4260  -26.7560 C.2   261  SER261      0.2619
     67  O          0.1980  -29.3940  -27.0980 O.2   261  SER261     -0.2717
     68  CB        -2.8560  -28.4930  -25.8540 C.3   261  SER261      0.2103
     69  OG        -2.7580  -29.7950  -25.3180 O.3   261  SER261     -0.2182
     70  N          0.0310  -27.4000  -26.0900 N.am  262  ARG262     -0.1965
     71  CA         1.4620  -27.3050  -25.8070 C.3   262  ARG262      0.1729
     72  C          1.7110  -26.3040  -24.6800 C.2   262  ARG262      0.2616
     73  O          0.8860  -25.4270  -24.4140 O.2   262  ARG262     -0.2715
     74  CB         2.2300  -26.8930  -27.0750 C.3   262  ARG262      0.0348
     75  CG         1.9470  -25.4700  -27.5510 C.3   262  ARG262      0.0492
     76  CD         2.4470  -25.2030  -28.9650 C.3   262  ARG262      0.2205
     77  NE         1.8880  -26.1520  -29.9180 N.pl3 262  ARG262     -0.0865
     78  CZ         0.6350  -26.1080  -30.3660 C.cat 262  ARG262      0.5346
     79  NH1       -0.1900  -25.1500  -29.9440 N.pl3 262  ARG262      0.1354
     80  NH2        0.2020  -27.0270  -31.2270 N.pl3 262  ARG262      0.1354
     81  N          2.8360  -26.4500  -24.0010 N.am  263  MET263     -0.1977
     82  CA         3.2360  -25.4940  -22.9730 C.3   263  MET263      0.1605
     83  C          4.1670  -24.4400  -23.5670 C.2   263  MET263      0.2287
     84  O          5.1380  -24.7630  -24.2500 O.2   263  MET263     -0.2864
     85  CB         3.9330  -26.2140  -21.8260 C.3   263  MET263      0.0413
     86  CG         4.2990  -25.3190  -20.6770 C.3   263  MET263      0.0598
     87  SD         5.1940  -26.2420  -19.4120 S.3   263  MET263     -0.1393
     88  CE         6.8180  -26.4190  -20.1690 C.3   263  MET263      0.0692
     89  N          5.8030  -30.4420  -25.3990 N.3   288  PHE288     -0.1241
     90  CA         4.7320  -31.3980  -25.1410 C.3   288  PHE288      0.1605
     91  C          3.6700  -31.4790  -26.2380 C.2   288  PHE288      0.2264
     92  O          2.7990  -32.3390  -26.1850 O.2   288  PHE288     -0.2867
     93  CB         4.0680  -31.1380  -23.7800 C.3   288  PHE288      0.0534
     94  CG         5.0360  -31.0670  -22.6320 C.ar  288  PHE288     -0.0203
     95  CD1        6.0990  -31.9460  -22.5450 C.ar  288  PHE288     -0.0042
     96  CD2        4.8870  -30.1020  -21.6430 C.ar  288  PHE288     -0.0042
     97  CE1        7.0010  -31.8720  -21.4860 C.ar  288  PHE288     -0.0003
     98  CE2        5.7800  -30.0200  -20.5840 C.ar  288  PHE288     -0.0003
     99  CZ         6.8380  -30.9070  -20.5040 C.ar  288  PHE288     -0.0000
@<TRIPOS>BOND
     1    80    78    1
     2    78    79    1
     3    78    77    2
     4    77    76    1
     5    76    75    1
     6    64    65    1
     7    75    74    1
     8    65    66    1
     9    65    68    1
    10    67    66    2
    11    74    71    1
    12    66    70   am
    13    91    92    2
    14    91    90    1
    15    70    71    1
    16    68    69    1
    17    71    72    1
    18    89    90    1
    19    90    93    1
    20    72    73    2
    21    72    81   am
    22    84    83    2
    23    81    82    1
    24    93    94    1
    25    83    82    1
    26    54    55    2
    27    54    53    1
    28    82    85    1
    29    94    95   ar
    30    94    96   ar
    31    95    97   ar
    32    63    62    1
    33    60    62   ar
    34    60    58   ar
    35    20    19    2
    36    19    18    1
    37    62    61   ar
    38    58    57   ar
    39    53    52    1
    40    53    56    1
    41    85    86    1
    42    96    98   ar
    43    97    99   ar
    44    22    23    1
    45    61    59   ar
    46    52    50   am
    47    57    59   ar
    48    57    56    1
    49    51    50    2
    50    15    14    2
    51    50    49    1
    52    18    17    1
    53    18    21    1
    54    86    87    1
    55    98    99   ar
    56    49    48    1
    57    14    16   am
    58    14    13    1
    59    88    87    1
    60    48    42   am
    61    23    24    1
    62    23    26    1
    63    17    10   am
    64    25    24    2
    65    12    13    1
    66    12     9    1
    67    24    29   am
    68    28    26    1
    69    10    11    2
    70    10     9    1
    71    26    27    1
    72    42    41    1
    73    42    43    2
    74    29    30    1
    75    41    40    1
    76    41    44    1
    77     9     8    1
    78    30    31    1
    79    46    45    1
    80    31    32    2
    81    31    33   am
    82    44    45    1
    83     8     3   am
    84    45    47    1
    85    36    35    2
    86    33    34    1
    87    35    34    1
    88     4     3    2
    89     3     2    1
    90    34    37    1
    91     2     1    1
    92     2     5    1
    93    37    39    1
    94    37    38    1
    95     1     7    1
    96     5     6    1
    97     6     7    1
