@<TRIPOS>MOLECULE
tmp/3sljA07.pdb
 96 92 0 0 0
SMALL
GASTEIGER

@<TRIPOS>ATOM
      1  N         14.2750   -0.6020  -18.0460 N.3   226  VAL226     -0.1245
      2  CA        14.4210   -1.9230  -18.6380 C.3   226  VAL226      0.1561
      3  C         13.7380   -2.9560  -17.7720 C.2   226  VAL226      0.2260
      4  O         13.9580   -3.0140  -16.5660 O.2   226  VAL226     -0.2867
      5  CB        15.8970   -2.3280  -18.8290 C.3   226  VAL226      0.0252
      6  CG1       15.9750   -3.7680  -19.2940 C.3   226  VAL226      0.0019
      7  CG2       16.5680   -1.4220  -19.8430 C.3   226  VAL226      0.0019
      8  N         12.6980   -8.9340  -22.6490 N.3   269  LEU269     -0.1245
      9  CA        12.7760   -7.6360  -22.0070 C.3   269  LEU269      0.1561
     10  C         11.9520   -6.5770  -22.7430 C.2   269  LEU269      0.2260
     11  O         11.6720   -6.7070  -23.9370 O.2   269  LEU269     -0.2867
     12  CB        14.2350   -7.1940  -21.8620 C.3   269  LEU269      0.0270
     13  CG        15.0260   -6.9410  -23.1430 C.3   269  LEU269      0.0019
     14  CD1       14.6210   -5.6080  -23.7510 C.3   269  LEU269      0.0001
     15  CD2       16.5300   -6.9700  -22.8540 C.3   269  LEU269      0.0001
     16  N         12.1950   -2.4090  -23.2240 N.3   271  ALA271     -0.1245
     17  CA        13.0260   -1.2410  -22.9790 C.3   271  ALA271      0.1562
     18  C         12.3270    0.0790  -23.2930 C.2   271  ALA271      0.2260
     19  O         11.5700    0.1910  -24.2640 O.2   271  ALA271     -0.2867
     20  CB        14.3280   -1.3410  -23.7570 C.3   271  ALA271      0.0290
     21  N         13.5460    4.0290  -23.8800 N.3   273  ILE273     -0.1231
     22  CA        14.5970    5.0200  -24.0290 C.3   273  ILE273      0.1692
     23  C         13.9960    6.4060  -24.1990 C.2   273  ILE273      0.2592
     24  O         13.3830    6.7000  -25.2210 O.2   273  ILE273     -0.2718
     25  CB        15.5420    4.7060  -25.2240 C.3   273  ILE273      0.0266
     26  CG1       16.4770    3.5520  -24.8740 C.3   273  ILE273      0.0019
     27  CG2       16.3630    5.9290  -25.6020 C.3   273  ILE273      0.0020
     28  CD1       15.8320    2.2050  -24.9990 C.3   273  ILE273      0.0001
     29  N         14.2050    7.2560  -23.1990 N.am  274  ARG274     -0.1966
     30  CA        13.6310    8.6000  -23.1680 C.3   274  ARG274      0.1729
     31  C         12.1160    8.5520  -23.3160 C.2   274  ARG274      0.2616
     32  O         11.4610    7.7300  -22.6770 O.2   274  ARG274     -0.2715
     33  CB        14.2740    9.5210  -24.2070 C.3   274  ARG274      0.0348
     34  CG        15.7960    9.6550  -24.0440 C.3   274  ARG274      0.0492
     35  CD        16.3570   10.8620  -24.7810 C.3   274  ARG274      0.2205
     36  NE        17.6960   10.6280  -25.3330 N.pl3 274  ARG274     -0.0865
     37  CZ        18.8420   10.9760  -24.7430 C.cat 274  ARG274      0.5346
     38  NH1       19.9990   10.7170  -25.3440 N.pl3 274  ARG274      0.1354
     39  NH2       18.8380   11.5800  -23.5550 N.pl3 274  ARG274      0.1354
     40  N         11.5610    9.4140  -24.1620 N.am  275  ASP275     -0.1957
     41  CA        10.1150    9.6230  -24.1720 C.3   275  ASP275      0.1840
     42  C          9.3290    8.9610  -25.3100 C.2   275  ASP275      0.2622
     43  O          8.1570    8.6380  -25.1380 O.2   275  ASP275     -0.2715
     44  CB         9.8080   11.1180  -24.1330 C.3   275  ASP275      0.1450
     45  CG        10.2950   11.7790  -22.8550 C.2   275  ASP275      0.3671
     46  OD1       10.1530   11.1700  -21.7680 O.co2 275  ASP275     -0.2456
     47  OD2       10.8200   12.9100  -22.9410 O.co2 275  ASP275     -0.2456
     48  N          9.9650    8.7610  -26.4620 N.am  276  ASN276     -0.1958
     49  CA         9.2640    8.2380  -27.6340 C.3   276  ASN276      0.1819
     50  C          9.5180    6.7670  -27.9660 C.2   276  ASN276      0.2621
     51  O          8.7060    6.1300  -28.6360 O.2   276  ASN276     -0.2715
     52  CB         9.6180    9.0700  -28.8680 C.3   276  ASN276      0.1195
     53  CG         9.5260   10.5600  -28.6150 C.2   276  ASN276      0.2630
     54  OD1       10.5260   11.2650  -28.6800 O.2   276  ASN276     -0.2716
     55  ND2        8.3230   11.0470  -28.3310 N.am  276  ASN276     -0.0877
     56  N         10.6520    6.2360  -27.5270 N.am  277  VAL277     -0.1977
     57  CA        11.1110    4.9600  -28.0420 C.3   277  VAL277      0.1596
     58  C         10.8600    3.8300  -27.0650 C.2   277  VAL277      0.2287
     59  O         11.1950    3.9270  -25.8870 O.2   277  VAL277     -0.2864
     60  CB        12.6090    5.0050  -28.4810 C.3   277  VAL277      0.0276
     61  CG1       13.2350    3.6090  -28.4900 C.3   277  VAL277      0.0022
     62  CG2       12.7370    5.6480  -29.8490 C.3   277  VAL277      0.0022
     63  N         11.1740   -0.6570  -27.0510 N.3   279  PHE279     -0.1241
     64  CA        11.6660   -1.8100  -27.7620 C.3   279  PHE279      0.1605
     65  C         11.3780   -3.0510  -26.9360 C.2   279  PHE279      0.2264
     66  O         11.5760   -3.0540  -25.7160 O.2   279  PHE279     -0.2867
     67  CB        13.1700   -1.6550  -28.0090 C.3   279  PHE279      0.0534
     68  CG        13.8290   -2.8790  -28.5730 C.ar  279  PHE279     -0.0203
     69  CD1       13.6980   -3.1970  -29.9230 C.ar  279  PHE279     -0.0042
     70  CD2       14.5980   -3.7010  -27.7610 C.ar  279  PHE279     -0.0042
     71  CE1       14.3130   -4.3200  -30.4520 C.ar  279  PHE279     -0.0003
     72  CE2       15.2150   -4.8300  -28.2800 C.ar  279  PHE279     -0.0003
     73  CZ        15.0740   -5.1380  -29.6300 C.ar  279  PHE279     -0.0000
     74  N          9.2850   -2.4540  -32.0030 N.3   301  PHE301     -0.1241
     75  CA         9.7470   -1.0900  -31.8200 C.3   301  PHE301      0.1605
     76  C          8.5170   -0.1970  -31.8870 C.2   301  PHE301      0.2264
     77  O          7.7720   -0.2330  -32.8630 O.2   301  PHE301     -0.2867
     78  CB        10.7110   -0.7310  -32.9580 C.3   301  PHE301      0.0534
     79  CG        11.4250    0.5810  -32.7810 C.ar  301  PHE301     -0.0203
     80  CD1       12.5920    0.6600  -32.0210 C.ar  301  PHE301     -0.0042
     81  CD2       10.9690    1.7290  -33.4180 C.ar  301  PHE301     -0.0042
     82  CE1       13.2690    1.8730  -31.8730 C.ar  301  PHE301     -0.0003
     83  CE2       11.6420    2.9460  -33.2770 C.ar  301  PHE301     -0.0003
     84  CZ        12.7880    3.0170  -32.5040 C.ar  301  PHE301     -0.0000
     85  N          7.3510    3.8220  -31.7170 N.3   303  TYR303     -0.1241
     86  CA         7.6080    5.2540  -31.6190 C.3   303  TYR303      0.1605
     87  C          6.3280    6.0010  -31.2380 C.2   303  TYR303      0.2264
     88  O          5.4020    6.1260  -32.0460 O.2   303  TYR303     -0.2867
     89  CB         8.1880    5.8160  -32.9220 C.3   303  TYR303      0.0534
     90  CG         8.6820    7.2380  -32.7620 C.ar  303  TYR303     -0.0201
     91  CD1        9.9910    7.4970  -32.3640 C.ar  303  TYR303     -0.0009
     92  CD2        7.8340    8.3210  -32.9780 C.ar  303  TYR303     -0.0009
     93  CE1       10.4430    8.7840  -32.1970 C.ar  303  TYR303      0.0417
     94  CE2        8.2830    9.6210  -32.8160 C.ar  303  TYR303      0.0417
     95  CZ         9.5890    9.8440  -32.4210 C.ar  303  TYR303      0.1957
     96  OH        10.0500   11.1310  -32.2500 O.3   303  TYR303     -0.2866
@<TRIPOS>BOND
     1    81    83   ar
     2    81    79   ar
     3    83    84   ar
     4    92    94   ar
     5    92    90   ar
     6    78    79    1
     7    78    75    1
     8    89    90    1
     9    89    86    1
    10    77    76    2
    11    94    95   ar
    12    79    80   ar
    13    90    91   ar
    14    84    82   ar
    15    95    96    1
    16    95    93   ar
    17    91    93   ar
    18    88    87    2
    19    80    82   ar
    20    74    75    1
    21    76    75    1
    22    85    86    1
    23    86    87    1
    24    71    69   ar
    25    71    73   ar
    26    69    68   ar
    27    62    60    1
    28    73    72   ar
    29    52    53    1
    30    52    49    1
    31    54    53    2
    32    51    50    2
    33    53    55   am
    34    68    67    1
    35    68    70   ar
    36    61    60    1
    37    60    57    1
    38    72    70   ar
    39    57    56    1
    40    57    58    1
    41    67    64    1
    42    50    49    1
    43    50    56   am
    44    64    63    1
    45    64    65    1
    46    49    48    1
    47    58    59    2
    48    65    66    2
    49    48    42   am
    50    27    25    1
    51    38    37    1
    52    36    35    1
    53    36    37    2
    54    42    43    2
    55    42    41    1
    56    25    26    1
    57    25    22    1
    58    24    23    2
    59    28    26    1
    60    35    34    1
    61    37    39    1
    62    19    18    2
    63    33    34    1
    64    33    30    1
    65    23    22    1
    66    23    29   am
    67    41    40    1
    68    41    44    1
    69    40    31   am
    70    44    45    1
    71    22    21    1
    72    11    10    2
    73    20    17    1
    74    14    13    1
    75    31    30    1
    76    31    32    2
    77    18    17    1
    78    16    17    1
    79    29    30    1
    80    13    15    1
    81    13    12    1
    82    47    45   ar
    83    45    46   ar
    84    10     9    1
    85     8     9    1
    86     9    12    1
    87     7     5    1
    88     6     5    1
    89     5     2    1
    90     2     1    1
    91     2     3    1
    92     3     4    2
