@<TRIPOS>MOLECULE
tmp/3sloA01.pdb
 115 112 0 0 0
SMALL
GASTEIGER

@<TRIPOS>ATOM
      1  N         -7.7290    6.1520  -32.0870 N.3    73  VAL73      -0.1231
      2  CA        -7.6510    5.6950  -33.4640 C.3    73  VAL73       0.1692
      3  C         -6.3740    4.8510  -33.6400 C.2    73  VAL73       0.2592
      4  O         -5.3610    5.1390  -33.0470 O.2    73  VAL73      -0.2718
      5  CB        -7.6110    6.9060  -34.4680 C.3    73  VAL73       0.0266
      6  CG1       -8.8520    7.7770  -34.3680 C.3    73  VAL73       0.0020
      7  CG2       -6.3860    7.7650  -34.2190 C.3    73  VAL73       0.0020
      8  N         -6.4060    3.8420  -34.4920 N.am   74  ASP74      -0.1960
      9  CA        -5.2630    3.0110  -34.6940 C.3    74  ASP74       0.1840
     10  C         -5.1030    2.4260  -36.0700 C.2    74  ASP74       0.2621
     11  O         -5.9880    2.5130  -36.8900 O.2    74  ASP74      -0.2715
     12  CB        -5.1990    1.9320  -33.6100 C.3    74  ASP74       0.1450
     13  CG        -6.4170    1.1210  -33.4820 C.2    74  ASP74       0.3671
     14  OD1       -6.9730    0.7520  -34.5140 O.co2  74  ASP74      -0.2456
     15  OD2       -6.7810    0.7940  -32.3180 O.co2  74  ASP74      -0.2456
     16  N         -3.9260    1.8780  -36.3400 N.am   75  LYS75      -0.1977
     17  CA        -3.6770    1.0730  -37.5340 C.3    75  LYS75       0.1596
     18  C         -3.4760   -0.3530  -37.0200 C.2    75  LYS75       0.2287
     19  O         -2.8860   -0.5440  -35.9640 O.2    75  LYS75      -0.2864
     20  CB        -2.4200    1.5390  -38.2540 C.3    75  LYS75       0.0298
     21  CG        -2.4860    1.4260  -39.7650 C.3    75  LYS75       0.0038
     22  CD        -1.0740    1.4500  -40.4620 C.3    75  LYS75       0.0206
     23  CE        -1.1260    0.9870  -41.9670 C.3    75  LYS75       0.1093
     24  NZ        -1.6850   -0.4280  -42.0940 N.3    75  LYS75      -0.1314
     25  N         -1.6770   -3.7990  -38.0740 N.3    77  HIS77      -0.1241
     26  CA        -0.6920   -4.3780  -38.9520 C.3    77  HIS77       0.1621
     27  C         -0.9230   -5.8640  -38.9370 C.2    77  HIS77       0.2264
     28  O         -0.9500   -6.4600  -37.9010 O.2    77  HIS77      -0.2867
     29  CB         0.7390   -4.0440  -38.4780 C.3    77  HIS77       0.0745
     30  CG         0.9550   -2.5950  -38.1600 C.ar   77  HIS77       0.0817
     31  ND1        1.1920   -1.6420  -39.1320 N.ar   77  HIS77      -0.2268
     32  CD2        0.9470   -1.9310  -36.9790 C.ar   77  HIS77       0.1154
     33  CE1        1.3050   -0.4520  -38.5650 C.ar   77  HIS77       0.1986
     34  NE2        1.1720   -0.6020  -37.2590 N.ar   77  HIS77      -0.2212
     35  N         -1.7020   -0.3730  -33.3740 N.3    86  THR86      -0.1203
     36  CA        -0.8470    0.6610  -32.8040 C.3    86  THR86       0.1994
     37  C         -1.6400    1.9390  -32.9580 C.2    86  THR86       0.2618
     38  O         -2.1220    2.2010  -34.0450 O.2    86  THR86      -0.2717
     39  CB         0.5190    0.7830  -33.5160 C.3    86  THR86       0.1784
     40  OG1        0.3190    0.9620  -34.9190 O.3    86  THR86      -0.2211
     41  CG2        1.4110   -0.4300  -33.3130 C.3    86  THR86       0.0376
     42  N         -1.8530    2.6970  -31.8810 N.am   87  GLY87      -0.1942
     43  CA        -2.6200    3.9290  -31.9900 C.3    87  GLY87       0.2014
     44  C         -2.4100    4.9400  -30.8860 C.2    87  GLY87       0.2638
     45  O         -1.5690    4.7620  -29.9880 O.2    87  GLY87      -0.2714
     46  N         -3.1820    6.0190  -30.9950 N.am   88  PHE88      -0.1973
     47  CA        -3.2050    7.1550  -30.0770 C.3    88  PHE88       0.1639
     48  C         -4.5690    7.1880  -29.3780 C.2    88  PHE88       0.2290
     49  O         -5.5730    6.6810  -29.9160 O.2    88  PHE88      -0.2864
     50  CB        -3.0930    8.4790  -30.8360 C.3    88  PHE88       0.0560
     51  CG        -1.8110    8.6570  -31.6070 C.ar   88  PHE88      -0.0200
     52  CD1       -0.5520    8.7490  -30.9310 C.ar   88  PHE88      -0.0042
     53  CD2       -1.8330    8.7990  -33.0030 C.ar   88  PHE88      -0.0042
     54  CE1        0.6640    8.9260  -31.6430 C.ar   88  PHE88      -0.0003
     55  CE2       -0.6250    9.0040  -33.7130 C.ar   88  PHE88      -0.0003
     56  CZ         0.6270    9.0620  -33.0280 C.ar   88  PHE88      -0.0000
     57  N         -0.4500    6.5260  -26.0800 N.3   113  LEU113     -0.1231
     58  CA        -0.2030    5.6420  -27.2030 C.3   113  LEU113      0.1693
     59  C         -0.2310    4.2090  -26.6970 C.2   113  LEU113      0.2592
     60  O          0.1240    3.9350  -25.5600 O.2   113  LEU113     -0.2718
     61  CB         1.0920    5.9860  -27.9920 C.3   113  LEU113      0.0284
     62  CG         2.4600    6.0030  -27.3390 C.3   113  LEU113      0.0019
     63  CD1        3.6980    6.2520  -28.3370 C.3   113  LEU113      0.0001
     64  CD2        2.4360    7.0570  -26.2630 C.3   113  LEU113      0.0001
     65  N         -0.7290    3.3100  -27.5310 N.am  114  TYR114     -0.1962
     66  CA        -0.8250    1.9280  -27.1750 C.3   114  TYR114      0.1771
     67  C         -0.4040    1.0160  -28.3120 C.2   114  TYR114      0.2619
     68  O         -0.3690    1.3830  -29.4830 O.2   114  TYR114     -0.2715
     69  CB        -2.2540    1.6080  -26.7380 C.3   114  TYR114      0.0574
     70  CG        -3.3340    1.8730  -27.7600 C.ar  114  TYR114     -0.0198
     71  CD1       -3.9450    3.1070  -27.8610 C.ar  114  TYR114     -0.0009
     72  CD2       -3.7700    0.8670  -28.6000 C.ar  114  TYR114     -0.0009
     73  CE1       -4.9470    3.3430  -28.8240 C.ar  114  TYR114      0.0417
     74  CE2       -4.7640    1.0810  -29.5540 C.ar  114  TYR114      0.0417
     75  CZ        -5.3610    2.3120  -29.6650 C.ar  114  TYR114      0.1957
     76  OH        -6.3450    2.4990  -30.6200 O.3   114  TYR114     -0.2866
     77  N         -0.0590   -0.1930  -27.9310 N.am  115  ALA115     -0.1977
     78  CA         0.1930   -1.2550  -28.8830 C.3   115  ALA115      0.1597
     79  C         -0.5500   -2.4470  -28.2900 C.2   115  ALA115      0.2287
     80  O         -0.3820   -2.7330  -27.1130 O.2   115  ALA115     -0.2864
     81  CB         1.7150   -1.5340  -28.9880 C.3   115  ALA115      0.0319
     82  N          0.1720   -2.8720  -24.2290 N.3   127  LEU127     -0.1231
     83  CA         1.0980   -1.9140  -23.7250 C.3   127  LEU127      0.1693
     84  C          0.5230   -0.5290  -23.9270 C.2   127  LEU127      0.2592
     85  O          0.1100   -0.2440  -25.0210 O.2   127  LEU127     -0.2718
     86  CB         2.3870   -2.0500  -24.5250 C.3   127  LEU127      0.0284
     87  CG         3.0750   -3.4170  -24.3740 C.3   127  LEU127      0.0019
     88  CD1        4.2520   -3.4450  -25.2860 C.3   127  LEU127      0.0001
     89  CD2        3.4580   -3.7330  -22.9050 C.3   127  LEU127      0.0001
     90  N          0.4940    0.3190  -22.8950 N.am  128  ILE128     -0.1966
     91  CA        -0.0300    1.6950  -22.9750 C.3   128  ILE128      0.1727
     92  C          0.8130    2.6770  -22.1270 C.2   128  ILE128      0.2616
     93  O          1.3320    2.3340  -21.0660 O.2   128  ILE128     -0.2715
     94  CB        -1.4980    1.7620  -22.5620 C.3   128  ILE128      0.0290
     95  CG1       -2.0440    3.1960  -22.6390 C.3   128  ILE128      0.0022
     96  CG2       -1.6910    1.2330  -21.1900 C.3   128  ILE128      0.0023
     97  CD1       -3.5590    3.2980  -23.0160 C.3   128  ILE128      0.0001
     98  N          1.0390    3.8780  -22.6480 N.am  129  GLY129     -0.1955
     99  CA         1.7770    4.9000  -21.9380 C.3   129  GLY129      0.1869
    100  C          0.9650    6.1360  -22.0560 C.2   129  GLY129      0.2309
    101  O          0.5940    6.4970  -23.1680 O.2   129  GLY129     -0.2863
    102  N          2.4650    3.8930  -17.1270 N.3   157  ALA157     -0.1231
    103  CA         2.9820    2.8980  -18.0690 C.3   157  ALA157      0.1694
    104  C          2.4700    1.5630  -17.6490 C.2   157  ALA157      0.2593
    105  O          2.8360    1.0980  -16.5910 O.2   157  ALA157     -0.2718
    106  CB         4.5280    2.8750  -18.0640 C.3   157  ALA157      0.0304
    107  N          1.6520    0.9310  -18.4760 N.am  158  GLY158     -0.1942
    108  CA         1.0180   -0.3420  -18.1020 C.3   158  GLY158      0.2014
    109  C          1.2550   -1.4630  -19.1000 C.2   158  GLY158      0.2638
    110  O          1.2530   -1.2330  -20.3090 O.2   158  GLY158     -0.2714
    111  N          1.4390   -2.6810  -18.5780 N.am  159  ALA159     -0.1977
    112  CA         1.6710   -3.8690  -19.4110 C.3   159  ALA159      0.1597
    113  C          0.7060   -4.9660  -18.9920 C.2   159  ALA159      0.2287
    114  O          0.5820   -5.2460  -17.8250 O.2   159  ALA159     -0.2864
    115  CB         3.1280   -4.3470  -19.3180 C.3   159  ALA159      0.0319
@<TRIPOS>BOND
     1    24    23    1
     2    23    22    1
     3    22    21    1
     4    21    20    1
     5    31    33   ar
     6    31    30   ar
     7    26    27    1
     8    26    29    1
     9    26    25    1
    10    27    28    2
    11    33    34   ar
    12    29    30    1
    13    20    17    1
    14    30    32   ar
    15    17    18    1
    16    17    16    1
    17    34    32   ar
    18    18    19    2
    19    11    10    2
    20    16    10   am
    21    10     9    1
    22    40    39    1
    23     9     8    1
    24     9    12    1
    25    14    13   ar
    26     8     3   am
    27     5     6    1
    28     5     7    1
    29     5     2    1
    30    38    37    2
    31    55    56   ar
    32    55    53   ar
    33     3     2    1
    34     3     4    2
    35    12    13    1
    36    39    41    1
    37    39    36    1
    38    13    15   ar
    39     2     1    1
    40    35    36    1
    41    56    54   ar
    42    53    51   ar
    43    37    36    1
    44    37    42   am
    45    43    42    1
    46    43    44    1
    47    54    52   ar
    48    51    52   ar
    49    51    50    1
    50    46    44   am
    51    46    47    1
    52    44    45    2
    53    50    47    1
    54    76    75    1
    55    47    48    1
    56    49    48    2
    57    75    74   ar
    58    75    73   ar
    59    74    72   ar
    60    68    67    2
    61    81    78    1
    62    78    79    1
    63    78    77    1
    64    73    71   ar
    65    72    70   ar
    66    63    62    1
    67    67    77   am
    68    67    66    1
    69    79    80    2
    70    61    62    1
    71    61    58    1
    72    71    70   ar
    73    70    69    1
    74    65    66    1
    75    65    59   am
    76    62    64    1
    77    58    59    1
    78    58    57    1
    79    66    69    1
    80    59    60    2
    81    88    87    1
    82    85    84    2
    83    86    87    1
    84    86    83    1
    85    87    89    1
    86    82    83    1
    87    84    83    1
    88    84    90   am
    89   101   100    2
    90    97    95    1
    91    91    90    1
    92    91    94    1
    93    91    92    1
    94    98    92   am
    95    98    99    1
    96    95    94    1
    97    94    96    1
    98    92    93    2
    99   100    99    1
   100   110   109    2
   101   112   115    1
   102   112   113    1
   103   112   111    1
   104   109   111   am
   105   109   108    1
   106   113   114    2
   107   107   108    1
   108   107   104   am
   109   103   106    1
   110   103   104    1
   111   103   102    1
   112   104   105    2
