@<TRIPOS>MOLECULE
tmp/3sloA04.pdb
 89 85 0 0 0
SMALL
GASTEIGER

@<TRIPOS>ATOM
      1  N         -2.6880  -12.5220  -30.6730 N.3   119  PHE119     -0.1241
      2  CA        -2.0400  -13.6410  -31.3370 C.3   119  PHE119      0.1605
      3  C         -3.0400  -14.7140  -31.6780 C.2   119  PHE119      0.2264
      4  O         -3.8330  -15.0600  -30.8440 O.2   119  PHE119     -0.2867
      5  CB        -0.9660  -14.2930  -30.4530 C.3   119  PHE119      0.0534
      6  CG         0.2250  -13.4600  -30.2340 C.ar  119  PHE119     -0.0203
      7  CD1        0.3020  -12.6280  -29.1440 C.ar  119  PHE119     -0.0042
      8  CD2        1.2940  -13.5310  -31.0950 C.ar  119  PHE119     -0.0042
      9  CE1        1.3540  -11.8530  -28.9240 C.ar  119  PHE119     -0.0003
     10  CE2        2.3860  -12.7580  -30.8800 C.ar  119  PHE119     -0.0003
     11  CZ         2.4170  -11.9000  -29.7830 C.ar  119  PHE119     -0.0000
     12  N         -2.8320  -17.7760  -31.4780 N.3   121  SER121     -0.1217
     13  CA        -2.8530  -18.8320  -30.4610 C.3   121  SER121      0.1889
     14  C         -3.8240  -18.5970  -29.2660 C.2   121  SER121      0.2288
     15  O         -4.0850  -19.5170  -28.5210 O.2   121  SER121     -0.2866
     16  CB        -1.4590  -18.9350  -29.8900 C.3   121  SER121      0.2089
     17  OG        -1.2000  -17.7540  -29.1370 O.3   121  SER121     -0.2183
     18  N         -3.0610  -15.8520  -27.1670 N.3   123  ALA123     -0.1231
     19  CA        -2.2630  -15.0090  -26.2990 C.3   123  ALA123      0.1694
     20  C         -2.5210  -13.5870  -26.6730 C.2   123  ALA123      0.2592
     21  O         -2.8250  -13.3210  -27.8000 O.2   123  ALA123     -0.2718
     22  CB        -0.7790  -15.3320  -26.4390 C.3   123  ALA123      0.0304
     23  N         -2.4330  -12.6860  -25.7070 N.am  124  TYR124     -0.1962
     24  CA        -2.4450  -11.2640  -25.9980 C.3   124  TYR124      0.1771
     25  C         -1.4690  -10.5090  -25.1020 C.2   124  TYR124      0.2619
     26  O         -1.1480  -10.9870  -24.0160 O.2   124  TYR124     -0.2715
     27  CB        -3.8590  -10.6780  -25.9310 C.3   124  TYR124      0.0574
     28  CG        -4.4640  -10.4670  -24.5480 C.ar  124  TYR124     -0.0198
     29  CD1       -5.2180  -11.4560  -23.9430 C.ar  124  TYR124     -0.0009
     30  CD2       -4.3170   -9.2460  -23.8810 C.ar  124  TYR124     -0.0009
     31  CE1       -5.7400  -11.2590  -22.7030 C.ar  124  TYR124      0.0417
     32  CE2       -4.8390   -9.0280  -22.6730 C.ar  124  TYR124      0.0417
     33  CZ        -5.5520  -10.0390  -22.0580 C.ar  124  TYR124      0.1957
     34  OH        -6.1400   -9.8090  -20.8000 O.3   124  TYR124     -0.2866
     35  N         -0.9610   -9.3810  -25.6190 N.am  125  ILE125     -0.1977
     36  CA        -0.1760   -8.3970  -24.8660 C.3   125  ILE125      0.1596
     37  C         -0.7270   -6.9990  -25.1860 C.2   125  ILE125      0.2287
     38  O         -1.0010   -6.7270  -26.3580 O.2   125  ILE125     -0.2864
     39  CB         1.3380   -8.4100  -25.2430 C.3   125  ILE125      0.0276
     40  CG1        1.9170   -9.8160  -25.0900 C.3   125  ILE125      0.0022
     41  CG2        2.1180   -7.4480  -24.3720 C.3   125  ILE125      0.0022
     42  CD1        3.2770   -9.9540  -25.6380 C.3   125  ILE125      0.0001
     43  N          0.1720   -2.8720  -24.2290 N.3   127  LEU127     -0.1245
     44  CA         1.0980   -1.9140  -23.7250 C.3   127  LEU127      0.1561
     45  C          0.5230   -0.5290  -23.9270 C.2   127  LEU127      0.2260
     46  O          0.1100   -0.2440  -25.0210 O.2   127  LEU127     -0.2867
     47  CB         2.3870   -2.0500  -24.5250 C.3   127  LEU127      0.0270
     48  CG         3.0750   -3.4170  -24.3740 C.3   127  LEU127      0.0019
     49  CD1        4.2520   -3.4450  -25.2860 C.3   127  LEU127      0.0001
     50  CD2        3.4580   -3.7330  -22.9050 C.3   127  LEU127      0.0001
     51  N          1.4390   -2.6810  -18.5780 N.3   159  ALA159     -0.1231
     52  CA         1.6710   -3.8690  -19.4110 C.3   159  ALA159      0.1694
     53  C          0.7060   -4.9660  -18.9920 C.2   159  ALA159      0.2592
     54  O          0.5820   -5.2460  -17.8250 O.2   159  ALA159     -0.2718
     55  CB         3.1280   -4.3470  -19.3180 C.3   159  ALA159      0.0304
     56  N          0.0200   -5.5680  -19.9580 N.am  160  GLU160     -0.1966
     57  CA        -0.9420   -6.6250  -19.6720 C.3   160  GLU160      0.1733
     58  C         -0.6940   -7.8150  -20.5380 C.2   160  GLU160      0.2616
     59  O         -0.4960   -7.6420  -21.7030 O.2   160  GLU160     -0.2715
     60  CB        -2.3820   -6.1360  -19.9180 C.3   160  GLU160      0.0429
     61  CG        -3.4990   -7.1410  -19.5160 C.3   160  GLU160      0.1163
     62  CD        -4.9170   -6.5320  -19.5980 C.2   160  GLU160      0.3649
     63  OE1       -5.0060   -5.2760  -19.6770 O.co2 160  GLU160     -0.2457
     64  OE2       -5.9340   -7.3020  -19.5940 O.co2 160  GLU160     -0.2457
     65  N         -0.7780   -9.0130  -19.9750 N.am  161  ALA161     -0.1977
     66  CA        -0.7000  -10.2400  -20.7480 C.3   161  ALA161      0.1597
     67  C         -1.7520  -11.2270  -20.2840 C.2   161  ALA161      0.2287
     68  O         -2.1110  -11.2560  -19.1130 O.2   161  ALA161     -0.2864
     69  CB         0.6590  -10.8470  -20.6670 C.3   161  ALA161      0.0319
     70  N         -4.0220  -15.1580  -21.7670 N.3   163  TYR163     -0.1241
     71  CA        -4.1020  -16.3040  -22.6690 C.3   163  TYR163      0.1605
     72  C         -5.5190  -16.8740  -22.6670 C.2   163  TYR163      0.2264
     73  O         -5.9700  -17.3960  -21.6720 O.2   163  TYR163     -0.2867
     74  CB        -3.0540  -17.4000  -22.2990 C.3   163  TYR163      0.0534
     75  CG        -3.0490  -18.5240  -23.3170 C.ar  163  TYR163     -0.0201
     76  CD1       -3.8360  -19.6520  -23.1430 C.ar  163  TYR163     -0.0009
     77  CD2       -2.3230  -18.4270  -24.4830 C.ar  163  TYR163     -0.0009
     78  CE1       -3.8850  -20.6690  -24.1050 C.ar  163  TYR163      0.0417
     79  CE2       -2.3530  -19.4500  -25.4460 C.ar  163  TYR163      0.0417
     80  CZ        -3.1420  -20.5620  -25.2450 C.ar  163  TYR163      0.1957
     81  OH        -3.1770  -21.5740  -26.1810 O.3   163  TYR163     -0.2866
     82  N          0.4170   -5.0600  -14.9160 N.3   179  LEU179     -0.1245
     83  CA         1.2830   -4.2620  -14.0280 C.3   179  LEU179      0.1561
     84  C          1.2250   -2.8410  -14.5480 C.2   179  LEU179      0.2260
     85  O          1.2940   -2.6420  -15.7400 O.2   179  LEU179     -0.2867
     86  CB         2.6920   -4.8200  -14.0330 C.3   179  LEU179      0.0270
     87  CG         3.6130   -4.5130  -12.8280 C.3   179  LEU179      0.0019
     88  CD1        3.0420   -5.0790  -11.5390 C.3   179  LEU179      0.0001
     89  CD2        5.0960   -4.9720  -13.0230 C.3   179  LEU179      0.0001
@<TRIPOS>BOND
     1     3     2    1
     2     3     4    2
     3    12    13    1
     4     2     1    1
     5     2     5    1
     6     8    10   ar
     7     8     6   ar
     8    10    11   ar
     9    13    16    1
    10    13    14    1
    11     5     6    1
    12     6     7   ar
    13    16    17    1
    14    11     9   ar
    15    14    15    2
    16     7     9   ar
    17    21    20    2
    18    18    19    1
    19    20    19    1
    20    20    23   am
    21    22    19    1
    22    38    37    2
    23    81    80    1
    24    24    27    1
    25    24    23    1
    26    24    25    1
    27    27    28    1
    28    42    40    1
    29    35    25   am
    30    35    36    1
    31    79    80   ar
    32    79    77   ar
    33    49    48    1
    34    80    78   ar
    35    39    40    1
    36    39    36    1
    37    39    41    1
    38    37    36    1
    39    25    26    2
    40    46    45    2
    41    28    29   ar
    42    28    30   ar
    43    47    48    1
    44    47    44    1
    45    77    75   ar
    46    48    50    1
    47    43    44    1
    48    78    76   ar
    49    29    31   ar
    50    45    44    1
    51    30    32   ar
    52    75    76   ar
    53    75    74    1
    54    31    33   ar
    55    32    33   ar
    56    71    72    1
    57    71    74    1
    58    71    70    1
    59    72    73    2
    60    33    34    1
    61    59    58    2
    62    66    69    1
    63    66    67    1
    64    66    65    1
    65    58    65   am
    66    58    57    1
    67    67    68    2
    68    56    57    1
    69    56    53   am
    70    60    57    1
    71    60    61    1
    72    63    62   ar
    73    62    64   ar
    74    62    61    1
    75    52    55    1
    76    52    53    1
    77    52    51    1
    78    53    54    2
    79    85    84    2
    80    82    83    1
    81    84    83    1
    82    86    83    1
    83    86    87    1
    84    89    87    1
    85    87    88    1
