@<TRIPOS>MOLECULE
tmp/3sloA06.pdb
 86 83 0 0 0
SMALL
GASTEIGER

@<TRIPOS>ATOM
      1  N        -12.0500  -23.8470  -24.1480 N.3   167  VAL167     -0.1245
      2  CA       -12.4990  -25.1040  -23.5380 C.3   167  VAL167      0.1561
      3  C        -13.4120  -25.9080  -24.4670 C.2   167  VAL167      0.2260
      4  O        -13.4030  -27.1350  -24.4340 O.2   167  VAL167     -0.2867
      5  CB       -13.2010  -24.8610  -22.1700 C.3   167  VAL167      0.0252
      6  CG1      -14.0680  -26.0670  -21.7570 C.3   167  VAL167      0.0019
      7  CG2      -12.1550  -24.5870  -21.1050 C.3   167  VAL167      0.0019
      8  N        -16.9340  -21.9030  -25.7210 N.3   171  ALA171     -0.1231
      9  CA       -16.6850  -21.4340  -24.3500 C.3   171  ALA171      0.1694
     10  C        -15.1630  -21.2480  -24.1230 C.2   171  ALA171      0.2592
     11  O        -14.3670  -21.9010  -24.7960 O.2   171  ALA171     -0.2718
     12  CB       -17.3180  -22.4220  -23.3220 C.3   171  ALA171      0.0304
     13  N        -14.7660  -20.3550  -23.2100 N.am  172  TRP172     -0.1962
     14  CA       -13.3580  -20.0690  -22.9530 C.3   172  TRP172      0.1771
     15  C        -13.0870  -19.5890  -21.5550 C.2   172  TRP172      0.2619
     16  O        -13.9590  -19.0310  -20.9330 O.2   172  TRP172     -0.2715
     17  CB       -12.7470  -19.0410  -23.9610 C.3   172  TRP172      0.0590
     18  CG       -13.4750  -17.7490  -24.1640 C.ar  172  TRP172      0.0006
     19  CD1      -14.3530  -17.4750  -25.1560 C.ar  172  TRP172      0.0946
     20  CD2      -13.3940  -16.5560  -23.3650 C.ar  172  TRP172      0.0152
     21  NE1      -14.8360  -16.1940  -25.0360 N.ar  172  TRP172     -0.2442
     22  CE2      -14.2750  -15.6090  -23.9390 C.ar  172  TRP172      0.0810
     23  CE3      -12.6850  -16.2020  -22.2110 C.ar  172  TRP172      0.0012
     24  CZ2      -14.4580  -14.3430  -23.4210 C.ar  172  TRP172      0.0191
     25  CZ3      -12.8520  -14.9120  -21.7000 C.ar  172  TRP172      0.0001
     26  CH2      -13.7490  -14.0070  -22.3010 C.ar  172  TRP172      0.0015
     27  N        -11.8490  -19.8320  -21.0970 N.am  173  ILE173     -0.1977
     28  CA       -11.2560  -19.2850  -19.8710 C.3   173  ILE173      0.1596
     29  C        -10.0140  -18.5050  -20.2900 C.2   173  ILE173      0.2287
     30  O         -9.3460  -18.8730  -21.2620 O.2   173  ILE173     -0.2864
     31  CB       -10.8150  -20.3980  -18.8920 C.3   173  ILE173      0.0276
     32  CG1      -11.9290  -21.4380  -18.7330 C.3   173  ILE173      0.0022
     33  CG2      -10.4170  -19.8230  -17.5110 C.3   173  ILE173      0.0022
     34  CD1      -11.3490  -22.8870  -18.7790 C.3   173  ILE173      0.0001
     35  N        -13.9920  -15.5210  -18.0180 N.3   216  VAL216     -0.1231
     36  CA       -14.6340  -16.6670  -18.6560 C.3   216  VAL216      0.1692
     37  C        -15.7310  -16.1580  -19.5990 C.2   216  VAL216      0.2593
     38  O        -16.3770  -15.1120  -19.3490 O.2   216  VAL216     -0.2718
     39  CB       -15.2600  -17.6210  -17.6220 C.3   216  VAL216      0.0266
     40  CG1      -14.2120  -18.1880  -16.6760 C.3   216  VAL216      0.0020
     41  CG2      -16.3630  -16.9150  -16.8370 C.3   216  VAL216      0.0020
     42  N        -15.9300  -16.8910  -20.6920 N.am  217  GLY217     -0.1942
     43  CA       -16.9110  -16.4920  -21.7000 C.3   217  GLY217      0.2014
     44  C        -17.5650  -17.6010  -22.5130 C.2   217  GLY217      0.2638
     45  O        -17.0700  -18.7250  -22.6320 O.2   217  GLY217     -0.2714
     46  N        -18.6780  -17.2340  -23.1020 N.am  218  LYS218     -0.1977
     47  CA       -19.5840  -18.1430  -23.7980 C.3   218  LYS218      0.1596
     48  C        -20.1150  -17.2940  -24.9150 C.2   218  LYS218      0.2287
     49  O        -20.6180  -16.1960  -24.6430 O.2   218  LYS218     -0.2864
     50  CB       -20.7060  -18.5690  -22.8300 C.3   218  LYS218      0.0298
     51  CG       -21.8590  -19.3970  -23.4000 C.3   218  LYS218      0.0038
     52  CD       -21.5310  -20.8330  -23.8060 C.3   218  LYS218      0.0206
     53  CE       -22.8060  -21.5930  -24.1820 C.3   218  LYS218      0.1093
     54  NZ       -22.5040  -23.0070  -24.5040 N.3   218  LYS218     -0.1314
     55  N        -21.2170  -13.6680  -23.7590 N.3   229  ALA229     -0.1231
     56  CA       -21.4410  -13.3510  -22.3370 C.3   229  ALA229      0.1694
     57  C        -20.1200  -13.5680  -21.6220 C.2   229  ALA229      0.2592
     58  O        -19.5240  -14.6000  -21.7890 O.2   229  ALA229     -0.2718
     59  CB       -22.4730  -14.2540  -21.7110 C.3   229  ALA229      0.0304
     60  N        -19.6650  -12.6070  -20.8260 N.am  230  ARG230     -0.1966
     61  CA       -18.4590  -12.7910  -20.0730 C.3   230  ARG230      0.1729
     62  C        -18.6010  -12.3100  -18.6330 C.2   230  ARG230      0.2616
     63  O        -19.4030  -11.4430  -18.3320 O.2   230  ARG230     -0.2715
     64  CB       -17.2630  -12.1310  -20.7890 C.3   230  ARG230      0.0348
     65  CG       -17.0960  -10.6390  -20.5600 C.3   230  ARG230      0.0492
     66  CD       -16.0420  -10.0390  -21.4230 C.3   230  ARG230      0.2205
     67  NE       -14.6990  -10.3110  -20.9050 N.pl3 230  ARG230     -0.0865
     68  CZ       -13.6080  -10.4840  -21.6710 C.cat 230  ARG230      0.5346
     69  NH1      -13.6810  -10.4370  -23.0130 N.pl3 230  ARG230      0.1354
     70  NH2      -12.4330  -10.7210  -21.0950 N.pl3 230  ARG230      0.1354
     71  N        -17.7830  -12.9210  -17.7740 N.am  231  ALA231     -0.1977
     72  CA       -17.6920  -12.6470  -16.3390 C.3   231  ALA231      0.1597
     73  C        -16.2240  -12.7380  -15.9690 C.2   231  ALA231      0.2287
     74  O        -15.4870  -13.4410  -16.6190 O.2   231  ALA231     -0.2864
     75  CB       -18.5180  -13.6820  -15.5300 C.3   231  ALA231      0.0319
     76  N        -19.2830   -8.3990  -14.8940 N.3   268  VAL268     -0.1231
     77  CA       -20.0540   -9.1810  -15.8800 C.3   268  VAL268      0.1696
     78  C        -20.2800   -8.3310  -17.0980 C.2   268  VAL268      0.2631
     79  O        -20.2740   -7.1360  -16.9920 O.2   268  VAL268     -0.2714
     80  CB       -21.3620   -9.7110  -15.3140 C.3   268  VAL268      0.0266
     81  CG1      -21.0540  -10.7790  -14.3330 C.3   268  VAL268      0.0020
     82  CG2      -22.1130   -8.6220  -14.6280 C.3   268  VAL268      0.0020
     83  N        -20.4180   -8.9360  -18.2600 N.am  269  GLY269     -0.1732
     84  CA       -20.5560   -8.1450  -19.4690 C.2   269  GLY269      0.1340
     85  C        -20.8740   -8.9230  -20.7230 C.2   269  GLY269      0.2521
     86  O        -21.0880  -10.1260  -20.6900 O.2   269  GLY269     -0.2816
@<TRIPOS>BOND
     1     8     9    1
     2    19    21   ar
     3    19    18   ar
     4    21    22   ar
     5    48    49    2
     6    48    47    1
     7    11    10    2
     8    54    53    1
     9     3     4    2
    10     3     2    1
    11     9    10    1
    12     9    12    1
    13    53    52    1
    14    18    17    1
    15    18    20   ar
    16     1     2    1
    17    10    13   am
    18    17    14    1
    19    22    24   ar
    20    22    20   ar
    21    52    51    1
    22    47    46    1
    23    47    50    1
    24    55    56    1
    25     2     5    1
    26    24    26   ar
    27    51    50    1
    28    20    23   ar
    29    13    14    1
    30    46    44   am
    31    69    68    1
    32    14    15    1
    33    45    44    2
    34    44    43    1
    35    56    59    1
    36    56    57    1
    37    26    25   ar
    38    23    25   ar
    39     5     6    1
    40     5     7    1
    41    58    57    2
    42    43    42    1
    43    68    70    1
    44    68    67    2
    45    57    60   am
    46    15    27   am
    47    15    16    2
    48    66    67    1
    49    66    65    1
    50    30    29    2
    51    27    28    1
    52    60    61    1
    53    64    65    1
    54    64    61    1
    55    85    86    2
    56    85    84    1
    57    42    37   am
    58    29    28    1
    59    61    62    1
    60    28    31    1
    61    37    38    2
    62    37    36    1
    63    84    83    2
    64    31    32    1
    65    31    33    1
    66    34    32    1
    67    36    35    1
    68    36    39    1
    69    62    63    2
    70    62    71   am
    71    83    78    1
    72    71    72    1
    73    39    41    1
    74    39    40    1
    75    78    79    2
    76    78    77    1
    77    74    73    2
    78    72    73    1
    79    72    75    1
    80    77    80    1
    81    77    76    1
    82    80    82    1
    83    80    81    1
