@<TRIPOS>MOLECULE
tmp/3slsA01.pdb
 183 170 0 0 0
SMALL
GASTEIGER

@<TRIPOS>ATOM
      1  N        -21.4840   17.3870  -24.5490 N.3    37  ASN37      -0.1225
      2  CA       -21.9000   18.7980  -24.5350 C.3    37  ASN37       0.1785
      3  C        -22.5820   19.2970  -25.8090 C.2    37  ASN37       0.2598
      4  O        -22.7830   20.5030  -25.9770 O.2    37  ASN37      -0.2718
      5  CB       -20.6900   19.7050  -24.2580 C.3    37  ASN37       0.1169
      6  CG       -19.7480   19.1320  -23.2260 C.2    37  ASN37       0.2627
      7  OD1      -19.2400   18.0150  -23.3770 O.2    37  ASN37      -0.2716
      8  ND2      -19.5000   19.9000  -22.1650 N.am   37  ASN37      -0.0877
      9  N        -22.9370   18.3760  -26.6980 N.am   38  GLY38      -0.1942
     10  CA       -23.4300   18.7310  -28.0290 C.3    38  GLY38       0.2014
     11  C        -22.6770   17.9230  -29.0660 C.2    38  GLY38       0.2639
     12  O        -22.4740   18.3690  -30.2000 O.2    38  GLY38      -0.2714
     13  N        -22.2500   16.7340  -28.6460 N.am   39  GLY39      -0.1954
     14  CA       -21.5370   15.7930  -29.4950 C.3    39  GLY39       0.1869
     15  C        -21.9910   14.3740  -29.2150 C.2    39  GLY39       0.2309
     16  O        -22.1950   13.9860  -28.0610 O.2    39  GLY39      -0.2863
     17  N        -17.2200   11.2620  -34.0770 N.3    56  LYS56      -0.1245
     18  CA       -17.9290   12.2560  -33.2890 C.3    56  LYS56       0.1561
     19  C        -18.7520   13.1640  -34.2030 C.2    56  LYS56       0.2260
     20  O        -18.2440   13.6910  -35.1940 O.2    56  LYS56      -0.2867
     21  CB       -16.9530   13.0660  -32.4300 C.3    56  LYS56       0.0271
     22  CG       -17.6400   13.9760  -31.4430 C.3    56  LYS56       0.0035
     23  CD       -16.6800   14.9550  -30.8100 C.3    56  LYS56       0.0206
     24  CE       -16.2360   14.5000  -29.4460 C.3    56  LYS56       0.1093
     25  NZ       -16.0080   15.6800  -28.5780 N.3    56  LYS56      -0.1314
     26  N        -20.8940   16.5740  -34.4920 N.3    58  ILE58      -0.1245
     27  CA       -21.1110   17.8740  -33.8710 C.3    58  ILE58       0.1561
     28  C        -22.1140   18.6590  -34.7020 C.2    58  ILE58       0.2260
     29  O        -21.8360   19.0340  -35.8430 O.2    58  ILE58      -0.2867
     30  CB       -19.7810   18.6630  -33.6900 C.3    58  ILE58       0.0252
     31  CG1      -18.7660   17.8250  -32.8950 C.3    58  ILE58       0.0019
     32  CG2      -20.0360   20.0080  -32.9910 C.3    58  ILE58       0.0019
     33  CD1      -17.3420   17.9280  -33.3950 C.3    58  ILE58       0.0001
     34  N        -23.2970   21.7060  -35.6610 N.3    60  LEU60      -0.1245
     35  CA       -22.9760   23.1210  -35.7130 C.3    60  LEU60       0.1561
     36  C        -23.9920   23.8010  -36.6290 C.2    60  LEU60       0.2260
     37  O        -23.9220   23.6670  -37.8620 O.2    60  LEU60      -0.2867
     38  CB       -21.5370   23.3300  -36.2150 C.3    60  LEU60       0.0270
     39  CG       -20.6990   24.5400  -35.7560 C.3    60  LEU60       0.0019
     40  CD1      -21.2010   25.8770  -36.3230 C.3    60  LEU60       0.0001
     41  CD2      -20.5880   24.6100  -34.2290 C.3    60  LEU60       0.0001
     42  N        -13.7710   25.5880  -40.7860 N.3    70  ILE70      -0.1245
     43  CA       -13.6650   24.6760  -39.6480 C.3    70  ILE70       0.1561
     44  C        -12.9780   23.3810  -40.0640 C.2    70  ILE70       0.2260
     45  O        -12.0400   22.9430  -39.4050 O.2    70  ILE70      -0.2867
     46  CB       -15.0410   24.3680  -39.0190 C.3    70  ILE70       0.0252
     47  CG1      -15.5490   25.6370  -38.3040 C.3    70  ILE70       0.0019
     48  CG2      -14.9690   23.1800  -38.0910 C.3    70  ILE70       0.0019
     49  CD1      -16.9890   25.5630  -37.8790 C.3    70  ILE70       0.0001
     50  N         -9.2910   21.8970  -39.0040 N.3    74  LEU74      -0.1245
     51  CA        -9.2400   20.5210  -38.4920 C.3    74  LEU74       0.1561
     52  C         -8.1660   19.6580  -39.1460 C.2    74  LEU74       0.2260
     53  O         -7.8380   18.5780  -38.6490 O.2    74  LEU74      -0.2867
     54  CB       -10.6000   19.8330  -38.6490 C.3    74  LEU74       0.0270
     55  CG       -11.6440   20.1660  -37.5850 C.3    74  LEU74       0.0019
     56  CD1      -12.9760   19.5070  -37.9130 C.3    74  LEU74       0.0001
     57  CD2      -11.1570   19.7480  -36.2060 C.3    74  LEU74       0.0001
     58  N         -4.8730   18.3860  -37.4740 N.3    77  LEU77      -0.1245
     59  CA        -4.9220   17.1580  -36.6750 C.3    77  LEU77       0.1561
     60  C         -4.1920   15.9980  -37.3360 C.2    77  LEU77       0.2260
     61  O         -3.7930   15.0500  -36.6560 O.2    77  LEU77      -0.2867
     62  CB        -6.3620   16.7650  -36.3540 C.3    77  LEU77       0.0270
     63  CG        -7.1620   17.6770  -35.4300 C.3    77  LEU77       0.0019
     64  CD1       -8.5890   17.1540  -35.2720 C.3    77  LEU77       0.0001
     65  CD2       -6.4740   17.8120  -34.0790 C.3    77  LEU77       0.0001
     66  N         -0.8010   16.1450  -35.8210 N.3    80  CYS80      -0.1235
     67  CA        -0.7060   15.8160  -34.3950 C.3    80  CYS80       0.1677
     68  C         -0.4470   14.3360  -34.2190 C.2    80  CYS80       0.2270
     69  O         -1.3910   13.5420  -34.1610 O.2    80  CYS80      -0.2867
     70  CB        -1.9960   16.1740  -33.6620 C.3    80  CYS80       0.0956
     71  SG        -2.4710   17.8730  -33.8230 S.3    80  CYS80      -0.0801
     72  N         -1.4770   11.5990  -27.7280 N.3    85  ILE85      -0.1231
     73  CA        -2.5860   12.2230  -28.4560 C.3    85  ILE85       0.1692
     74  C         -3.3350   11.1520  -29.2410 C.2    85  ILE85       0.2592
     75  O         -2.7110   10.2640  -29.8230 O.2    85  ILE85      -0.2718
     76  CB        -2.0850   13.3470  -29.4500 C.3    85  ILE85       0.0266
     77  CG1       -1.2930   14.4580  -28.7280 C.3    85  ILE85       0.0019
     78  CG2       -3.2230   13.9200  -30.2930 C.3    85  ILE85       0.0020
     79  CD1       -1.9650   15.1340  -27.5440 C.3    85  ILE85       0.0001
     80  N         -4.6650   11.2370  -29.2510 N.am   86  VAL86      -0.1966
     81  CA        -5.5210   10.2970  -29.9760 C.3    86  VAL86       0.1727
     82  C         -5.3800   10.5160  -31.4860 C.2    86  VAL86       0.2617
     83  O         -5.3620   11.6550  -31.9560 O.2    86  VAL86      -0.2715
     84  CB        -7.0070   10.4250  -29.5180 C.3    86  VAL86       0.0290
     85  CG1       -7.9640    9.6010  -30.3980 C.3    86  VAL86       0.0023
     86  CG2       -7.1510   10.0100  -28.0560 C.3    86  VAL86       0.0023
     87  N         -5.2840    9.4230  -32.2400 N.am   87  GLY87      -0.1940
     88  CA        -5.0670    9.4970  -33.6800 C.3    87  GLY87       0.2014
     89  C         -6.2420   10.0600  -34.4510 C.2    87  GLY87       0.2638
     90  O         -7.3830    9.7050  -34.1960 O.2    87  GLY87      -0.2714
     91  N         -5.9530   10.9360  -35.4060 N.am   88  PHE88      -0.1973
     92  CA        -6.9790   11.5390  -36.2650 C.3    88  PHE88       0.1639
     93  C         -7.0570   10.8480  -37.6390 C.2    88  PHE88       0.2290
     94  O         -6.0260   10.5630  -38.2470 O.2    88  PHE88      -0.2864
     95  CB        -6.6700   13.0250  -36.4360 C.3    88  PHE88       0.0560
     96  CG        -7.6590   13.7730  -37.2850 C.ar   88  PHE88      -0.0200
     97  CD1       -8.9920   13.9080  -36.8850 C.ar   88  PHE88      -0.0042
     98  CD2       -7.2420   14.3810  -38.4660 C.ar   88  PHE88      -0.0042
     99  CE1       -9.8940   14.6240  -37.6660 C.ar   88  PHE88      -0.0003
    100  CE2       -8.1240   15.1030  -39.2500 C.ar   88  PHE88      -0.0003
    101  CZ        -9.4530   15.2330  -38.8530 C.ar   88  PHE88      -0.0000
    102  N        -20.9850   18.3100  -38.2960 N.3    98  ILE98      -0.1245
    103  CA       -19.5650   18.0340  -38.5190 C.3    98  ILE98       0.1561
    104  C        -19.1900   16.7040  -37.8670 C.2    98  ILE98       0.2260
    105  O        -19.5470   16.4360  -36.7110 O.2    98  ILE98      -0.2867
    106  CB       -18.6340   19.1730  -38.0220 C.3    98  ILE98       0.0252
    107  CG1      -18.8580   20.4440  -38.8490 C.3    98  ILE98       0.0019
    108  CG2      -17.1580   18.7520  -38.1120 C.3    98  ILE98       0.0019
    109  CD1      -18.2560   21.6980  -38.2650 C.3    98  ILE98       0.0001
    110  N        -16.0240   14.3240  -36.8110 N.3   100  ILE100     -0.1245
    111  CA       -14.5990   14.1120  -36.5910 C.3   100  ILE100      0.1561
    112  C        -14.3870   12.6290  -36.3740 C.2   100  ILE100      0.2260
    113  O        -14.9790   12.0320  -35.4790 O.2   100  ILE100     -0.2867
    114  CB       -14.0390   14.9140  -35.3840 C.3   100  ILE100      0.0252
    115  CG1      -14.3240   16.4090  -35.5660 C.3   100  ILE100      0.0019
    116  CG2      -12.5280   14.6260  -35.1940 C.3   100  ILE100      0.0019
    117  CD1      -13.7870   17.3010  -34.4760 C.3   100  ILE100      0.0001
    118  N        -11.7590    9.5630  -35.6060 N.3   102  MET102     -0.1245
    119  CA       -10.5260    9.4050  -34.8750 C.3   102  MET102      0.1570
    120  C        -10.2960    7.9500  -34.5420 C.2   102  MET102      0.2261
    121  O        -11.1620    7.0930  -34.7800 O.2   102  MET102     -0.2867
    122  CB       -10.5340   10.2640  -33.5920 C.3   102  MET102      0.0387
    123  CG       -11.6650    9.9660  -32.6120 C.3   102  MET102      0.0595
    124  SD       -11.7720   11.2030  -31.3050 S.3   102  MET102     -0.1393
    125  CE       -13.5150   11.6150  -31.3920 C.3   102  MET102      0.0692
    126  N         -9.8120   21.9200  -22.8510 N.3   149  ASP149     -0.1239
    127  CA       -10.8980   21.0240  -22.4790 C.3   149  ASP149      0.1674
    128  C        -10.3940   19.7600  -21.7850 C.2   149  ASP149      0.2266
    129  O        -10.8800   18.6610  -22.0660 O.2   149  ASP149     -0.2867
    130  CB       -11.7190   20.6730  -23.7250 C.3   149  ASP149      0.1410
    131  CG       -13.1370   20.2440  -23.4060 C.2   149  ASP149      0.3668
    132  OD1      -13.6310   20.4590  -22.2860 O.co2 149  ASP149     -0.2456
    133  OD2      -13.7720   19.7000  -24.3100 O.co2 149  ASP149     -0.2456
    134  N         -7.6120   13.8690  -26.0270 N.3   166  CYS166     -0.1221
    135  CA        -8.4460   14.1850  -27.1780 C.3   166  CYS166      0.1808
    136  C         -9.2710   15.4420  -26.9290 C.2   166  CYS166      0.2601
    137  O         -9.1830   16.0540  -25.8610 O.2   166  CYS166     -0.2717
    138  CB        -9.3480   13.0030  -27.5380 C.3   166  CYS166      0.0970
    139  SG       -10.6990   12.7410  -26.3990 S.3   166  CYS166     -0.0800
    140  N        -10.0500   15.8310  -27.9400 N.am  167  ASP167     -0.1959
    141  CA       -10.9410   17.0080  -27.8880 C.3   167  ASP167      0.1840
    142  C        -10.2710   18.3230  -27.4970 C.2   167  ASP167      0.2622
    143  O        -10.7950   19.0950  -26.6870 O.2   167  ASP167     -0.2715
    144  CB       -12.1960   16.7330  -27.0480 C.3   167  ASP167      0.1450
    145  CG       -13.0670   15.6620  -27.6550 C.2   167  ASP167      0.3671
    146  OD1      -12.8940   15.3340  -28.8420 O.co2 167  ASP167     -0.2456
    147  OD2      -13.9260   15.1140  -26.9460 O.co2 167  ASP167     -0.2456
    148  N         -9.1000   18.5510  -28.0830 N.am  168  PHE168     -0.1960
    149  CA        -8.4220   19.8420  -28.0140 C.3   168  PHE168      0.1771
    150  C         -8.7830   20.6770  -29.2420 C.2   168  PHE168      0.2620
    151  O         -8.6740   20.2130  -30.3820 O.2   168  PHE168     -0.2715
    152  CB        -6.9010   19.6790  -27.8670 C.3   168  PHE168      0.0574
    153  CG        -6.2900   18.6890  -28.8350 C.ar  168  PHE168     -0.0200
    154  CD1       -5.6960   19.1290  -30.0180 C.ar  168  PHE168     -0.0042
    155  CD2       -6.3010   17.3210  -28.5580 C.ar  168  PHE168     -0.0042
    156  CE1       -5.1370   18.2250  -30.9080 C.ar  168  PHE168     -0.0003
    157  CE2       -5.7560   16.4150  -29.4380 C.ar  168  PHE168     -0.0003
    158  CZ        -5.1670   16.8630  -30.6200 C.ar  168  PHE168     -0.0000
    159  N         -9.2320   21.9020  -28.9930 N.am  169  GLY169     -0.1940
    160  CA        -9.6850   22.8000  -30.0570 C.3   169  GLY169      0.2014
    161  C         -8.5730   23.2280  -31.0010 C.2   169  GLY169      0.2639
    162  O         -7.4240   23.4100  -30.5950 O.2   169  GLY169     -0.2714
    163  N         -8.9240   23.3900  -32.2700 N.am  170  VAL170     -0.1963
    164  CA        -7.9500   23.7830  -33.2830 C.3   170  VAL170      0.1727
    165  C         -8.4780   24.9290  -34.1730 C.2   170  VAL170      0.2616
    166  O         -7.7660   25.4140  -35.0550 O.2   170  VAL170     -0.2715
    167  CB        -7.4050   22.5350  -34.0760 C.3   170  VAL170      0.0290
    168  CG1       -8.4010   22.0240  -35.1110 C.3   170  VAL170      0.0023
    169  CG2       -6.0590   22.8390  -34.7230 C.3   170  VAL170      0.0023
    170  N         -9.7010   25.3870  -33.8970 N.am  171  SER171     -0.1950
    171  CA       -10.3590   26.4080  -34.7230 C.3   171  SER171      0.1924
    172  C        -10.3490   27.8480  -34.1680 C.2   171  SER171      0.2314
    173  O        -10.9290   28.7580  -34.7760 O.2   171  SER171     -0.2863
    174  CB       -11.7820   25.9720  -35.0860 C.3   171  SER171      0.2116
    175  OG       -11.7650   25.0070  -36.1250 O.3   171  SER171     -0.2180
    176  N        -14.8520   30.6430  -31.0480 N.3   174  LEU174     -0.1245
    177  CA       -15.0880   29.2010  -30.7610 C.3   174  LEU174      0.1561
    178  C        -14.7130   28.6150  -29.3770 C.2   174  LEU174      0.2260
    179  O        -14.8460   27.4040  -29.1510 O.2   174  LEU174     -0.2867
    180  CB       -14.5740   28.3090  -31.9140 C.3   174  LEU174      0.0270
    181  CG       -15.4610   28.2830  -33.1730 C.3   174  LEU174      0.0019
    182  CD1      -14.6500   28.0200  -34.4400 C.3   174  LEU174      0.0001
    183  CD2      -16.6150   27.2760  -33.0440 C.3   174  LEU174      0.0001
@<TRIPOS>BOND
     1    42    43    1
     2    44    43    1
     3    44    45    2
     4    43    46    1
     5   100   101   ar
     6   100    98   ar
     7    52    53    2
     8    52    51    1
     9    46    47    1
    10    46    48    1
    11    50    51    1
    12   101    99   ar
    13   107   109    1
    14   107   106    1
    15    54    51    1
    16    54    55    1
    17   103   102    1
    18   103   106    1
    19   103   104    1
    20    98    96   ar
    21    47    49    1
    22    94    93    2
    23   108   106    1
    24    56    55    1
    25   104   105    2
    26    37    36    2
    27    99    97   ar
    28    93    92    1
    29    55    57    1
    30    58    59    1
    31    60    59    1
    32    60    61    2
    33    96    97   ar
    34    96    95    1
    35   110   111    1
    36    59    62    1
    37    36    35    1
    38   111   112    1
    39   111   114    1
    40    95    92    1
    41   112   113    2
    42    62    63    1
    43    40    39    1
    44    92    91    1
    45    38    39    1
    46    38    35    1
    47   175   174    1
    48    29    28    2
    49    66    67    1
    50    39    41    1
    51    35    34    1
    52   118   119    1
    53   115   114    1
    54   115   117    1
    55    63    64    1
    56    63    65    1
    57    91    89   am
    58   114   116    1
    59    20    19    2
    60   168   167    1
    61   174   171    1
    62   166   165    2
    63   119   120    1
    64   119   122    1
    65   121   120    2
    66   173   172    2
    67   171   172    1
    68   171   170    1
    69   169   167    1
    70    28    27    1
    71    26    27    1
    72    89    90    2
    73    89    88    1
    74   182   181    1
    75    67    68    1
    76    67    70    1
    77    68    69    2
    78    19    18    1
    79   165   170   am
    80   165   164    1
    81    17    18    1
    82   167   164    1
    83    27    30    1
    84    71    70    1
    85    30    32    1
    86    30    31    1
    87    88    87    1
    88   122   123    1
    89    33    31    1
    90    18    21    1
    91   164   163    1
    92   181   183    1
    93   181   180    1
    94   123   124    1
    95    21    22    1
    96   163   161   am
    97    87    82   am
    98    83    82    2
    99   180   177    1
   100    82    81    1
   101    22    23    1
   102   125   124    1
   103   176   177    1
   104   161   162    2
   105   161   160    1
   106   156   158   ar
   107   156   154   ar
   108    23    24    1
   109   177   178    1
   110   158   157   ar
   111    85    84    1
   112   151   150    2
   113    78    76    1
   114    12    11    2
   115   160   159    1
   116   154   153   ar
   117    81    84    1
   118    81    80    1
   119    75    74    2
   120    84    86    1
   121    14    15    1
   122    14    13    1
   123    76    77    1
   124    76    73    1
   125    24    25    1
   126   157   155   ar
   127   178   179    2
   128    80    74   am
   129   150   159   am
   130   150   149    1
   131    74    73    1
   132    15    16    2
   133    11    13   am
   134    11    10    1
   135   146   145   ar
   136   153   155   ar
   137   153   152    1
   138    77    79    1
   139    73    72    1
   140   148   149    1
   141   148   142   am
   142    10     9    1
   143   149   152    1
   144   140   141    1
   145   140   136   am
   146   141   142    1
   147   141   144    1
   148   145   144    1
   149   145   147   ar
   150   138   135    1
   151   138   139    1
   152   142   143    2
   153   135   136    1
   154   135   134    1
   155   136   137    2
   156     9     3   am
   157     4     3    2
   158     3     2    1
   159     1     2    1
   160     2     5    1
   161   133   131   ar
   162     5     6    1
   163   130   131    1
   164   130   127    1
   165   131   132   ar
   166     7     6    2
   167     6     8   am
   168   126   127    1
   169   127   128    1
   170   129   128    2
