@<TRIPOS>MOLECULE
tmp/3sltA02.pdb
 115 112 0 0 0
SMALL
GASTEIGER

@<TRIPOS>ATOM
      1  N          0.1590   -1.3230   24.4250 N.3    72  VAL72      -0.1231
      2  CA         0.2560   -2.7150   24.7980 C.3    72  VAL72       0.1692
      3  C          1.5320   -2.9060   25.6450 C.2    72  VAL72       0.2592
      4  O          2.5490   -2.3240   25.3560 O.2    72  VAL72      -0.2718
      5  CB         0.3070   -3.6620   23.5180 C.3    72  VAL72       0.0266
      6  CG1       -1.0680   -3.8410   22.8820 C.3    72  VAL72       0.0020
      7  CG2        1.3060   -3.1260   22.4660 C.3    72  VAL72       0.0020
      8  N          1.4760   -3.7420   26.6790 N.am   73  ASP73      -0.1960
      9  CA         2.6410   -3.9700   27.4910 C.3    73  ASP73       0.1840
     10  C          2.7170   -5.3430   28.1570 C.2    73  ASP73       0.2621
     11  O          1.7850   -6.1020   28.1410 O.2    73  ASP73      -0.2715
     12  CB         2.7870   -2.8460   28.5160 C.3    73  ASP73       0.1450
     13  CG         1.6070   -2.7270   29.4610 C.2    73  ASP73       0.3671
     14  OD1        1.3300   -3.7250   30.1220 O.co2  73  ASP73      -0.2456
     15  OD2        1.0120   -1.6250   29.6070 O.co2  73  ASP73      -0.2456
     16  N          3.8850   -5.6200   28.7170 N.am   74  LYS74      -0.1977
     17  CA         4.1900   -6.7850   29.5000 C.3    74  LYS74       0.1596
     18  C          4.3870   -6.2610   30.9310 C.2    74  LYS74       0.2287
     19  O          4.9210   -5.1690   31.1070 O.2    74  LYS74      -0.2864
     20  CB         5.4920   -7.3930   28.9820 C.3    74  LYS74       0.0298
     21  CG         5.6410   -8.8520   29.2010 C.3    74  LYS74       0.0038
     22  CD         7.0350   -9.2470   29.7260 C.3    74  LYS74       0.0206
     23  CE         7.0420  -10.7390   30.2200 C.3    74  LYS74       0.1093
     24  NZ         5.7840  -11.0840   31.0310 N.3    74  LYS74      -0.1314
     25  N          6.3180   -7.2620   34.3190 N.3    76  HIS76      -0.1241
     26  CA         7.2950   -8.0870   35.0080 C.3    76  HIS76       0.1621
     27  C          7.0410   -8.0570   36.5190 C.2    76  HIS76       0.2264
     28  O          6.8370   -7.0130   37.1100 O.2    76  HIS76      -0.2867
     29  CB         8.6880   -7.5580   34.6930 C.3    76  HIS76       0.0745
     30  CG         8.8650   -7.1470   33.2660 C.ar   76  HIS76       0.0817
     31  ND1        9.1480   -8.0450   32.2610 N.ar   76  HIS76      -0.2268
     32  CD2        8.7630   -5.9350   32.6690 C.ar   76  HIS76       0.1154
     33  CE1        9.2200   -7.4060   31.1070 C.ar   76  HIS76       0.1986
     34  NE2        8.9930   -6.1210   31.3260 N.ar   76  HIS76      -0.2212
     35  N          6.3220   -2.5570   30.9760 N.3    85  THR85      -0.1203
     36  CA         7.1030   -2.0390   29.8450 C.3    85  THR85       0.1994
     37  C          6.3160   -2.2390   28.5320 C.2    85  THR85       0.2618
     38  O          5.8830   -3.3500   28.2190 O.2    85  THR85      -0.2717
     39  CB         8.4850   -2.7430   29.7380 C.3    85  THR85       0.1784
     40  OG1        8.3020   -4.1320   29.4240 O.3    85  THR85      -0.2211
     41  CG2        9.2510   -2.6120   31.0210 C.3    85  THR85       0.0376
     42  N          6.0730   -1.1560   27.7930 N.am   86  GLY86      -0.1942
     43  CA         5.2600   -1.2530   26.5720 C.3    86  GLY86       0.2014
     44  C          5.4130   -0.1510   25.5740 C.2    86  GLY86       0.2638
     45  O          6.2170    0.7250   25.7770 O.2    86  GLY86      -0.2714
     46  N          4.6340   -0.2210   24.4980 N.am   87  PHE87      -0.1973
     47  CA         4.6280    0.7460   23.3830 C.3    87  PHE87       0.1639
     48  C          3.2630    1.4450   23.2700 C.2    87  PHE87       0.2290
     49  O          2.2490    0.9470   23.7800 O.2    87  PHE87      -0.2864
     50  CB         4.8570    0.0370   22.0410 C.3    87  PHE87       0.0560
     51  CG         6.1380   -0.7410   21.9590 C.ar   87  PHE87      -0.0200
     52  CD1        7.3380   -0.1010   21.6240 C.ar   87  PHE87      -0.0042
     53  CD2        6.1560   -2.1170   22.1920 C.ar   87  PHE87      -0.0042
     54  CE1        8.5560   -0.8090   21.5420 C.ar   87  PHE87      -0.0003
     55  CE2        7.3670   -2.8480   22.0950 C.ar   87  PHE87      -0.0003
     56  CZ         8.5660   -2.1960   21.7700 C.ar   87  PHE87      -0.0000
     57  N          7.3240    4.7240   24.0110 N.3   112  LEU112     -0.1231
     58  CA         7.7920    3.6290   24.8380 C.3   112  LEU112      0.1693
     59  C          7.6160    4.1220   26.2500 C.2   112  LEU112      0.2592
     60  O          7.9570    5.2640   26.5390 O.2   112  LEU112     -0.2718
     61  CB         9.2880    3.4740   24.6260 C.3   112  LEU112      0.0284
     62  CG         9.8350    2.2740   23.8980 C.3   112  LEU112      0.0019
     63  CD1        8.9160    1.9430   22.7120 C.3   112  LEU112      0.0001
     64  CD2       11.3190    2.5260   23.5160 C.3   112  LEU112      0.0001
     65  N          7.1310    3.2620   27.1310 N.am  113  TYR113     -0.1962
     66  CA         7.0540    3.6110   28.5290 C.3   113  TYR113      0.1771
     67  C          7.4750    2.4740   29.4380 C.2   113  TYR113      0.2619
     68  O          7.5020    1.2860   29.0500 O.2   113  TYR113     -0.2715
     69  CB         5.6260    4.0440   28.8640 C.3   113  TYR113      0.0574
     70  CG         4.5640    2.9750   28.6970 C.ar  113  TYR113     -0.0198
     71  CD1        3.8980    2.8300   27.4870 C.ar  113  TYR113     -0.0009
     72  CD2        4.2170    2.1290   29.7550 C.ar  113  TYR113     -0.0009
     73  CE1        2.9470    1.8720   27.3090 C.ar  113  TYR113      0.0417
     74  CE2        3.2290    1.1310   29.5890 C.ar  113  TYR113      0.0417
     75  CZ         2.5960    1.0200   28.3580 C.ar  113  TYR113      0.1957
     76  OH         1.6080    0.0820   28.1380 O.3   113  TYR113     -0.2866
     77  N          7.7800    2.8380   30.6710 N.am  114  ALA114     -0.1977
     78  CA         8.0080    1.8630   31.7460 C.3   114  ALA114      0.1597
     79  C          7.3050    2.4730   32.9340 C.2   114  ALA114      0.2287
     80  O          7.4490    3.6570   33.1760 O.2   114  ALA114     -0.2864
     81  CB         9.5480    1.6810   32.0380 C.3   114  ALA114      0.0319
     82  N          8.0360    6.4990   33.3400 N.3   126  LEU126     -0.1231
     83  CA         8.9850    7.0850   32.4150 C.3   126  LEU126      0.1693
     84  C          8.4340    6.9570   31.0100 C.2   126  LEU126      0.2592
     85  O          7.9390    5.8970   30.6430 O.2   126  LEU126     -0.2718
     86  CB        10.3030    6.3380   32.5320 C.3   126  LEU126      0.0284
     87  CG        11.0970    6.4210   33.8350 C.3   126  LEU126      0.0019
     88  CD1       12.3720    5.5820   33.7080 C.3   126  LEU126      0.0001
     89  CD2       11.4200    7.8900   34.2260 C.3   126  LEU126      0.0001
     90  N          8.4580    8.0130   30.2170 N.am  127  ILE127     -0.1966
     91  CA         7.9410    7.8640   28.8520 C.3   127  ILE127      0.1727
     92  C          8.7400    8.6870   27.8430 C.2   127  ILE127      0.2616
     93  O          9.2080    9.7900   28.1380 O.2   127  ILE127     -0.2715
     94  CB         6.4120    8.1400   28.7580 C.3   127  ILE127      0.0290
     95  CG1        5.8570    7.7770   27.3670 C.3   127  ILE127      0.0022
     96  CG2        6.0840    9.5580   29.0130 C.3   127  ILE127      0.0023
     97  CD1        4.3270    7.5710   27.3690 C.3   127  ILE127      0.0001
     98  N          8.9490    8.0990   26.6730 N.am  128  GLY128     -0.1955
     99  CA         9.6340    8.7460   25.5850 C.3   128  GLY128      0.1869
    100  C          8.7500    8.5840   24.3740 C.2   128  GLY128      0.2309
    101  O          8.3320    7.4550   24.0340 O.2   128  GLY128     -0.2863
    102  N         10.3540   13.5150   26.6170 N.3   156  ALA156     -0.1231
    103  CA        10.9780   12.6460   27.6170 C.3   156  ALA156      0.1694
    104  C         10.4360   13.1130   28.9380 C.2   156  ALA156      0.2593
    105  O         10.7030   14.2290   29.3510 O.2   156  ALA156     -0.2718
    106  CB        12.5030   12.7620   27.5660 C.3   156  ALA156      0.0304
    107  N          9.6600   12.2590   29.5890 N.am  157  GLY157     -0.1942
    108  CA         8.9190   12.6450   30.7800 C.3   157  GLY157      0.2014
    109  C          9.2050   11.6790   31.8880 C.2   157  GLY157      0.2638
    110  O          9.3500   10.5040   31.6230 O.2   157  GLY157     -0.2714
    111  N          9.2950   12.1900   33.1200 N.am  158  ALA158     -0.1977
    112  CA         9.5330   11.3870   34.3190 C.3   158  ALA158      0.1597
    113  C          8.5530   11.8330   35.4580 C.2   158  ALA158      0.2287
    114  O          8.4560   13.0130   35.7580 O.2   158  ALA158     -0.2864
    115  CB        11.0100   11.5070   34.7770 C.3   158  ALA158      0.0319
@<TRIPOS>BOND
     1    54    52   ar
     2    54    56   ar
     3    52    51   ar
     4    56    55   ar
     5    51    50    1
     6    51    53   ar
     7    50    47    1
     8    55    53   ar
     9     7     5    1
    10    63    62    1
    11     6     5    1
    12    48    47    1
    13    48    49    2
    14    47    46    1
    15    64    62    1
    16     5     2    1
    17    62    61    1
    18    57    58    1
    19   101   100    2
    20   100    99    1
    21     1     2    1
    22    46    44   am
    23    61    58    1
    24     2     3    1
    25    58    59    1
    26     4     3    2
    27    44    45    2
    28    44    43    1
    29    99    98    1
    30     3     8   am
    31    59    60    2
    32    59    65   am
    33    43    42    1
    34   102   103    1
    35    98    92   am
    36     8     9    1
    37    65    66    1
    38    73    71   ar
    39    73    75   ar
    40    95    97    1
    41    95    94    1
    42    71    70   ar
    43     9    10    1
    44     9    12    1
    45   106   103    1
    46   103   104    1
    47    42    37   am
    48    92    93    2
    49    92    91    1
    50    76    75    1
    51    11    10    2
    52    10    16   am
    53    38    37    2
    54    75    74   ar
    55    12    13    1
    56    66    69    1
    57    66    67    1
    58    37    36    1
    59    70    69    1
    60    70    72   ar
    61    16    17    1
    62    94    91    1
    63    94    96    1
    64    91    90    1
    65   104   105    2
    66   104   107   am
    67    20    21    1
    68    20    17    1
    69    68    67    2
    70    21    22    1
    71    40    39    1
    72    67    77   am
    73    13    15   ar
    74    13    14   ar
    75    17    18    1
    76    74    72   ar
    77   107   108    1
    78    22    23    1
    79    39    36    1
    80    39    41    1
    81    36    35    1
    82    90    84   am
    83    23    24    1
    84    85    84    2
    85    77    78    1
    86   108   109    1
    87    18    19    2
    88    84    83    1
    89    33    34   ar
    90    33    31   ar
    91    34    32   ar
    92   110   109    2
    93    78    81    1
    94    78    79    1
    95   109   111   am
    96    31    30   ar
    97    83    86    1
    98    83    82    1
    99    86    87    1
   100    32    30   ar
   101    79    80    2
   102   111   112    1
   103    30    29    1
   104    88    87    1
   105    87    89    1
   106   112   115    1
   107   112   113    1
   108    25    26    1
   109    29    26    1
   110    26    27    1
   111   113   114    2
   112    27    28    2
