@<TRIPOS>MOLECULE
tmp/3sltA00.pdb
 98 94 0 0 0
SMALL
GASTEIGER

@<TRIPOS>ATOM
      1  N         -5.2230   18.4200   43.1070 N.3   232  LEU232     -0.1245
      2  CA        -4.8610   19.7990   42.9790 C.3   232  LEU232      0.1561
      3  C         -3.3680   19.7710   42.6410 C.2   232  LEU232      0.2260
      4  O         -2.5900   19.1440   43.3620 O.2   232  LEU232     -0.2867
      5  CB        -5.1120   20.4680   44.3340 C.3   232  LEU232      0.0270
      6  CG        -5.7430   21.8570   44.4030 C.3   232  LEU232      0.0019
      7  CD1       -7.2020   21.7620   43.9150 C.3   232  LEU232      0.0001
      8  CD2       -5.6550   22.3900   45.8310 C.3   232  LEU232      0.0001
      9  N         -2.9270   26.5400   37.7650 N.3   263  MET263     -0.1245
     10  CA        -3.2920   25.5850   38.8120 C.3   263  MET263      0.1570
     11  C         -4.2260   24.5710   38.2020 C.2   263  MET263      0.2261
     12  O         -5.1720   24.9300   37.4980 O.2   263  MET263     -0.2867
     13  CB        -4.0060   26.2670   39.9700 C.3   263  MET263      0.0387
     14  CG        -4.5000   25.3000   41.0720 C.3   263  MET263      0.0595
     15  SD        -5.2330   26.1570   42.5010 S.3   263  MET263     -0.1393
     16  CE        -6.9780   26.1580   42.0810 C.3   263  MET263      0.0692
     17  N         -6.8350   21.4090   38.4910 N.3   265  MET265     -0.1230
     18  CA        -7.9130   20.8630   39.3120 C.3   265  MET265      0.1702
     19  C         -8.5770   19.6660   38.5930 C.2   265  MET265      0.2593
     20  O         -8.7910   19.7050   37.3600 O.2   265  MET265     -0.2718
     21  CB        -8.9770   21.9330   39.5150 C.3   265  MET265      0.0401
     22  CG        -8.5190   23.0980   40.3180 C.3   265  MET265      0.0596
     23  SD        -9.6640   24.4740   40.3420 S.3   265  MET265     -0.1393
     24  CE        -9.5080   24.9980   38.6370 C.3   265  MET265      0.0692
     25  N         -8.9190   18.6190   39.3430 N.am  266  SER266     -0.1938
     26  CA        -9.6090   17.4830   38.7250 C.3   266  SER266      0.2055
     27  C        -10.3790   16.6390   39.7160 C.2   266  SER266      0.2642
     28  O        -10.1750   16.7100   40.9420 O.2   266  SER266     -0.2714
     29  CB        -8.6410   16.6000   37.9440 C.3   266  SER266      0.2130
     30  OG        -7.7920   15.9120   38.8280 O.3   266  SER266     -0.2179
     31  N        -11.2750   15.8360   39.1550 N.am  267  VAL267     -0.1977
     32  CA       -12.1510   14.9350   39.9330 C.3   267  VAL267      0.1596
     33  C        -12.4510   13.7390   39.0630 C.2   267  VAL267      0.2287
     34  O        -12.6040   13.8870   37.8600 O.2   267  VAL267     -0.2864
     35  CB       -13.5120   15.5840   40.2640 C.3   267  VAL267      0.0276
     36  CG1      -14.3520   14.6140   41.0420 C.3   267  VAL267      0.0022
     37  CG2      -13.3160   16.8570   41.0570 C.3   267  VAL267      0.0022
     38  N        -12.5900   14.5310   35.1150 N.3   283  PHE283     -0.1227
     39  CA       -12.8680   15.8500   34.5720 C.3   283  PHE283      0.1736
     40  C        -11.8260   16.8290   35.0880 C.2   283  PHE283      0.2595
     41  O        -11.4360   16.7700   36.2320 O.2   283  PHE283     -0.2718
     42  CB       -14.2640   16.3250   34.9370 C.3   283  PHE283      0.0547
     43  CG       -15.3310   15.3800   34.5290 C.ar  283  PHE283     -0.0202
     44  CD1      -16.1370   15.6530   33.4230 C.ar  283  PHE283     -0.0042
     45  CD2      -15.5410   14.2080   35.2360 C.ar  283  PHE283     -0.0042
     46  CE1      -17.1580   14.7600   33.0390 C.ar  283  PHE283     -0.0003
     47  CE2      -16.5340   13.3230   34.8470 C.ar  283  PHE283     -0.0003
     48  CZ       -17.3430   13.6030   33.7490 C.ar  283  PHE283     -0.0000
     49  N        -11.3700   17.7170   34.2220 N.am  284  GLU284     -0.1965
     50  CA       -10.2890   18.6170   34.5700 C.3   284  GLU284      0.1733
     51  C        -10.5220   20.0210   34.1000 C.2   284  GLU284      0.2616
     52  O        -11.1810   20.2480   33.0930 O.2   284  GLU284     -0.2715
     53  CB        -8.9880   18.1710   33.8990 C.3   284  GLU284      0.0429
     54  CG        -8.6670   16.7290   34.0510 C.3   284  GLU284      0.1163
     55  CD        -7.9430   16.1830   32.8190 C.2   284  GLU284      0.3649
     56  OE1       -6.8310   16.7040   32.5440 O.co2 284  GLU284     -0.2457
     57  OE2       -8.5080   15.2610   32.1470 O.co2 284  GLU284     -0.2457
     58  N         -9.9360   20.9570   34.8220 N.am  285  LYS285     -0.1977
     59  CA        -9.7160   22.3130   34.3130 C.3   285  LYS285      0.1596
     60  C         -8.5060   22.9630   34.9960 C.2   285  LYS285      0.2287
     61  O         -7.9220   22.4090   35.9480 O.2   285  LYS285     -0.2864
     62  CB       -10.9400   23.1670   34.5100 C.3   285  LYS285      0.0298
     63  CG       -11.3030   23.2440   35.9100 C.3   285  LYS285      0.0038
     64  CD       -12.3330   24.3410   36.1740 C.3   285  LYS285      0.0206
     65  CE       -13.2100   23.8870   37.3140 C.3   285  LYS285      0.1093
     66  NZ       -13.5030   24.9830   38.2000 N.3   285  LYS285     -0.1314
     67  N         -6.8970   26.9040   36.4140 N.3   287  ALA287     -0.1231
     68  CA        -7.0990   28.3210   36.7040 C.3   287  ALA287      0.1694
     69  C         -5.7610   29.0900   36.7650 C.2   287  ALA287      0.2592
     70  O         -4.7090   28.5300   36.9800 O.2   287  ALA287     -0.2718
     71  CB        -7.8500   28.4760   38.0030 C.3   287  ALA287      0.0304
     72  N         -5.8600   30.3910   36.5510 N.am  288  PHE288     -0.1976
     73  CA        -4.8370   31.3960   36.8740 C.3   288  PHE288      0.1639
     74  C         -3.7950   31.6020   35.8010 C.2   288  PHE288      0.2290
     75  O         -2.9100   32.4200   35.9910 O.2   288  PHE288     -0.2864
     76  CB        -4.1750   31.1200   38.2250 C.3   288  PHE288      0.0560
     77  CG        -5.1550   31.0690   39.3810 C.ar  288  PHE288     -0.0200
     78  CD1       -6.1320   32.0530   39.5370 C.ar  288  PHE288     -0.0042
     79  CD2       -5.0980   30.0410   40.3170 C.ar  288  PHE288     -0.0042
     80  CE1       -7.0020   32.0020   40.5820 C.ar  288  PHE288     -0.0003
     81  CE2       -5.9950   30.0040   41.3900 C.ar  288  PHE288     -0.0003
     82  CZ        -6.9320   30.9760   41.5200 C.ar  288  PHE288     -0.0000
     83  N        -10.2370   25.0510   29.7670 N.3   294  ASP294     -0.1225
     84  CA       -11.5220   25.4860   30.3420 C.3   294  ASP294      0.1805
     85  C        -12.3970   24.3050   30.8260 C.2   294  ASP294      0.2597
     86  O        -13.1300   24.4290   31.7940 O.2   294  ASP294     -0.2718
     87  CB       -12.2560   26.4310   29.3850 C.3   294  ASP294      0.1424
     88  CG       -11.5050   27.7630   29.1890 C.2   294  ASP294      0.3668
     89  OD1      -10.9370   28.2750   30.1890 O.co2 294  ASP294     -0.2456
     90  OD2      -11.4820   28.2940   28.0400 O.co2 294  ASP294     -0.2456
     91  N        -12.3170   23.1810   30.1310 N.am  295  ASN295     -0.1974
     92  CA       -12.7680   21.8840   30.6410 C.3   295  ASN295      0.1688
     93  C        -12.3380   20.7830   29.6980 C.2   295  ASN295      0.2292
     94  O        -12.2390   20.9800   28.4870 O.2   295  ASN295     -0.2864
     95  CB       -14.2860   21.7820   30.7880 C.3   295  ASN295      0.1181
     96  CG       -14.7510   20.3620   31.2160 C.2   295  ASN295      0.2629
     97  OD1      -14.5400   19.9000   32.3530 O.2   295  ASN295     -0.2716
     98  ND2      -15.3520   19.6710   30.2880 N.am  295  ASN295     -0.0877
@<TRIPOS>BOND
     1    90    88   ar
     2    94    93    2
     3    88    87    1
     4    88    89   ar
     5    87    84    1
     6    93    92    1
     7    83    84    1
     8    91    92    1
     9    91    85   am
    10    98    96   am
    11    84    85    1
    12    92    95    1
    13    95    96    1
    14    85    86    2
    15    96    97    2
    16    57    55   ar
    17    56    55   ar
    18    55    54    1
    19    46    44   ar
    20    46    48   ar
    21    52    51    2
    22    44    43   ar
    23    48    47   ar
    24    53    54    1
    25    53    50    1
    26    51    50    1
    27    51    58   am
    28    49    50    1
    29    49    40   am
    30    59    62    1
    31    59    58    1
    32    59    60    1
    33    62    63    1
    34    43    42    1
    35    43    45   ar
    36    39    42    1
    37    39    40    1
    38    39    38    1
    39    47    45   ar
    40    60    61    2
    41    40    41    2
    42    74    75    2
    43    74    73    1
    44    63    64    1
    45    64    65    1
    46    67    68    1
    47    72    69   am
    48    72    73    1
    49    68    69    1
    50    68    71    1
    51    69    70    2
    52    73    76    1
    53    65    66    1
    54    20    19    2
    55    12    11    2
    56     9    10    1
    57    34    33    2
    58    29    26    1
    59    29    30    1
    60    11    10    1
    61    76    77    1
    62    17    18    1
    63    19    18    1
    64    19    25   am
    65    24    23    1
    66    26    25    1
    67    26    27    1
    68    10    13    1
    69    33    32    1
    70    31    27   am
    71    31    32    1
    72    18    21    1
    73    77    78   ar
    74    77    79   ar
    75    21    22    1
    76    78    80   ar
    77    27    28    2
    78    32    35    1
    79    13    14    1
    80    35    36    1
    81    35    37    1
    82    79    81   ar
    83    22    23    1
    84    80    82   ar
    85    14    15    1
    86    81    82   ar
    87    16    15    1
    88     3     2    1
    89     3     4    2
    90     2     1    1
    91     2     5    1
    92     7     6    1
    93     5     6    1
    94     6     8    1
