@<TRIPOS>MOLECULE
tmp/3sltA01.pdb
 99 97 0 0 0
SMALL
GASTEIGER

@<TRIPOS>ATOM
      1  N          3.7970   19.7510   40.1100 N.3   211  THR211     -0.1203
      2  CA         3.7390   19.2420   41.5010 C.3   211  THR211      0.1994
      3  C          2.2620   19.2930   42.0070 C.2   211  THR211      0.2618
      4  O          1.5360   20.2480   41.7700 O.2   211  THR211     -0.2717
      5  CB         4.6690   20.0490   42.4430 C.3   211  THR211      0.1784
      6  OG1        4.2620   21.4290   42.4800 O.3   211  THR211     -0.2211
      7  CG2        6.0930   20.0350   41.9470 C.3   211  THR211      0.0376
      8  N          1.8030   18.2530   42.6860 N.am  212  GLY212     -0.1942
      9  CA         0.4220   18.2150   43.1180 C.3   212  GLY212      0.2014
     10  C          0.1490   17.1270   44.1130 C.2   212  GLY212      0.2638
     11  O          1.0340   16.3490   44.4430 O.2   212  GLY212     -0.2714
     12  N         -1.0870   17.0970   44.5950 N.am  213  VAL213     -0.1977
     13  CA        -1.5890   16.0360   45.4650 C.3   213  VAL213      0.1596
     14  C         -2.9160   15.4880   44.9190 C.2   213  VAL213      0.2287
     15  O         -3.7920   16.2620   44.5410 O.2   213  VAL213     -0.2864
     16  CB        -1.8650   16.5450   46.9080 C.3   213  VAL213      0.0276
     17  CG1       -2.1190   15.3540   47.8550 C.3   213  VAL213      0.0022
     18  CG2       -0.7120   17.4200   47.4100 C.3   213  VAL213      0.0022
     19  N         -5.2230   18.4200   43.1070 N.3   232  LEU232     -0.1231
     20  CA        -4.8610   19.7990   42.9790 C.3   232  LEU232      0.1693
     21  C         -3.3680   19.7710   42.6410 C.2   232  LEU232      0.2593
     22  O         -2.5900   19.1440   43.3620 O.2   232  LEU232     -0.2718
     23  CB        -5.1120   20.4680   44.3340 C.3   232  LEU232      0.0284
     24  CG        -5.7430   21.8570   44.4030 C.3   232  LEU232      0.0019
     25  CD1       -7.2020   21.7620   43.9150 C.3   232  LEU232      0.0001
     26  CD2       -5.6550   22.3900   45.8310 C.3   232  LEU232      0.0001
     27  N         -2.9910   20.4080   41.5310 N.am  233  GLY233     -0.1942
     28  CA        -1.6050   20.5310   41.1360 C.3   233  GLY233      0.2014
     29  C         -1.2260   21.9130   40.6120 C.2   233  GLY233      0.2638
     30  O         -2.0850   22.7770   40.4070 O.2   233  GLY233     -0.2714
     31  N          0.0790   22.0910   40.3790 N.am  234  TYR234     -0.1973
     32  CA         0.6500   23.3020   39.8470 C.3   234  TYR234      0.1639
     33  C          1.5120   22.9200   38.6550 C.2   234  TYR234      0.2290
     34  O          2.4570   22.1820   38.8120 O.2   234  TYR234     -0.2864
     35  CB         1.4830   23.9740   40.9470 C.3   234  TYR234      0.0560
     36  CG         2.2730   25.2220   40.5540 C.ar  234  TYR234     -0.0198
     37  CD1        1.7660   26.1370   39.6410 C.ar  234  TYR234     -0.0009
     38  CD2        3.5040   25.4870   41.1270 C.ar  234  TYR234     -0.0009
     39  CE1        2.4560   27.2850   39.2970 C.ar  234  TYR234      0.0417
     40  CE2        4.2280   26.6430   40.7950 C.ar  234  TYR234      0.0417
     41  CZ         3.6840   27.5430   39.8710 C.ar  234  TYR234      0.1957
     42  OH         4.3620   28.6990   39.5070 O.3   234  TYR234     -0.2866
     43  N          4.5990   30.2900   31.1980 N.3   260  ASP260     -0.1225
     44  CA         3.2430   30.3150   31.7160 C.3   260  ASP260      0.1805
     45  C          3.1540   29.2770   32.8360 C.2   260  ASP260      0.2598
     46  O          3.9570   28.3800   32.9290 O.2   260  ASP260     -0.2718
     47  CB         2.2660   30.0140   30.5740 C.3   260  ASP260      0.1424
     48  CG         0.7870   30.3130   30.9250 C.2   260  ASP260      0.3668
     49  OD1        0.5070   30.9660   31.9630 O.co2 260  ASP260     -0.2456
     50  OD2       -0.0990   29.8950   30.1230 O.co2 260  ASP260     -0.2456
     51  N          2.1730   29.4170   33.6970 N.am  261  SER261     -0.1938
     52  CA         1.9270   28.4580   34.7520 C.3   261  SER261      0.2055
     53  C          0.4720   28.6010   35.1430 C.2   261  SER261      0.2643
     54  O         -0.1220   29.6100   34.8500 O.2   261  SER261     -0.2714
     55  CB         2.9210   28.6410   35.9300 C.3   261  SER261      0.2130
     56  OG         2.6450   29.7680   36.7480 O.3   261  SER261     -0.2179
     57  N         -0.1140   27.5580   35.7240 N.am  262  ARG262     -0.1963
     58  CA        -1.5680   27.4660   35.9900 C.3   262  ARG262      0.1729
     59  C         -1.7940   26.4380   37.0740 C.2   262  ARG262      0.2616
     60  O         -0.9420   25.5740   37.2940 O.2   262  ARG262     -0.2715
     61  CB        -2.3380   27.0530   34.7400 C.3   262  ARG262      0.0348
     62  CG        -2.0380   25.6360   34.2260 C.3   262  ARG262      0.0492
     63  CD        -2.5380   25.3960   32.7810 C.3   262  ARG262      0.2205
     64  NE        -1.8860   26.3180   31.8670 N.pl3 262  ARG262     -0.0865
     65  CZ        -0.6330   26.1910   31.4360 C.cat 262  ARG262      0.5346
     66  NH1        0.1010   25.1450   31.7960 N.pl3 262  ARG262      0.1354
     67  NH2       -0.1100   27.1180   30.6320 N.pl3 262  ARG262      0.1354
     68  N         -2.9270   26.5400   37.7650 N.am  263  MET263     -0.1977
     69  CA        -3.2920   25.5850   38.8120 C.3   263  MET263      0.1605
     70  C         -4.2260   24.5710   38.2020 C.2   263  MET263      0.2287
     71  O         -5.1720   24.9300   37.4980 O.2   263  MET263     -0.2864
     72  CB        -4.0060   26.2670   39.9700 C.3   263  MET263      0.0413
     73  CG        -4.5000   25.3000   41.0720 C.3   263  MET263      0.0598
     74  SD        -5.2330   26.1570   42.5010 S.3   263  MET263     -0.1393
     75  CE        -6.9780   26.1580   42.0810 C.3   263  MET263      0.0692
     76  N         -5.8600   30.3910   36.5510 N.3   288  PHE288     -0.1227
     77  CA        -4.8370   31.3960   36.8740 C.3   288  PHE288      0.1736
     78  C         -3.7950   31.6020   35.8010 C.2   288  PHE288      0.2596
     79  O         -2.9100   32.4200   35.9910 O.2   288  PHE288     -0.2718
     80  CB        -4.1750   31.1200   38.2250 C.3   288  PHE288      0.0547
     81  CG        -5.1550   31.0690   39.3810 C.ar  288  PHE288     -0.0202
     82  CD1       -6.1320   32.0530   39.5370 C.ar  288  PHE288     -0.0042
     83  CD2       -5.0980   30.0410   40.3170 C.ar  288  PHE288     -0.0042
     84  CE1       -7.0020   32.0020   40.5820 C.ar  288  PHE288     -0.0003
     85  CE2       -5.9950   30.0040   41.3900 C.ar  288  PHE288     -0.0003
     86  CZ        -6.9320   30.9760   41.5200 C.ar  288  PHE288     -0.0000
     87  N         -3.9050   30.9110   34.6740 N.am  289  GLY289     -0.1942
     88  CA        -2.8900   31.0080   33.6120 C.3   289  GLY289      0.2014
     89  C         -3.2610   31.9450   32.4690 C.2   289  GLY289      0.2638
     90  O         -4.4230   32.2870   32.2950 O.2   289  GLY289     -0.2714
     91  N         -2.2680   32.3420   31.6800 N.am  290  LYS290     -0.1977
     92  CA        -2.5060   32.9950   30.4000 C.3   290  LYS290      0.1596
     93  C         -3.3050   32.0670   29.5040 C.2   290  LYS290      0.2287
     94  O         -4.2390   32.5010   28.8780 O.2   290  LYS290     -0.2864
     95  CB        -1.2040   33.3560   29.6850 C.3   290  LYS290      0.0298
     96  CG        -0.3350   34.3800   30.4190 C.3   290  LYS290      0.0038
     97  CD         0.9830   34.6850   29.6990 C.3   290  LYS290      0.0206
     98  CE         2.1580   34.9750   30.6320 C.3   290  LYS290      0.1093
     99  NZ         3.4560   34.5060   30.1100 N.3   290  LYS290     -0.1314
@<TRIPOS>BOND
     1    94    93    2
     2    93    92    1
     3    95    92    1
     4    95    96    1
     5    97    96    1
     6    97    98    1
     7    99    98    1
     8    50    48   ar
     9    92    91    1
    10    47    48    1
    11    47    44    1
    12    67    65    1
    13    48    49   ar
    14    43    44    1
    15    65    66    1
    16    65    64    2
    17    91    89   am
    18    44    45    1
    19    64    63    1
    20    90    89    2
    21    89    88    1
    22    63    62    1
    23    45    46    2
    24    45    51   am
    25    88    87    1
    26    51    52    1
    27    62    61    1
    28    87    78   am
    29    61    58    1
    30    52    53    1
    31    52    55    1
    32    54    53    2
    33    53    57   am
    34    57    58    1
    35    78    79    2
    36    78    77    1
    37    55    56    1
    38    58    59    1
    39    76    77    1
    40    77    80    1
    41    59    60    2
    42    59    68   am
    43    71    70    2
    44    68    69    1
    45    70    69    1
    46    80    81    1
    47    33    34    2
    48    33    32    1
    49    69    72    1
    50    39    37   ar
    51    39    41   ar
    52    81    82   ar
    53    81    83   ar
    54    42    41    1
    55    82    84   ar
    56    37    36   ar
    57    32    31    1
    58    32    35    1
    59    41    40   ar
    60    72    73    1
    61     1     2    1
    62    83    85   ar
    63    31    29   am
    64    30    29    2
    65    36    35    1
    66    36    38   ar
    67    84    86   ar
    68    29    28    1
    69    40    38   ar
    70    73    74    1
    71    28    27    1
    72    85    86   ar
    73     2     3    1
    74     2     5    1
    75    27    21   am
    76     4     3    2
    77     7     5    1
    78     3     8   am
    79    75    74    1
    80     5     6    1
    81    21    20    1
    82    21    22    2
    83     8     9    1
    84    20    19    1
    85    20    23    1
    86     9    10    1
    87    25    24    1
    88    10    11    2
    89    10    12   am
    90    23    24    1
    91    24    26    1
    92    15    14    2
    93    12    13    1
    94    14    13    1
    95    13    16    1
    96    16    18    1
    97    16    17    1
