@<TRIPOS>MOLECULE
tmp/3sltA05.pdb
 82 79 0 0 0
SMALL
GASTEIGER

@<TRIPOS>ATOM
      1  N         -3.9940    6.6260   54.6500 N.3   166  VAL166     -0.1245
      2  CA        -4.3670    7.2020   55.9210 C.3   166  VAL166      0.1561
      3  C         -5.3130    6.2720   56.6950 C.2   166  VAL166      0.2260
      4  O         -5.2280    6.1900   57.9050 O.2   166  VAL166     -0.2867
      5  CB        -4.9930    8.6220   55.7610 C.3   166  VAL166      0.0252
      6  CG1       -5.4960    9.1340   57.1420 C.3   166  VAL166      0.0019
      7  CG2       -3.9710    9.6070   55.1740 C.3   166  VAL166      0.0019
      8  N         -8.8260    5.1600   52.6530 N.3   170  ALA170     -0.1231
      9  CA        -8.6330    6.5430   52.2290 C.3   170  ALA170      0.1694
     10  C         -7.1330    6.7850   51.9690 C.2   170  ALA170      0.2592
     11  O         -6.3040    6.1820   52.6560 O.2   170  ALA170     -0.2718
     12  CB        -9.1940    7.5120   53.3170 C.3   170  ALA170      0.0304
     13  N         -6.7800    7.6370   50.9940 N.am  171  TRP171     -0.1962
     14  CA        -5.3630    7.8420   50.6290 C.3   171  TRP171      0.1771
     15  C         -5.0390    9.2330   50.1080 C.2   171  TRP171      0.2619
     16  O         -5.9120    9.9240   49.5950 O.2   171  TRP171     -0.2715
     17  CB        -4.8380    6.7790   49.6250 C.3   171  TRP171      0.0590
     18  CG        -5.5300    6.6710   48.3040 C.ar  171  TRP171      0.0006
     19  CD1       -6.4060    5.6990   47.9240 C.ar  171  TRP171      0.0946
     20  CD2       -5.3900    7.5380   47.1700 C.ar  171  TRP171      0.0152
     21  NE1       -6.8380    5.9110   46.6290 N.ar  171  TRP171     -0.2442
     22  CE2       -6.2340    7.0350   46.1470 C.ar  171  TRP171      0.0810
     23  CE3       -4.6580    8.6980   46.9220 C.ar  171  TRP171      0.0012
     24  CZ2       -6.3500    7.6410   44.9230 C.ar  171  TRP171      0.0191
     25  CZ3       -4.7650    9.2840   45.7040 C.ar  171  TRP171      0.0001
     26  CH2       -5.5940    8.7580   44.7060 C.ar  171  TRP171      0.0015
     27  N         -3.7690    9.6080   50.2630 N.am  172  ILE172     -0.1977
     28  CA        -3.2070   10.8700   49.7790 C.3   172  ILE172      0.1596
     29  C         -1.9690   10.5530   48.9300 C.2   172  ILE172      0.2287
     30  O         -1.1960    9.6500   49.2500 O.2   172  ILE172     -0.2864
     31  CB        -2.6810   11.7900   50.9180 C.3   172  ILE172      0.0276
     32  CG1       -3.5750   11.7700   52.1590 C.3   172  ILE172      0.0022
     33  CG2       -2.5460   13.2100   50.4300 C.3   172  ILE172      0.0022
     34  CD1       -3.0640   12.7310   53.3050 C.3   172  ILE172      0.0001
     35  N         -6.0840   12.7770   46.1950 N.3   215  VAL215     -0.1231
     36  CA        -6.6780   12.1300   47.3710 C.3   215  VAL215      0.1692
     37  C         -7.8240   11.2310   46.8910 C.2   215  VAL215      0.2593
     38  O         -8.4940   11.5210   45.8710 O.2   215  VAL215     -0.2718
     39  CB        -7.1730   13.1690   48.4340 C.3   215  VAL215      0.0266
     40  CG1       -6.0820   14.2080   48.7330 C.3   215  VAL215      0.0020
     41  CG2       -8.4420   13.9000   47.9620 C.3   215  VAL215      0.0020
     42  N         -8.0420   10.1370   47.6170 N.am  216  GLY216     -0.1942
     43  CA        -8.9600    9.1040   47.1450 C.3   216  GLY216      0.2014
     44  C         -9.6180    8.3320   48.2550 C.2   216  GLY216      0.2638
     45  O         -9.0790    8.2080   49.3470 O.2   216  GLY216     -0.2714
     46  N        -10.8250    7.8620   47.9790 N.am  217  LYS217     -0.1977
     47  CA       -11.6000    7.0700   48.9290 C.3   217  LYS217      0.1596
     48  C        -12.1320    5.8960   48.1160 C.2   217  LYS217      0.2287
     49  O        -12.6900    6.1080   47.0080 O.2   217  LYS217     -0.2864
     50  CB       -12.7210    7.9350   49.5190 C.3   217  LYS217      0.0298
     51  CG       -13.7180    7.2200   50.4280 C.3   217  LYS217      0.0038
     52  CD       -13.0730    6.5990   51.6730 C.3   217  LYS217      0.0206
     53  CE       -14.1410    6.3480   52.7680 C.3   217  LYS217      0.1093
     54  NZ       -13.5620    5.9410   54.1090 N.3   217  LYS217     -0.1314
     55  N        -13.2610    6.9950   44.1920 N.3   228  ALA228     -0.1231
     56  CA       -13.4860    8.4130   43.8800 C.3   228  ALA228      0.1694
     57  C        -12.2160    9.1510   44.1840 C.2   228  ALA228      0.2592
     58  O        -11.5600    8.8680   45.1750 O.2   228  ALA228     -0.2718
     59  CB       -14.6490    9.0180   44.6700 C.3   228  ALA228      0.0304
     60  N        -11.8450   10.0860   43.3310 N.am  229  ARG229     -0.1966
     61  CA       -10.6270   10.8080   43.5630 C.3   229  ARG229      0.1729
     62  C        -10.7270   12.2380   43.0700 C.2   229  ARG229      0.2616
     63  O        -11.6670   12.5980   42.3610 O.2   229  ARG229     -0.2715
     64  CB        -9.4380   10.0680   42.9450 C.3   229  ARG229      0.0348
     65  CG        -9.3940   10.1010   41.4370 C.3   229  ARG229      0.0492
     66  CD        -8.3230    9.1700   40.8930 C.3   229  ARG229      0.2205
     67  NE        -6.9400    9.6960   40.9870 N.pl3 229  ARG229     -0.0865
     68  CZ        -5.8390    8.9340   40.8490 C.cat 229  ARG229      0.5346
     69  NH1       -5.9330    7.6070   40.6300 N.pl3 229  ARG229      0.1354
     70  NH2       -4.6300    9.4840   40.9170 N.pl3 229  ARG229      0.1354
     71  N         -9.7210   13.0230   43.4720 N.am  230  ALA230     -0.1977
     72  CA        -9.6810   14.4640   43.2550 C.3   230  ALA230      0.1597
     73  C         -8.2550   14.8720   43.3640 C.2   230  ALA230      0.2287
     74  O         -7.4430   14.1230   43.8140 O.2   230  ALA230     -0.2864
     75  CB       -10.5390   15.2190   44.3000 C.3   230  ALA230      0.0319
     76  N        -11.2750   15.8360   39.1550 N.3   267  VAL267     -0.1245
     77  CA       -12.1510   14.9350   39.9330 C.3   267  VAL267      0.1561
     78  C        -12.4510   13.7390   39.0630 C.2   267  VAL267      0.2260
     79  O        -12.6040   13.8870   37.8600 O.2   267  VAL267     -0.2867
     80  CB       -13.5120   15.5840   40.2640 C.3   267  VAL267      0.0252
     81  CG1      -14.3520   14.6140   41.0420 C.3   267  VAL267      0.0019
     82  CG2      -13.3160   16.8570   41.0570 C.3   267  VAL267      0.0019
@<TRIPOS>BOND
     1    79    78    2
     2    78    77    1
     3    76    77    1
     4    77    80    1
     5    80    81    1
     6    80    82    1
     7    69    68    1
     8    68    70    1
     9    68    67    2
    10    66    67    1
    11    66    65    1
    12    65    64    1
    13    63    62    2
    14    64    61    1
    15    62    71   am
    16    62    61    1
    17    72    73    1
    18    72    71    1
    19    72    75    1
    20    60    61    1
    21    60    57   am
    22    73    74    2
    23    56    57    1
    24    56    55    1
    25    56    59    1
    26    57    58    2
    27    26    24   ar
    28    26    25   ar
    29    24    22   ar
    30    25    23   ar
    31    38    37    2
    32    22    21   ar
    33    22    20   ar
    34    35    36    1
    35    21    19   ar
    36    37    36    1
    37    37    42   am
    38    23    20   ar
    39    49    48    2
    40    43    42    1
    41    43    44    1
    42    20    18   ar
    43    36    39    1
    44    19    18   ar
    45    41    39    1
    46    46    44   am
    47    46    47    1
    48    48    47    1
    49    44    45    2
    50    18    17    1
    51    39    40    1
    52    47    50    1
    53    29    30    2
    54    29    28    1
    55    50    51    1
    56    16    15    2
    57    17    14    1
    58    28    27    1
    59    28    31    1
    60    15    27   am
    61    15    14    1
    62    51    52    1
    63    33    31    1
    64    14    13    1
    65    31    32    1
    66    13    10   am
    67    52    53    1
    68    10     9    1
    69    10    11    2
    70    32    34    1
    71     9     8    1
    72     9    12    1
    73    53    54    1
    74     1     2    1
    75     7     5    1
    76     5     2    1
    77     5     6    1
    78     2     3    1
    79     3     4    2
