@<TRIPOS>MOLECULE
tmp/3slzB00.pdb
 176 172 0 0 0
SMALL
GASTEIGER

@<TRIPOS>ATOM
      1  N          6.5540    2.5330    5.7100 N.3    20  LEU20      -0.1245
      2  CA         5.8880    1.3670    6.3080 C.3    20  LEU20       0.1561
      3  C          4.9800    0.7880    5.2500 C.2    20  LEU20       0.2260
      4  O          4.1500    1.5140    4.6710 O.2    20  LEU20      -0.2867
      5  CB         5.0360    1.8170    7.5020 C.3    20  LEU20       0.0270
      6  CG         4.2170    0.7040    8.1330 C.3    20  LEU20       0.0019
      7  CD1        5.0030   -0.4820    8.6690 C.3    20  LEU20       0.0001
      8  CD2        3.4030    1.3250    9.2850 C.3    20  LEU20       0.0001
      9  N          1.8730   -0.8300    4.2260 N.3    22  ASP22      -0.1239
     10  CA         0.6410   -0.7150    4.9840 C.3    22  ASP22       0.1674
     11  C         -0.5490   -1.1990    4.1870 C.2    22  ASP22       0.2266
     12  O         -1.1810   -0.4390    3.4290 O.2    22  ASP22      -0.2867
     13  CB         0.4540    0.7620    5.3880 C.3    22  ASP22       0.1410
     14  CG        -0.6890    0.9520    6.3110 C.2    22  ASP22       0.3668
     15  OD1       -1.3440   -0.0250    6.7060 O.co2  22  ASP22      -0.2456
     16  OD2       -0.9280    2.1280    6.7460 O.co2  22  ASP22      -0.2456
     17  N         -3.3820   -1.6280    5.3190 N.3    24  GLY24      -0.1210
     18  CA        -4.5740   -0.9050    5.8270 C.3    24  GLY24       0.1956
     19  C         -4.7060    0.4980    5.2200 C.2    24  GLY24       0.2612
     20  O         -5.6520    1.1950    5.6160 O.2    24  GLY24      -0.2717
     21  N         -3.8050    0.9230    4.3460 N.am   25  ALA25      -0.1965
     22  CA        -3.8940    2.2860    3.7490 C.3    25  ALA25       0.1728
     23  C         -4.4760    2.1260    2.3320 C.2    25  ALA25       0.2616
     24  O         -3.9020    1.4640    1.4700 O.2    25  ALA25      -0.2715
     25  CB        -2.5220    2.9300    3.6890 C.3    25  ALA25       0.0334
     26  N         -5.5790    2.8450    2.0860 N.am   26  GLN26      -0.1963
     27  CA        -6.1820    2.8210    0.7940 C.3    26  GLN26       0.1733
     28  C         -5.2930    3.5040   -0.2600 C.2    26  GLN26       0.2616
     29  O         -5.3460    3.1570   -1.4260 O.2    26  GLN26      -0.2715
     30  CB        -7.5370    3.5320    0.9000 C.3    26  GLN26       0.0408
     31  CG        -8.3730    3.5550   -0.4250 C.3    26  GLN26       0.0908
     32  CD        -9.7060    4.1970   -0.1630 C.2    26  GLN26       0.2608
     33  OE1      -10.2420    4.1510    0.9460 O.2    26  GLN26      -0.2717
     34  NE2      -10.2750    4.8000   -1.2180 N.am   26  GLN26      -0.0878
     35  N         -4.5280    4.5220    0.1420 N.am   27  HIS27      -0.1973
     36  CA        -3.6350    5.1970   -0.7430 C.3    27  HIS27       0.1656
     37  C         -2.3580    5.5620    0.0620 C.2    27  HIS27       0.2291
     38  O         -2.3800    5.6160    1.3020 O.2    27  HIS27      -0.2864
     39  CB        -4.3350    6.4420   -1.3080 C.3    27  HIS27       0.0771
     40  CG        -3.7410    6.9450   -2.5840 C.ar   27  HIS27       0.0820
     41  ND1       -4.1850    6.5530   -3.8330 N.ar   27  HIS27      -0.2267
     42  CD2       -2.6760    7.7560   -2.8060 C.ar   27  HIS27       0.1154
     43  CE1       -3.4560    7.1270   -4.7700 C.ar   27  HIS27       0.1986
     44  NE2       -2.5250    7.8700   -4.1730 N.ar   27  HIS27      -0.2212
     45  N          0.9860    7.6030    1.4300 N.3    29  VAL29      -0.1245
     46  CA         1.0960    8.7970    2.2510 C.3    29  VAL29       0.1561
     47  C          2.5360    9.2390    2.4200 C.2    29  VAL29       0.2260
     48  O          3.4370    8.4350    2.7370 O.2    29  VAL29      -0.2867
     49  CB         0.5250    8.4700    3.6750 C.3    29  VAL29       0.0252
     50  CG1        0.8020    9.5720    4.7100 C.3    29  VAL29       0.0019
     51  CG2       -0.9890    8.1670    3.6090 C.3    29  VAL29       0.0019
     52  N         -8.2570   15.3700   -0.0620 N.3    42  ALA42      -0.1231
     53  CA        -9.0680   14.1950    0.2160 C.3    42  ALA42       0.1694
     54  C         -9.4760   14.2000    1.6590 C.2    42  ALA42       0.2592
     55  O         -8.7240   14.6130    2.5480 O.2    42  ALA42      -0.2718
     56  CB        -8.2360   12.8930   -0.0210 C.3    42  ALA42       0.0304
     57  N        -10.6490   13.6220    1.9290 N.am   43  TRP43      -0.1962
     58  CA       -11.0230   13.2690    3.2730 C.3    43  TRP43       0.1771
     59  C        -10.3200   11.9480    3.6480 C.2    43  TRP43       0.2619
     60  O        -10.4300   10.9410    2.9370 O.2    43  TRP43      -0.2715
     61  CB       -12.5390   13.0160    3.3340 C.3    43  TRP43       0.0590
     62  CG       -12.9520   12.7490    4.6810 C.ar   43  TRP43       0.0006
     63  CD1      -13.0310   11.5250    5.3020 C.ar   43  TRP43       0.0946
     64  CD2      -13.3420   13.7090    5.6410 C.ar   43  TRP43       0.0152
     65  NE1      -13.4290   11.6900    6.6110 N.ar   43  TRP43      -0.2442
     66  CE2      -13.6140   13.0280    6.8430 C.ar   43  TRP43       0.0810
     67  CE3      -13.4820   15.1080    5.6130 C.ar   43  TRP43       0.0012
     68  CZ2      -14.0640   13.6970    7.9910 C.ar   43  TRP43       0.0191
     69  CZ3      -13.9090   15.7570    6.7490 C.ar   43  TRP43       0.0001
     70  CH2      -14.1970   15.0630    7.9170 C.ar   43  TRP43       0.0015
     71  N         -9.5720   12.0020    4.7380 N.am   44  VAL44      -0.1963
     72  CA        -8.8650   10.7970    5.2230 C.3    44  VAL44       0.1727
     73  C         -9.4900   10.3490    6.5290 C.2    44  VAL44       0.2616
     74  O         -9.5900   11.1160    7.4900 O.2    44  VAL44      -0.2715
     75  CB        -7.3550   11.0760    5.4230 C.3    44  VAL44       0.0290
     76  CG1       -6.6260    9.8330    6.0480 C.3    44  VAL44       0.0023
     77  CG2       -6.7070   11.4100    4.1110 C.3    44  VAL44       0.0023
     78  N         -9.9650    9.1100    6.5530 N.am   45  GLN45      -0.1963
     79  CA       -10.4590    8.5040    7.7820 C.3    45  GLN45       0.1733
     80  C         -9.3710    7.6550    8.3900 C.2    45  GLN45       0.2617
     81  O         -8.9100    6.6830    7.7730 O.2    45  GLN45      -0.2715
     82  CB       -11.7030    7.6460    7.4710 C.3    45  GLN45       0.0408
     83  CG       -12.5780    7.4010    8.7290 C.3    45  GLN45       0.0908
     84  CD       -13.3580    8.6510    9.1980 C.2    45  GLN45       0.2608
     85  OE1      -13.7790    9.4890    8.3900 O.2    45  GLN45      -0.2717
     86  NE2      -13.5590    8.7660   10.5020 N.am   45  GLN45      -0.0878
     87  N         -8.9690    8.0030    9.6010 N.am   46  GLY46      -0.1940
     88  CA        -8.0050    7.2130   10.3610 C.3    46  GLY46       0.2014
     89  C         -8.7210    6.4350   11.4500 C.2    46  GLY46       0.2638
     90  O         -9.9440    6.4760   11.5720 O.2    46  GLY46      -0.2714
     91  N         -7.9270    5.7440   12.2640 N.am   47  ALA47      -0.1977
     92  CA        -8.5040    4.8870   13.3070 C.3    47  ALA47       0.1597
     93  C         -9.2430    5.7100   14.3430 C.2    47  ALA47       0.2287
     94  O        -10.1850    5.1800   14.9660 O.2    47  ALA47      -0.2864
     95  CB        -7.4170    4.0760   13.9490 C.3    47  ALA47       0.0319
     96  N         -3.5150   16.5550   -1.5130 N.3    55  TRP55      -0.1241
     97  CA        -2.8130   15.7400   -2.4880 C.3    55  TRP55       0.1605
     98  C         -1.5230   16.4140   -2.9290 C.2    55  TRP55       0.2264
     99  O         -1.4900   17.6660   -3.0800 O.2    55  TRP55      -0.2867
    100  CB        -3.6800   15.4910   -3.7270 C.3    55  TRP55       0.0550
    101  CG        -4.8210   14.5700   -3.5010 C.ar   55  TRP55       0.0003
    102  CD1       -6.1630   14.8670   -3.4340 C.ar   55  TRP55       0.0946
    103  CD2       -4.7270   13.1550   -3.3900 C.ar   55  TRP55       0.0152
    104  NE1       -6.8890   13.7250   -3.2470 N.ar   55  TRP55      -0.2442
    105  CE2       -6.0290   12.6610   -3.2280 C.ar   55  TRP55       0.0810
    106  CE3       -3.6290   12.2520   -3.3780 C.ar   55  TRP55       0.0012
    107  CZ2       -6.2900   11.3140   -3.0450 C.ar   55  TRP55       0.0191
    108  CZ3       -3.8870   10.8970   -3.2310 C.ar   55  TRP55       0.0001
    109  CH2       -5.2000   10.4400   -3.0330 C.ar   55  TRP55       0.0015
    110  N         -1.0400   11.3350   -0.6310 N.3    73  LEU73      -0.1245
    111  CA        -1.6070   12.1900    0.4090 C.3    73  LEU73       0.1561
    112  C         -0.5310   12.7780    1.2440 C.2    73  LEU73       0.2260
    113  O          0.3600   12.0070    1.6900 O.2    73  LEU73      -0.2867
    114  CB        -2.5130   11.3410    1.3190 C.3    73  LEU73       0.0270
    115  CG        -3.6800   10.6890    0.6070 C.3    73  LEU73       0.0019
    116  CD1       -4.2440    9.5670    1.5330 C.3    73  LEU73       0.0001
    117  CD2       -4.7270   11.7460    0.3400 C.3    73  LEU73       0.0001
    118  N          0.1140   13.8010    4.8010 N.3    75  VAL75      -0.1245
    119  CA        -0.5460   13.6500    6.0850 C.3    75  VAL75       0.1561
    120  C          0.4970   13.8830    7.1850 C.2    75  VAL75       0.2260
    121  O          1.1440   12.9320    7.6690 O.2    75  VAL75      -0.2867
    122  CB        -1.2310   12.2580    6.2560 C.3    75  VAL75       0.0252
    123  CG1       -2.0420   12.2550    7.5370 C.3    75  VAL75       0.0019
    124  CG2       -2.1630   11.9060    5.0550 C.3    75  VAL75       0.0019
    125  N          0.1970   14.4090   10.2030 N.3    77  ASP77      -0.1225
    126  CA        -0.1650   13.7790   11.4790 C.3    77  ASP77       0.1805
    127  C          0.2790   12.3190   11.5510 C.2    77  ASP77       0.2598
    128  O          0.1970   11.6940   12.6270 O.2    77  ASP77      -0.2718
    129  CB        -1.6870   13.8970   11.7230 C.3    77  ASP77       0.1424
    130  CG        -2.1200   15.3330   11.8950 C.2    77  ASP77       0.3668
    131  OD1       -1.4710   15.9970   12.7320 O.co2  77  ASP77      -0.2456
    132  OD2       -3.0450   15.7730   11.1970 O.co2  77  ASP77      -0.2456
    133  N          0.7780   11.7760   10.4240 N.am   78  CYS78      -0.1957
    134  CA         1.2500   10.4030   10.4230 C.3    78  CYS78       0.1828
    135  C          2.7180   10.3620   10.7810 C.2    78  CYS78       0.2467
    136  O          3.4620   11.2370   10.3860 O.2    78  CYS78      -0.2730
    137  CB         1.0610    9.8570    9.0220 C.3    78  CYS78       0.0996
    138  SG        -0.4120    9.0590    8.6920 S.3    78  CYS78      -0.0797
    139  N          3.1650    9.3750   11.5660 N.am   79  PRO79      -0.2715
    140  CA         4.5690    9.3580   12.0000 C.3    79  PRO79       0.1536
    141  C          5.5910    8.9890   10.9400 C.2    79  PRO79       0.2598
    142  O          6.7410    9.3180   11.0490 O.2    79  PRO79      -0.2715
    143  CB         4.5660    8.3240   13.1540 C.3    79  PRO79       0.0310
    144  CG         3.4270    7.4220   12.8160 C.3    79  PRO79       0.0237
    145  CD         2.3560    8.3180   12.1810 C.3    79  PRO79       0.0939
    146  N          5.1580    8.2690    9.9140 N.am   80  TYR80      -0.1974
    147  CA         6.0670    7.9550    8.8170 C.3    80  TYR80       0.1639
    148  C          5.2450    7.7460    7.5540 C.2    80  TYR80       0.2290
    149  O          4.0140    7.5400    7.6070 O.2    80  TYR80      -0.2864
    150  CB         7.0010    6.7390    9.0680 C.3    80  TYR80       0.0560
    151  CG         6.3440    5.7570    9.9830 C.ar   80  TYR80      -0.0198
    152  CD1        6.8310    5.5760   11.2790 C.ar   80  TYR80      -0.0009
    153  CD2        5.1870    5.1200    9.5950 C.ar   80  TYR80      -0.0009
    154  CE1        6.1450    4.7010   12.2250 C.ar   80  TYR80       0.0417
    155  CE2        4.5130    4.2690   10.4650 C.ar   80  TYR80       0.0417
    156  CZ         4.9970    4.0530   11.7480 C.ar   80  TYR80       0.1957
    157  OH         4.3410    3.1810   12.5430 O.3    80  TYR80      -0.2866
    158  N          3.5990    5.9720    4.3440 N.3    82  LEU82      -0.1245
    159  CA         2.8540    4.6810    4.2870 C.3    82  LEU82       0.1561
    160  C          2.7530    4.2910    2.8360 C.2    82  LEU82       0.2260
    161  O          2.3070    5.0860    1.9790 O.2    82  LEU82      -0.2867
    162  CB         1.4520    4.8330    4.8520 C.3    82  LEU82       0.0270
    163  CG         1.3720    5.3870    6.2590 C.3    82  LEU82       0.0019
    164  CD1       -0.0840    5.6240    6.6450 C.3    82  LEU82       0.0001
    165  CD2        2.0770    4.4980    7.2950 C.3    82  LEU82       0.0001
    166  N         -2.2140    0.2020   -0.4770 N.3    85  ARG85      -0.1245
    167  CA        -2.7100   -0.8260   -1.4290 C.3    85  ARG85       0.1563
    168  C         -2.6410   -0.3080   -2.8480 C.2    85  ARG85       0.2260
    169  O         -2.5310   -1.1400   -3.7940 O.2    85  ARG85      -0.2867
    170  CB        -4.1340   -1.2040   -1.0900 C.3    85  ARG85       0.0307
    171  CG        -4.2660   -1.8840    0.3020 C.3    85  ARG85       0.0489
    172  CD        -5.6250   -2.4910    0.5360 C.3    85  ARG85       0.2205
    173  NE        -6.7100   -1.4870    0.5010 N.pl3  85  ARG85      -0.0865
    174  CZ        -7.1910   -0.8160    1.5440 C.cat  85  ARG85       0.5346
    175  NH1       -6.7060   -0.9930    2.7680 N.pl3  85  ARG85       0.1354
    176  NH2       -8.2110    0.0460    1.3880 N.pl3  85  ARG85       0.1354
@<TRIPOS>BOND
     1    43    44   ar
     2    43    41   ar
     3    44    42   ar
     4    41    40   ar
     5   169   168    2
     6   100   101    1
     7   100    97    1
     8   101   102   ar
     9   101   103   ar
    10   102   104   ar
    11   103   106   ar
    12   103   105   ar
    13   106   108   ar
    14   104   105   ar
    15   108   109   ar
    16   105   107   ar
    17    99    98    2
    18   107   109   ar
    19    98    97    1
    20   168   167    1
    21    42    40   ar
    22    40    39    1
    23    97    96    1
    24   167   170    1
    25   167   166    1
    26    29    28    2
    27    39    36    1
    28    34    32   am
    29   170   171    1
    30    36    37    1
    31    36    35    1
    32   110   111    1
    33    31    32    1
    34    31    30    1
    35    28    35   am
    36    28    27    1
    37    32    33    2
    38    52    53    1
    39    56    53    1
    40    37    38    2
    41    53    54    1
    42   171   172    1
    43   117   115    1
    44   111   112    1
    45   111   114    1
    46   173   172    1
    47   173   174    2
    48   115   114    1
    49   115   116    1
    50    27    30    1
    51    27    26    1
    52   112   113    2
    53   176   174    1
    54    45    46    1
    55    24    23    2
    56   174   175    1
    57    54    57   am
    58    54    55    2
    59    57    58    1
    60   161   160    2
    61    26    23   am
    62    46    47    1
    63    46    49    1
    64    23    22    1
    65    47    48    2
    66   160   159    1
    67    60    59    2
    68    58    61    1
    69    58    59    1
    70    61    62    1
    71    12    11    2
    72    51    49    1
    73    59    71   am
    74    49    50    1
    75    25    22    1
    76    22    21    1
    77    77    75    1
    78    11    10    1
    79     9    10    1
    80   159   158    1
    81   159   162    1
    82    21    19   am
    83     4     3    2
    84    62    63   ar
    85    62    64   ar
    86    71    72    1
    87   118   119    1
    88   162   163    1
    89    10    13    1
    90   124   122    1
    91    19    20    2
    92    19    18    1
    93    72    75    1
    94    72    73    1
    95     3     2    1
    96    63    65   ar
    97    17    18    1
    98    13    14    1
    99    75    76    1
   100    67    64   ar
   101    67    69   ar
   102    64    66   ar
   103     1     2    1
   104   119   122    1
   105   119   120    1
   106   122   123    1
   107   163   164    1
   108   163   165    1
   109     2     5    1
   110    14    15   ar
   111    14    16   ar
   112    73    78   am
   113    73    74    2
   114    78    79    1
   115    65    66   ar
   116    69    70   ar
   117    66    68   ar
   118   120   121    2
   119    82    79    1
   120    82    83    1
   121     5     6    1
   122   148   149    2
   123   148   147    1
   124    81    80    2
   125    79    80    1
   126    70    68   ar
   127     6     7    1
   128     6     8    1
   129    80    87   am
   130    85    84    2
   131   138   137    1
   132    83    84    1
   133   147   150    1
   134   147   146    1
   135   137   134    1
   136   150   151    1
   137    84    86   am
   138   153   151   ar
   139   153   155   ar
   140    87    88    1
   141   146   141   am
   142   151   152   ar
   143   125   126    1
   144    88    89    1
   145   136   135    2
   146   134   133    1
   147   134   135    1
   148   133   127   am
   149   155   156   ar
   150   135   139   am
   151   141   142    2
   152   141   140    1
   153   132   130   ar
   154   152   154   ar
   155    89    90    2
   156    89    91   am
   157   126   127    1
   158   126   129    1
   159   127   128    2
   160   139   140    1
   161   139   145    1
   162   129   130    1
   163   156   154   ar
   164   156   157    1
   165   130   131   ar
   166   140   143    1
   167   145   144    1
   168    91    92    1
   169   144   143    1
   170    92    95    1
   171    92    93    1
   172    93    94    2
