@<TRIPOS>MOLECULE
tmp/3sm1A01.pdb
 134 130 0 0 0
SMALL
GASTEIGER

@<TRIPOS>ATOM
      1  N         -4.0080   -5.5890    8.2960 N.3    22  ASP22      -0.1239
      2  CA        -3.3890   -4.2650    8.3550 C.3    22  ASP22       0.1674
      3  C         -1.9820   -4.3240    8.8850 C.2    22  ASP22       0.2266
      4  O         -1.7540   -4.3240   10.1240 O.2    22  ASP22      -0.2867
      5  CB        -4.2280   -3.3670    9.2610 C.3    22  ASP22       0.1410
      6  CG        -3.7710   -1.9340    9.2470 C.2    22  ASP22       0.3668
      7  OD1       -2.7460   -1.6250    8.6100 O.co2  22  ASP22      -0.2456
      8  OD2       -4.4520   -1.0740    9.8540 O.co2  22  ASP22      -0.2456
      9  N          0.1380   -2.1240    8.8330 N.3    24  GLY24      -0.1210
     10  CA         0.4890   -0.8660    9.5100 C.3    24  GLY24       0.1956
     11  C         -0.0220   -0.7670   10.9500 C.2    24  GLY24       0.2612
     12  O          0.2770    0.2320   11.6480 O.2    24  GLY24      -0.2717
     13  N         -0.7860   -1.7490   11.4140 N.am   25  ALA25      -0.1965
     14  CA        -1.3470   -1.7410   12.7890 C.3    25  ALA25       0.1728
     15  C         -0.4480   -2.5780   13.7120 C.2    25  ALA25       0.2616
     16  O         -0.1850   -3.7560   13.4620 O.2    25  ALA25      -0.2715
     17  CB        -2.7540   -2.3070   12.7830 C.3    25  ALA25       0.0334
     18  N          0.0740   -1.9510   14.7660 N.am   26  GLN26      -0.1963
     19  CA         0.9290   -2.6390   15.7150 C.3    26  GLN26       0.1733
     20  C          0.1290   -3.7030   16.4920 C.2    26  GLN26       0.2616
     21  O          0.6560   -4.7460   16.8410 O.2    26  GLN26      -0.2715
     22  CB         1.5230   -1.6130   16.6810 C.3    26  GLN26       0.0408
     23  CG         2.5450   -2.1590   17.6460 C.3    26  GLN26       0.0908
     24  CD         3.0810   -1.0870   18.5600 C.2    26  GLN26       0.2608
     25  OE1        2.9620    0.1000   18.2850 O.2    26  GLN26      -0.2717
     26  NE2        3.6900   -1.5140   19.6600 N.am   26  GLN26      -0.0878
     27  N         -1.1250   -3.3930   16.7880 N.am   27  HIS27      -0.1973
     28  CA        -1.9740   -4.2760   17.5650 C.3    27  HIS27       0.1656
     29  C         -3.3270   -4.3660   16.8860 C.2    27  HIS27       0.2291
     30  O         -3.7320   -3.4820   16.1270 O.2    27  HIS27      -0.2864
     31  CB        -2.1700   -3.7370   18.9900 C.3    27  HIS27       0.0771
     32  CG        -0.9210   -3.7000   19.8040 C.ar   27  HIS27       0.0820
     33  ND1       -0.3930   -4.8140   20.4190 N.ar   27  HIS27      -0.2267
     34  CD2       -0.0740   -2.6800   20.0710 C.ar   27  HIS27       0.1154
     35  CE1        0.7280   -4.4770   21.0390 C.ar   27  HIS27       0.1986
     36  NE2        0.9310   -3.1840   20.8580 N.ar   27  HIS27      -0.2212
     37  N         -7.4830   -4.8230   16.4170 N.3    29  VAL29      -0.1245
     38  CA        -8.5700   -3.9320   16.8150 C.3    29  VAL29       0.1561
     39  C         -9.9260   -4.5980   16.5520 C.2    29  VAL29       0.2260
     40  O        -10.1460   -5.1690   15.4630 O.2    29  VAL29      -0.2867
     41  CB        -8.4700   -2.6350   15.9750 C.3    29  VAL29       0.0252
     42  CG1       -9.7240   -1.8000   16.0920 C.3    29  VAL29       0.0019
     43  CG2       -7.2340   -1.8460   16.3910 C.3    29  VAL29       0.0019
     44  N         -4.8590    2.2210   26.4760 N.3    42  ALA42      -0.1231
     45  CA        -3.6300    2.5600   25.7750 C.3    42  ALA42       0.1694
     46  C         -3.8740    3.7970   24.9650 C.2    42  ALA42       0.2592
     47  O         -4.9900    4.0570   24.5020 O.2    42  ALA42      -0.2718
     48  CB        -3.1960    1.4130   24.8400 C.3    42  ALA42       0.0304
     49  N         -2.8120    4.5860   24.8270 N.am   43  TRP43      -0.1962
     50  CA        -2.8490    5.6890   23.8660 C.3    43  TRP43       0.1771
     51  C         -2.5670    5.1430   22.4660 C.2    43  TRP43       0.2619
     52  O         -1.5440    4.4630   22.2630 O.2    43  TRP43      -0.2715
     53  CB        -1.7990    6.7350   24.2200 C.3    43  TRP43       0.0590
     54  CG        -1.9270    7.8600   23.2850 C.ar   43  TRP43       0.0006
     55  CD1       -1.2310    8.0540   22.1260 C.ar   43  TRP43       0.0946
     56  CD2       -2.8540    8.9380   23.3870 C.ar   43  TRP43       0.0152
     57  NE1       -1.6790    9.1810   21.4910 N.ar   43  TRP43      -0.2442
     58  CE2       -2.6630    9.7560   22.2440 C.ar   43  TRP43       0.0810
     59  CE3       -3.8180    9.3040   24.3340 C.ar   43  TRP43       0.0012
     60  CZ2       -3.4040   10.9050   22.0180 C.ar   43  TRP43       0.0191
     61  CZ3       -4.5590   10.4640   24.1030 C.ar   43  TRP43       0.0001
     62  CH2       -4.3400   11.2450   22.9510 C.ar   43  TRP43       0.0015
     63  N         -3.4780    5.4020   21.5330 N.am   44  VAL44      -0.1963
     64  CA        -3.3670    4.8840   20.1660 C.3    44  VAL44       0.1727
     65  C         -3.1100    6.0760   19.2570 C.2    44  VAL44       0.2616
     66  O         -3.9420    6.9650   19.2000 O.2    44  VAL44      -0.2715
     67  CB        -4.6790    4.2030   19.7470 C.3    44  VAL44       0.0290
     68  CG1       -4.6790    3.7530   18.2710 C.3    44  VAL44       0.0023
     69  CG2       -4.8880    2.9590   20.6270 C.3    44  VAL44       0.0023
     70  N         -1.9940    6.0330   18.5250 N.am   45  GLN45      -0.1963
     71  CA        -1.7550    7.0150   17.4700 C.3    45  GLN45       0.1733
     72  C         -2.2050    6.4450   16.1490 C.2    45  GLN45       0.2617
     73  O         -1.6960    5.4000   15.7210 O.2    45  GLN45      -0.2715
     74  CB        -0.2780    7.3740   17.4210 C.3    45  GLN45       0.0408
     75  CG        -0.0310    8.3890   16.2660 C.3    45  GLN45       0.0908
     76  CD         1.3990    8.8110   16.0860 C.2    45  GLN45       0.2608
     77  OE1        1.6460    9.9080   15.5820 O.2    45  GLN45      -0.2717
     78  NE2        2.3260    7.9660   16.4280 N.am   45  GLN45      -0.0878
     79  N         -3.1310    7.1590   15.5160 N.am   46  GLY46      -0.1940
     80  CA        -3.5580    6.8240   14.1620 C.3    46  GLY46       0.2014
     81  C         -2.8880    7.7190   13.1240 C.2    46  GLY46       0.2638
     82  O         -2.0370    8.5620   13.4480 O.2    46  GLY46      -0.2714
     83  N         -3.3000    7.5680   11.8780 N.am   47  ALA47      -0.1977
     84  CA        -2.7070    8.4030   10.8330 C.3    47  ALA47       0.1597
     85  C         -3.1150    9.8680   10.9520 C.2    47  ALA47       0.2287
     86  O         -2.4170   10.7340   10.4330 O.2    47  ALA47      -0.2864
     87  CB        -3.0750    7.8400    9.4540 C.3    47  ALA47       0.0319
     88  N         -8.5400   -1.8710   26.2840 N.3    55  TRP55      -0.1241
     89  CA        -8.2990   -3.2570   25.8550 C.3    55  TRP55       0.1605
     90  C         -9.5120   -4.1160   26.2010 C.2    55  TRP55       0.2264
     91  O        -10.1630   -3.8580   27.2510 O.2    55  TRP55      -0.2867
     92  CB        -7.0950   -3.8400   26.6080 C.3    55  TRP55       0.0550
     93  CG        -5.8030   -3.2050   26.2830 C.ar   55  TRP55       0.0003
     94  CD1       -5.1410   -2.2680   27.0140 C.ar   55  TRP55       0.0946
     95  CD2       -4.9920   -3.4990   25.1400 C.ar   55  TRP55       0.0152
     96  NE1       -3.9390   -1.9240   26.3600 N.ar   55  TRP55      -0.2442
     97  CE2       -3.8320   -2.6850   25.2210 C.ar   55  TRP55       0.0810
     98  CE3       -5.1310   -4.3770   24.0540 C.ar   55  TRP55       0.0012
     99  CZ2       -2.8170   -2.7130   24.2380 C.ar   55  TRP55       0.0191
    100  CZ3       -4.1020   -4.4260   23.0910 C.ar   55  TRP55       0.0001
    101  CH2       -2.9720   -3.5790   23.1910 C.ar   55  TRP55       0.0015
    102  N         -7.5570   -4.1320   21.0650 N.3    73  LEU73      -0.1245
    103  CA        -7.9910   -2.7520   21.3230 C.3    73  LEU73       0.1561
    104  C         -9.4190   -2.5720   20.8830 C.2    73  LEU73       0.2260
    105  O         -9.7950   -2.9400   19.7740 O.2    73  LEU73      -0.2867
    106  CB        -7.0960   -1.7790   20.5580 C.3    73  LEU73       0.0270
    107  CG        -5.6890   -1.6270   21.1270 C.3    73  LEU73       0.0019
    108  CD1       -4.8190   -1.0110   20.0350 C.3    73  LEU73       0.0001
    109  CD2       -5.6550   -0.7710   22.4200 C.3    73  LEU73       0.0001
    110  N        -12.7870    3.3450   14.5820 N.3    78  CYS78      -0.1235
    111  CA       -12.0610    2.7530   13.4680 C.3    78  CYS78       0.1677
    112  C        -13.0580    2.1410   12.4640 C.2    78  CYS78       0.2270
    113  O        -14.0480    1.5340   12.8790 O.2    78  CYS78      -0.2867
    114  CB       -11.1500    1.6700   14.0370 C.3    78  CYS78       0.0956
    115  SG       -10.0060    0.9950   12.8650 S.3    78  CYS78      -0.0801
    116  N         -9.3160   -4.7020   12.6900 N.3    82  LEU82      -0.1245
    117  CA        -7.9770   -4.7760   12.0900 C.3    82  LEU82       0.1561
    118  C         -7.2030   -5.9420   12.6430 C.2    82  LEU82       0.2260
    119  O         -7.1210   -6.1240   13.8680 O.2    82  LEU82      -0.2867
    120  CB        -7.1650   -3.4870   12.3600 C.3    82  LEU82       0.0270
    121  CG        -7.8600   -2.1780   11.9750 C.3    82  LEU82       0.0019
    122  CD1       -6.9390   -1.0380   12.3990 C.3    82  LEU82       0.0001
    123  CD2       -8.1750   -2.0600   10.5070 C.3    82  LEU82       0.0001
    124  N          0.0150   -6.5920   13.1950 N.3    85  ARG85      -0.1245
    125  CA         1.2520   -7.3640   13.1340 C.3    85  ARG85       0.1563
    126  C          1.3880   -8.2940   14.3260 C.2    85  ARG85       0.2260
    127  O          2.1320   -9.2630   14.2250 O.2    85  ARG85      -0.2867
    128  CB         2.4570   -6.4270   13.0950 C.3    85  ARG85       0.0307
    129  CG         2.4770   -5.5190   11.8760 C.3    85  ARG85       0.0489
    130  CD         3.8240   -4.8080   11.7620 C.3    85  ARG85       0.2205
    131  NE         4.1360   -3.9180   12.8950 N.pl3  85  ARG85      -0.0865
    132  CZ         3.7610   -2.6400   12.9780 C.cat  85  ARG85       0.5346
    133  NH1        3.0250   -2.0550   12.0450 N.pl3  85  ARG85       0.1354
    134  NH2        4.1150   -1.9300   14.0480 N.pl3  85  ARG85       0.1354
@<TRIPOS>BOND
     1     1     2    1
     2     2     3    1
     3     2     5    1
     4     7     6   ar
     5     9    10    1
     6     3     4    2
     7     6     5    1
     8     6     8   ar
     9    87    84    1
    10    10    11    1
    11    86    85    2
    12   123   121    1
    13    84    85    1
    14    84    83    1
    15    11    13   am
    16    11    12    2
    17    13    14    1
    18   130   129    1
    19   130   131    1
    20   129   128    1
    21    83    81   am
    22   121   120    1
    23   121   122    1
    24   133   132    1
    25   117   120    1
    26   117   118    1
    27   117   116    1
    28   112   113    2
    29   112   111    1
    30   118   119    2
    31    17    14    1
    32    14    15    1
    33   115   114    1
    34   131   132    2
    35   132   134    1
    36   128   125    1
    37    81    82    2
    38    81    80    1
    39   125   124    1
    40   125   126    1
    41    16    15    2
    42   111   114    1
    43   111   110    1
    44    15    18   am
    45    80    79    1
    46   127   126    2
    47    18    19    1
    48    40    39    2
    49    79    72   am
    50    77    76    2
    51    19    20    1
    52    19    22    1
    53    73    72    2
    54    41    42    1
    55    41    43    1
    56    41    38    1
    57    76    75    1
    58    76    78   am
    59    30    29    2
    60    72    71    1
    61    75    74    1
    62    37    38    1
    63    20    27   am
    64    20    21    2
    65    39    38    1
    66    22    23    1
    67    27    28    1
    68    29    28    1
    69    74    71    1
    70    71    70    1
    71    28    31    1
    72    23    24    1
    73    68    67    1
    74    25    24    2
    75    70    65   am
    76    24    26   am
    77    31    32    1
    78    66    65    2
    79    65    64    1
    80    67    64    1
    81    67    69    1
    82   105   104    2
    83    32    34   ar
    84    32    33   ar
    85   108   107    1
    86    34    36   ar
    87    64    63    1
    88    33    35   ar
    89   106   107    1
    90   106   103    1
    91    36    35   ar
    92   104   103    1
    93   102   103    1
    94   107   109    1
    95    57    55   ar
    96    57    58   ar
    97    63    51   am
    98    60    58   ar
    99    60    62   ar
   100    55    54   ar
   101    58    56   ar
   102    52    51    2
   103    51    50    1
   104    62    61   ar
   105   100   101   ar
   106   100    98   ar
   107   101    99   ar
   108    54    56   ar
   109    54    53    1
   110    56    59   ar
   111    50    53    1
   112    50    49    1
   113    98    95   ar
   114    61    59   ar
   115    99    97   ar
   116    47    46    2
   117    49    46   am
   118    48    45    1
   119    46    45    1
   120    95    97   ar
   121    95    93   ar
   122    97    96   ar
   123    45    44    1
   124    89    90    1
   125    89    88    1
   126    89    92    1
   127    90    91    2
   128    93    92    1
   129    93    94   ar
   130    96    94   ar
