@<TRIPOS>MOLECULE
tmp/3sm2A00.pdb
 131 125 0 0 0
SMALL
GASTEIGER

@<TRIPOS>ATOM
      1  N         -9.9770   -6.1350    8.0620 N.3    20  LEU20      -0.1245
      2  CA        -8.9880   -5.6260    7.1110 C.3    20  LEU20       0.1561
      3  C         -7.6270   -6.0990    7.6120 C.2    20  LEU20       0.2260
      4  O         -7.2620   -5.8200    8.7510 O.2    20  LEU20      -0.2867
      5  CB        -9.0330   -4.1080    7.0730 C.3    20  LEU20       0.0270
      6  CG        -7.9310   -3.4120    6.2530 C.3    20  LEU20       0.0019
      7  CD1       -7.8490   -4.0230    4.8650 C.3    20  LEU20       0.0001
      8  CD2       -8.1620   -1.8880    6.1980 C.3    20  LEU20       0.0001
      9  N         -4.0800   -5.5590    8.1580 N.3    22  ASP22      -0.1239
     10  CA        -3.5150   -4.2020    8.2690 C.3    22  ASP22       0.1674
     11  C         -2.0780   -4.2180    8.7800 C.2    22  ASP22       0.2266
     12  O         -1.8520   -4.1890    9.9890 O.2    22  ASP22      -0.2867
     13  CB        -4.3750   -3.3350    9.2130 C.3    22  ASP22       0.1410
     14  CG        -4.0190   -1.8710    9.1370 C.2    22  ASP22       0.3668
     15  OD1       -2.9920   -1.5210    8.4850 O.co2  22  ASP22      -0.2456
     16  OD2       -4.7850   -1.0580    9.7100 O.co2  22  ASP22      -0.2456
     17  N          0.0420   -1.9790    8.7550 N.3    24  GLY24      -0.1210
     18  CA         0.4200   -0.6970    9.3890 C.3    24  GLY24       0.1956
     19  C         -0.1270   -0.5190   10.7860 C.2    24  GLY24       0.2612
     20  O          0.1310    0.5260   11.4190 O.2    24  GLY24      -0.2717
     21  N         -0.8870   -1.5150   11.2610 N.am   25  ALA25      -0.1965
     22  CA        -1.4860   -1.4700   12.5890 C.3    25  ALA25       0.1728
     23  C         -0.6580   -2.3140   13.5600 C.2    25  ALA25       0.2616
     24  O         -0.4600   -3.5200   13.3640 O.2    25  ALA25      -0.2715
     25  CB        -2.9420   -1.9350   12.5470 C.3    25  ALA25       0.0334
     26  N         -0.1580   -1.6660   14.5980 N.am   26  GLN26      -0.1963
     27  CA         0.6450   -2.3760   15.5820 C.3    26  GLN26       0.1733
     28  C         -0.2200   -3.3810   16.3560 C.2    26  GLN26       0.2616
     29  O          0.2560   -4.4860   16.7130 O.2    26  GLN26      -0.2715
     30  CB         1.2390   -1.3590   16.5640 C.3    26  GLN26       0.0408
     31  CG         2.0570   -1.9760   17.6730 C.3    26  GLN26       0.0908
     32  CD         2.7320   -0.9270   18.5290 C.2    26  GLN26       0.2608
     33  OE1        2.6630    0.2740   18.2490 O.2    26  GLN26      -0.2717
     34  NE2        3.4020   -1.3780   19.5850 N.am   26  GLN26      -0.0878
     35  N         -1.4530   -2.9870   16.6830 N.am   27  HIS27      -0.1973
     36  CA        -2.3420   -3.9060   17.4200 C.3    27  HIS27       0.1656
     37  C         -3.6490   -4.0960   16.6560 C.2    27  HIS27       0.2291
     38  O         -4.0510   -3.2520   15.8590 O.2    27  HIS27      -0.2864
     39  CB        -2.7160   -3.4900   18.8480 C.3    27  HIS27       0.0771
     40  CG        -2.8830   -4.6680   19.7690 C.ar   27  HIS27       0.0820
     41  ND1       -1.8120   -5.2820   20.3920 N.ar   27  HIS27      -0.2267
     42  CD2       -3.9750   -5.4070   20.0870 C.ar   27  HIS27       0.1154
     43  CE1       -2.2460   -6.3110   21.0980 C.ar   27  HIS27       0.1986
     44  NE2       -3.5530   -6.4100   20.9280 N.ar   27  HIS27      -0.2212
     45  N         -7.7820   -4.5860   16.1870 N.3    29  VAL29      -0.1245
     46  CA        -8.8800   -3.6870   16.5700 C.3    29  VAL29       0.1561
     47  C        -10.2340   -4.3160   16.3120 C.2    29  VAL29       0.2260
     48  O        -10.4650   -4.8810   15.2420 O.2    29  VAL29      -0.2867
     49  CB        -8.7490   -2.3530   15.7680 C.3    29  VAL29       0.0252
     50  CG1      -10.0390   -1.5430   15.7950 C.3    29  VAL29       0.0019
     51  CG2       -7.5990   -1.5170   16.3560 C.3    29  VAL29       0.0019
     52  N         -3.7510    5.3240   21.3650 N.3    44  VAL44      -0.1231
     53  CA        -3.6130    4.8810   19.9870 C.3    44  VAL44       0.1692
     54  C         -3.2620    6.0720   19.0970 C.2    44  VAL44       0.2592
     55  O         -4.0060    7.0340   19.0460 O.2    44  VAL44      -0.2718
     56  CB        -4.9260    4.2450   19.4800 C.3    44  VAL44       0.0266
     57  CG1       -4.8620    3.9080   17.9480 C.3    44  VAL44       0.0020
     58  CG2       -5.2710    3.0160   20.3360 C.3    44  VAL44       0.0020
     59  N         -2.1310    5.9940   18.4150 N.am   45  GLN45      -0.1966
     60  CA        -1.7840    7.0210   17.4300 C.3    45  GLN45       0.1733
     61  C         -2.3230    6.5860   16.0730 C.2    45  GLN45       0.2617
     62  O         -1.9320    5.5300   15.5380 O.2    45  GLN45      -0.2715
     63  CB        -0.2760    7.2780   17.3320 C.3    45  GLN45       0.0408
     64  CG         0.0010    8.3910   16.2660 C.3    45  GLN45       0.0908
     65  CD         1.4610    8.7210   16.0260 C.2    45  GLN45       0.2608
     66  OE1        1.7900    9.8530   15.6390 O.2    45  GLN45      -0.2717
     67  NE2        2.3350    7.7630   16.2190 N.am   45  GLN45      -0.0878
     68  N         -3.2160    7.3960   15.5180 N.am   46  GLY46      -0.1940
     69  CA        -3.7090    7.1620   14.1670 C.3    46  GLY46       0.2014
     70  C         -3.0540    8.1530   13.2050 C.2    46  GLY46       0.2639
     71  O         -2.2340    8.9840   13.6150 O.2    46  GLY46      -0.2714
     72  N         -3.4090    8.0430   11.9310 N.am   47  ALA47      -0.1963
     73  CA        -2.8650    8.9050   10.8720 C.3    47  ALA47       0.1728
     74  C         -3.2230   10.3770   11.0410 C.2    47  ALA47       0.2616
     75  O         -2.4760   11.2300   10.5770 O.2    47  ALA47      -0.2715
     76  CB        -3.3280    8.4120    9.4660 C.3    47  ALA47       0.0334
     77  N         -4.3440   10.6620   11.7090 N.am   48  THR48      -0.1951
     78  CA        -4.8870   12.0280   11.7810 C.3    48  THR48       0.1897
     79  C         -4.8730   12.5970   13.1950 C.2    48  THR48       0.2313
     80  O         -5.2530   13.7470   13.4010 O.2    48  THR48      -0.2863
     81  CB        -6.3460   12.1130   11.2140 C.3    48  THR48       0.1794
     82  OG1       -7.2760   11.5730   12.1720 O.3    48  THR48      -0.2208
     83  CG2       -6.4560   11.3700    9.8940 C.3    48  THR48       0.0378
     84  N         -8.0210   -3.9100   20.8430 N.3    73  LEU73      -0.1245
     85  CA        -8.4440   -2.5520   21.1770 C.3    73  LEU73       0.1561
     86  C         -9.8480   -2.3370   20.6280 C.2    73  LEU73       0.2260
     87  O        -10.1540   -2.7210   19.4850 O.2    73  LEU73      -0.2867
     88  CB        -7.4930   -1.5150   20.5370 C.3    73  LEU73       0.0270
     89  CG        -6.1370   -1.4240   21.2120 C.3    73  LEU73       0.0019
     90  CD1       -5.1640   -0.6840   20.3100 C.3    73  LEU73       0.0001
     91  CD2       -6.2640   -0.7960   22.5990 C.3    73  LEU73       0.0001
     92  N        -12.0580    0.2260   19.1960 N.3    75  VAL75      -0.1245
     93  CA       -11.8760    1.5190   18.5300 C.3    75  VAL75       0.1561
     94  C        -13.1390    1.7870   17.7220 C.2    75  VAL75       0.2260
     95  O        -13.2010    1.4810   16.5250 O.2    75  VAL75      -0.2867
     96  CB       -10.5970    1.5600   17.6580 C.3    75  VAL75       0.0252
     97  CG1      -10.3240    2.9870   17.1340 C.3    75  VAL75       0.0019
     98  CG2       -9.3920    1.0970   18.4530 C.3    75  VAL75       0.0019
     99  N        -13.0170    3.6380   14.3380 N.3    78  CYS78      -0.1221
    100  CA       -12.3230    3.0170   13.2350 C.3    78  CYS78       0.1794
    101  C        -13.3280    2.4250   12.2360 C.2    78  CYS78       0.2443
    102  O        -14.2870    1.7700   12.6500 O.2    78  CYS78      -0.2733
    103  CB       -11.3970    1.9420   13.7830 C.3    78  CYS78       0.0970
    104  SG       -10.4690    1.1840   12.4230 S.3    78  CYS78      -0.0800
    105  N        -13.1090    2.6670   10.9190 N.am   79  PRO79      -0.2718
    106  CA       -13.9970    2.2080    9.8530 C.3    79  PRO79       0.1535
    107  C        -14.3520    0.7060    9.8640 C.2    79  PRO79       0.2598
    108  O        -15.4730    0.3720    9.5420 O.2    79  PRO79      -0.2715
    109  CB       -13.2750    2.6160    8.5580 C.3    79  PRO79       0.0310
    110  CG       -11.9610    3.2390    8.9610 C.3    79  PRO79       0.0237
    111  CD       -12.0630    3.5810   10.4120 C.3    79  PRO79       0.0939
    112  N        -13.4180   -0.1930   10.2040 N.am   80  TYR80      -0.1974
    113  CA       -13.7360   -1.6410   10.3300 C.3    80  TYR80       0.1639
    114  C        -12.6810   -2.3320   11.2010 C.2    80  TYR80       0.2290
    115  O        -11.6800   -1.6850   11.5300 O.2    80  TYR80      -0.2864
    116  CB       -13.8300   -2.3640    8.9720 C.3    80  TYR80       0.0560
    117  CG       -13.1990   -1.5960    7.8640 C.ar   80  TYR80      -0.0198
    118  CD1      -13.9590   -1.1450    6.7920 C.ar   80  TYR80      -0.0009
    119  CD2      -11.8540   -1.2670    7.9180 C.ar   80  TYR80      -0.0009
    120  CE1      -13.3830   -0.3910    5.7860 C.ar   80  TYR80       0.0417
    121  CE2      -11.2760   -0.5240    6.9380 C.ar   80  TYR80       0.0417
    122  CZ       -12.0330   -0.0880    5.8740 C.ar   80  TYR80       0.1957
    123  OH       -11.4110    0.6450    4.9010 O.3    80  TYR80      -0.2866
    124  N         -9.4980   -4.3790   12.4810 N.3    82  LEU82      -0.1245
    125  CA        -8.1690   -4.4280   11.8670 C.3    82  LEU82       0.1561
    126  C         -7.3810   -5.6340   12.3930 C.2    82  LEU82       0.2260
    127  O         -7.2930   -5.8320   13.5920 O.2    82  LEU82      -0.2867
    128  CB        -7.3890   -3.1380   12.1600 C.3    82  LEU82       0.0270
    129  CG        -7.9780   -1.7690   11.7540 C.3    82  LEU82       0.0019
    130  CD1       -6.9600   -0.6940   12.1890 C.3    82  LEU82       0.0001
    131  CD2       -8.2900   -1.6970   10.2390 C.3    82  LEU82       0.0001
@<TRIPOS>BOND
     1     7     6    1
     2   123   122    1
     3   120   122   ar
     4   120   118   ar
     5   122   121   ar
     6     8     6    1
     7     6     5    1
     8   118   117   ar
     9   121   119   ar
    10     5     2    1
    11     2     3    1
    12     2     1    1
    13     3     4    2
    14   117   119   ar
    15   117   116    1
    16     9    10    1
    17    10    11    1
    18    10    13    1
    19    15    14   ar
    20   109   110    1
    21   109   106    1
    22    17    18    1
    23    11    12    2
    24   110   111    1
    25   116   113    1
    26    14    13    1
    27    14    16   ar
    28    18    19    1
    29    76    73    1
    30   108   107    2
    31   106   107    1
    32   106   105    1
    33   107   112   am
    34    83    81    1
    35   112   113    1
    36   131   129    1
    37   113   114    1
    38   111   105    1
    39    75    74    2
    40    19    21   am
    41    19    20    2
    42    73    74    1
    43    73    72    1
    44   105   101   am
    45    74    77   am
    46   114   115    2
    47    81    78    1
    48    81    82    1
    49    21    22    1
    50    77    78    1
    51   129   128    1
    52   129   130    1
    53    78    79    1
    54   125   128    1
    55   125   126    1
    56   125   124    1
    57    72    70   am
    58   101   102    2
    59   101   100    1
    60   126   127    2
    61   104   103    1
    62    25    22    1
    63    22    23    1
    64    79    80    2
    65    70    71    2
    66    70    69    1
    67   100   103    1
    68   100    99    1
    69    24    23    2
    70    23    26   am
    71    69    68    1
    72    26    27    1
    73    48    47    2
    74    68    61   am
    75    62    61    2
    76    27    28    1
    77    27    30    1
    78    66    65    2
    79    49    50    1
    80    49    51    1
    81    49    46    1
    82    38    37    2
    83    65    67   am
    84    65    64    1
    85    61    60    1
    86    45    46    1
    87    64    63    1
    88    47    46    1
    89    28    35   am
    90    28    29    2
    91    95    94    2
    92    30    31    1
    93    37    36    1
    94    35    36    1
    95    97    96    1
    96    63    60    1
    97    36    39    1
    98    60    59    1
    99    96    98    1
   100    96    93    1
   101    31    32    1
   102    94    93    1
   103    57    56    1
   104    33    32    2
   105    59    54   am
   106    32    34   am
   107    93    92    1
   108    39    40    1
   109    55    54    2
   110    54    53    1
   111    56    53    1
   112    56    58    1
   113    87    86    2
   114    40    42   ar
   115    40    41   ar
   116    53    52    1
   117    42    44   ar
   118    90    89    1
   119    41    43   ar
   120    88    85    1
   121    88    89    1
   122    86    85    1
   123    84    85    1
   124    44    43   ar
   125    89    91    1
