@<TRIPOS>MOLECULE
tmp/3sm9A00.pdb
 142 135 0 0 0
SMALL
GASTEIGER

@<TRIPOS>ATOM
      1  N         36.2230   22.8820  -42.0510 N.3    34  ARG34      -0.1245
      2  CA        36.1180   24.2960  -41.6140 C.3    34  ARG34       0.1563
      3  C         36.0680   25.2750  -42.7910 C.2    34  ARG34       0.2260
      4  O         35.6260   26.4070  -42.6300 O.2    34  ARG34      -0.2867
      5  CB        37.2410   24.6750  -40.6520 C.3    34  ARG34       0.0307
      6  CG        37.2430   23.8620  -39.3630 C.3    34  ARG34       0.0489
      7  CD        38.2910   24.4150  -38.3980 C.3    34  ARG34       0.2205
      8  NE        38.2360   23.7230  -37.1120 N.pl3  34  ARG34      -0.0865
      9  CZ        39.1910   23.7540  -36.1910 C.cat  34  ARG34       0.5346
     10  NH1       39.0460   23.0830  -35.0550 N.pl3  34  ARG34       0.1354
     11  NH2       40.3100   24.4410  -36.4040 N.pl3  34  ARG34       0.1354
     12  N         31.8150   24.8440  -44.4760 N.3    38  ARG38      -0.1245
     13  CA        31.3080   26.0740  -43.8580 C.3    38  ARG38       0.1563
     14  C         30.9820   27.1170  -44.9220 C.2    38  ARG38       0.2260
     15  O         29.9280   27.7480  -44.8510 O.2    38  ARG38      -0.2867
     16  CB        32.2860   26.6030  -42.7920 C.3    38  ARG38       0.0307
     17  CG        32.3030   25.7450  -41.5120 C.3    38  ARG38       0.0489
     18  CD        33.1210   26.4230  -40.4220 C.3    38  ARG38       0.2205
     19  NE        33.3060   25.5620  -39.2520 N.pl3  38  ARG38      -0.0865
     20  CZ        34.1650   25.7910  -38.2640 C.cat  38  ARG38       0.5346
     21  NH1       34.2600   24.9410  -37.2510 N.pl3  38  ARG38       0.1354
     22  NH2       34.9450   26.8630  -38.2860 N.pl3  38  ARG38       0.1354
     23  N         36.6960   32.1180  -38.6360 N.3    96  SER96      -0.1202
     24  CA        36.6920   30.8920  -37.8240 C.3    96  SER96       0.2020
     25  C         37.6280   31.0660  -36.6480 C.2    96  SER96       0.2619
     26  O         37.1480   31.2070  -35.5280 O.2    96  SER96      -0.2717
     27  CB        37.1150   29.6810  -38.6540 C.3    96  SER96       0.2103
     28  OG        36.0660   29.2840  -39.5210 O.3    96  SER96      -0.2182
     29  N         38.9580   31.1460  -36.8990 N.am   97  TYR97      -0.1961
     30  CA        39.9350   31.3420  -35.8100 C.3    97  TYR97       0.1771
     31  C         39.7850   32.7030  -35.1480 C.2    97  TYR97       0.2620
     32  O         39.6780   33.7210  -35.8460 O.2    97  TYR97      -0.2715
     33  CB        41.3790   31.1660  -36.3250 C.3    97  TYR97       0.0574
     34  CG        41.6270   29.7830  -36.8770 C.ar   97  TYR97      -0.0198
     35  CD1       41.6130   29.5470  -38.2510 C.ar   97  TYR97      -0.0009
     36  CD2       41.7940   28.6910  -36.0270 C.ar   97  TYR97      -0.0009
     37  CE1       41.7900   28.2610  -38.7640 C.ar   97  TYR97       0.0417
     38  CE2       41.9670   27.4000  -36.5280 C.ar   97  TYR97       0.0417
     39  CZ        41.9880   27.1940  -37.8980 C.ar   97  TYR97       0.1957
     40  OH        42.1820   25.9280  -38.3940 O.3    97  TYR97      -0.2866
     41  N         39.7720   32.7260  -33.8090 N.am   98  SER98      -0.1936
     42  CA        39.6650   33.9710  -33.0460 C.3    98  SER98       0.2055
     43  C         40.7140   35.0170  -33.4510 C.2    98  SER98       0.2643
     44  O         40.3500   36.1800  -33.6170 O.2    98  SER98      -0.2714
     45  CB        39.7470   33.7020  -31.5530 C.3    98  SER98       0.2130
     46  OG        38.5120   33.2180  -31.0510 O.3    98  SER98      -0.2179
     47  N         41.9850   34.6060  -33.6860 N.am   99  SER99      -0.1949
     48  CA        43.0550   35.5260  -34.0870 C.3    99  SER99       0.1924
     49  C         42.7310   36.2380  -35.4140 C.2    99  SER99       0.2314
     50  O         43.0760   37.4140  -35.5770 O.2    99  SER99      -0.2863
     51  CB        44.4070   34.8070  -34.1710 C.3    99  SER99       0.2116
     52  OG        44.5400   34.0030  -35.3330 O.3    99  SER99      -0.2180
     53  N         32.1660   30.8140  -35.3270 N.3   119  ALA119     -0.1231
     54  CA        33.1150   29.8940  -34.6670 C.3   119  ALA119      0.1694
     55  C         34.0990   30.5110  -33.6420 C.2   119  ALA119      0.2593
     56  O         34.6470   29.7480  -32.8410 O.2   119  ALA119     -0.2718
     57  CB        33.9310   29.1690  -35.7270 C.3   119  ALA119      0.0304
     58  N         34.4040   31.8320  -33.7080 N.am  120  SER120     -0.1938
     59  CA        35.4280   32.4480  -32.8280 C.3   120  SER120      0.2055
     60  C         34.9430   32.5380  -31.3570 C.2   120  SER120      0.2644
     61  O         33.9310   33.1680  -31.0710 O.2   120  SER120     -0.2714
     62  CB        35.8770   33.8000  -33.3750 C.3   120  SER120      0.2130
     63  OG        36.3240   33.6430  -34.7120 O.3   120  SER120     -0.2179
     64  N         35.6400   31.8500  -30.4400 N.am  121  THR121     -0.1936
     65  CA        35.2080   31.7330  -29.0470 C.3   121  THR121      0.2028
     66  C         36.1040   32.4740  -28.0130 C.2   121  THR121      0.2642
     67  O         35.8760   32.3300  -26.8170 O.2   121  THR121     -0.2714
     68  CB        35.0770   30.2420  -28.6800 C.3   121  THR121      0.1808
     69  OG1       36.3250   29.6050  -28.9260 O.3   121  THR121     -0.2208
     70  CG2       33.9700   29.5170  -29.4530 C.3   121  THR121      0.0379
     71  N         37.0850   33.2640  -28.4520 N.am  122  SER122     -0.1949
     72  CA        37.9580   34.0100  -27.5400 C.3   122  SER122      0.1924
     73  C         37.1840   34.9980  -26.6730 C.2   122  SER122      0.2314
     74  O         36.3140   35.7140  -27.1800 O.2   122  SER122     -0.2863
     75  CB        39.0310   34.7650  -28.3240 C.3   122  SER122      0.2116
     76  OG        39.6600   35.7790  -27.5600 O.3   122  SER122     -0.2180
     77  N         34.4160   30.9600  -24.7540 N.3   141  ASP141     -0.1239
     78  CA        34.8910   29.8320  -23.9430 C.3   141  ASP141      0.1674
     79  C         34.8550   30.0890  -22.4270 C.2   141  ASP141      0.2266
     80  O         34.8450   29.1210  -21.6760 O.2   141  ASP141     -0.2867
     81  CB        36.2920   29.3800  -24.3700 C.3   141  ASP141      0.1410
     82  CG        36.3720   28.7930  -25.7700 C.2   141  ASP141      0.3668
     83  OD1       35.4990   27.9670  -26.1250 O.co2 141  ASP141     -0.2456
     84  OD2       37.3170   29.1400  -26.5000 O.co2 141  ASP141     -0.2456
     85  N         46.0370   32.1920  -25.2370 N.3   168  ASP168     -0.1225
     86  CA        44.6830   32.7460  -25.0440 C.3   168  ASP168      0.1805
     87  C         43.6930   31.6890  -24.5170 C.2   168  ASP168      0.2597
     88  O         43.1090   31.9070  -23.4590 O.2   168  ASP168     -0.2718
     89  CB        44.1910   33.4050  -26.3720 C.3   168  ASP168      0.1424
     90  CG        42.7760   33.9980  -26.4510 C.2   168  ASP168      0.3668
     91  OD1       42.1320   34.1620  -25.3900 O.co2 168  ASP168     -0.2456
     92  OD2       42.3320   34.3380  -27.5840 O.co2 168  ASP168     -0.2456
     93  N         43.5470   30.5360  -25.2180 N.am  169  TYR169     -0.1976
     94  CA        42.6030   29.4750  -24.8540 C.3   169  TYR169      0.1639
     95  C         42.7690   28.9770  -23.3950 C.2   169  TYR169      0.2290
     96  O         41.8420   29.1220  -22.5990 O.2   169  TYR169     -0.2864
     97  CB        42.6450   28.2950  -25.8620 C.3   169  TYR169      0.0560
     98  CG        41.6310   27.2160  -25.5490 C.ar  169  TYR169     -0.0198
     99  CD1       42.0000   26.0620  -24.8640 C.ar  169  TYR169     -0.0009
    100  CD2       40.2920   27.3670  -25.8980 C.ar  169  TYR169     -0.0009
    101  CE1       41.0610   25.0820  -24.5370 C.ar  169  TYR169      0.0417
    102  CE2       39.3470   26.3900  -25.5850 C.ar  169  TYR169      0.0417
    103  CZ        39.7350   25.2540  -24.8960 C.ar  169  TYR169      0.1957
    104  OH        38.8040   24.3030  -24.5690 O.3   169  TYR169     -0.2866
    105  N         44.5330   22.6280  -24.8690 N.3   222  ARG222     -0.1231
    106  CA        44.4590   22.3170  -26.2890 C.3   222  ARG222      0.1694
    107  C         44.4350   20.7880  -26.4520 C.2   222  ARG222      0.2592
    108  O         44.7220   20.0730  -25.4900 O.2   222  ARG222     -0.2718
    109  CB        45.6700   22.9290  -26.9970 C.3   222  ARG222      0.0321
    110  CG        45.6870   24.4570  -26.9120 C.3   222  ARG222      0.0489
    111  CD        46.4400   25.1380  -28.0470 C.3   222  ARG222      0.2205
    112  NE        47.8510   24.7630  -28.0990 N.pl3 222  ARG222     -0.0865
    113  CZ        48.5440   24.6080  -29.2250 C.cat 222  ARG222      0.5346
    114  NH1       47.9620   24.7990  -30.4040 N.pl3 222  ARG222      0.1354
    115  NH2       49.8230   24.2580  -29.1810 N.pl3 222  ARG222      0.1354
    116  N         44.0390   20.2830  -27.6350 N.am  223  SER223     -0.1952
    117  CA        43.9380   18.8390  -27.9070 C.3   223  SER223      0.1924
    118  C         45.2450   18.0810  -27.6970 C.2   223  SER223      0.2314
    119  O         45.2570   17.1080  -26.9380 O.2   223  SER223     -0.2863
    120  CB        43.4060   18.5860  -29.3110 C.3   223  SER223      0.2116
    121  OG        42.0340   18.9320  -29.3450 O.3   223  SER223     -0.2180
    122  N         36.3750   21.6760  -23.8280 N.3   246  ASP246     -0.1225
    123  CA        36.1640   21.1330  -25.1680 C.3   246  ASP246      0.1805
    124  C         37.4800   20.8300  -25.9340 C.2   246  ASP246      0.2598
    125  O         37.4550   20.0370  -26.8730 O.2   246  ASP246     -0.2718
    126  CB        35.1690   22.0020  -25.9860 C.3   246  ASP246      0.1424
    127  CG        35.7350   23.1860  -26.7550 C.2   246  ASP246      0.3668
    128  OD1       36.4870   23.9770  -26.1600 O.co2 246  ASP246     -0.2456
    129  OD2       35.3660   23.3540  -27.9260 O.co2 246  ASP246     -0.2456
    130  N         38.6060   21.3850  -25.4700 N.am  247  GLY247     -0.1957
    131  CA        39.9410   21.0860  -25.9960 C.3   247  GLY247      0.1869
    132  C         40.1990   19.5810  -25.9970 C.2   247  GLY247      0.2309
    133  O         40.8250   19.0520  -26.9190 O.2   247  GLY247     -0.2863
    134  N         29.9610   22.8850  -36.4650 N.3   331  LYS331     -0.1245
    135  CA        29.5150   24.2740  -36.3460 C.3   331  LYS331      0.1561
    136  C         28.6400   24.7600  -37.5060 C.2   331  LYS331      0.2260
    137  O         28.3890   25.9580  -37.5950 O.2   331  LYS331     -0.2867
    138  CB        30.7370   25.1890  -36.1480 C.3   331  LYS331      0.0271
    139  CG        31.3330   25.0750  -34.7450 C.3   331  LYS331      0.0035
    140  CD        32.2030   26.2820  -34.4240 C.3   331  LYS331      0.0206
    141  CE        32.8110   26.2730  -33.0440 C.3   331  LYS331      0.1093
    142  NZ        33.9460   25.3200  -32.9720 N.3   331  LYS331     -0.1314
@<TRIPOS>BOND
     1    14    15    2
     2    14    13    1
     3    12    13    1
     4    13    16    1
     5    16    17    1
     6     3     4    2
     7     3     2    1
     8     1     2    1
     9     2     5    1
    10    17    18    1
    11     5     6    1
    12    18    19    1
    13    28    27    1
    14     6     7    1
    15    19    20    2
    16    37    35   ar
    17    37    39   ar
    18    27    24    1
    19    23    24    1
    20     7     8    1
    21    40    39    1
    22    22    20    1
    23    20    21    1
    24    35    34   ar
    25    39    38   ar
    26    24    25    1
    27   137   136    2
    28   136   135    1
    29     8     9    2
    30    29    25   am
    31    29    30    1
    32    34    33    1
    33    34    36   ar
    34    25    26    2
    35    38    36   ar
    36   134   135    1
    37    11     9    1
    38   135   138    1
    39    33    30    1
    40     9    10    1
    41   138   139    1
    42    32    31    2
    43    30    31    1
    44    57    54    1
    45    50    49    2
    46    49    48    1
    47    52    51    1
    48    53    54    1
    49    31    41   am
    50   139   140    1
    51    63    62    1
    52    54    55    1
    53   140   141    1
    54    51    48    1
    55    48    47    1
    56    41    42    1
    57    58    55   am
    58    58    59    1
    59    47    43   am
    60    55    56    2
    61    44    43    2
    62    43    42    1
    63    62    59    1
    64    42    45    1
    65   141   142    1
    66    59    60    1
    67    45    46    1
    68    60    61    2
    69    60    64   am
    70    64    65    1
    71   114   113    1
    72    70    68    1
    73   121   120    1
    74   120   117    1
    75   113   115    1
    76   113   112    2
    77    65    68    1
    78    65    66    1
    79    69    68    1
    80    71    66   am
    81    71    72    1
    82    75    76    1
    83    75    72    1
    84   112   111    1
    85   111   110    1
    86    66    67    2
    87   129   127   ar
    88   117   118    1
    89   117   116    1
    90   118   119    2
    91   116   107   am
    92    92    90   ar
    93    72    73    1
    94    74    73    2
    95   109   110    1
    96   109   106    1
    97   133   132    2
    98   125   124    2
    99   127   128   ar
   100   127   126    1
   101    84    82   ar
   102   107   106    1
   103   107   108    2
   104    90    89    1
   105    90    91   ar
   106    89    86    1
   107   106   105    1
   108    83    82   ar
   109   132   131    1
   110   131   130    1
   111   126   123    1
   112   124   130   am
   113   124   123    1
   114   100   102   ar
   115   100    98   ar
   116    97    98    1
   117    97    94    1
   118    82    81    1
   119   102   103   ar
   120    98    99   ar
   121    85    86    1
   122    93    94    1
   123    93    87   am
   124   123   122    1
   125    86    87    1
   126   103   104    1
   127   103   101   ar
   128    99   101   ar
   129    94    95    1
   130    77    78    1
   131    87    88    2
   132    81    78    1
   133    78    79    1
   134    95    96    2
   135    79    80    2
