@<TRIPOS>MOLECULE
tmp/3smaB00.pdb
 211 205 0 0 0
SMALL
GASTEIGER

@<TRIPOS>ATOM
      1  N         14.7920   34.6710   66.7720 N.3     6  ARG6       -0.1245
      2  CA        14.7350   33.2450   67.1360 C.3     6  ARG6        0.1563
      3  C         16.1520   32.6760   67.3190 C.2     6  ARG6        0.2260
      4  O         17.0370   32.9510   66.4940 O.2     6  ARG6       -0.2867
      5  CB        14.0010   32.4390   66.0570 C.3     6  ARG6        0.0307
      6  CG        12.5260   32.7850   65.8830 C.3     6  ARG6        0.0489
      7  CD        11.9490   32.0350   64.6900 C.3     6  ARG6        0.2205
      8  NE        12.7270   32.2830   63.4710 N.pl3   6  ARG6       -0.0865
      9  CZ        12.4960   31.7090   62.2960 C.cat   6  ARG6        0.5346
     10  NH1       11.5070   30.8330   62.1610 N.pl3   6  ARG6        0.1354
     11  NH2       13.2520   32.0050   61.2460 N.pl3   6  ARG6        0.1354
     12  N          1.9880   17.8290   74.4380 N.3    32  HIS32      -0.1226
     13  CA         1.1990   18.8550   73.7860 C.3    32  HIS32       0.1752
     14  C          2.2570   19.8650   73.3920 C.2    32  HIS32       0.2596
     15  O          2.8360   20.5350   74.2500 O.2    32  HIS32      -0.2718
     16  CB         0.1560   19.4280   74.7910 C.3    32  HIS32       0.0759
     17  CG        -0.7400   18.3860   75.3740 C.ar   32  HIS32       0.0818
     18  ND1       -1.7830   17.8430   74.6460 N.ar   32  HIS32      -0.2268
     19  CD2       -0.7180   17.8070   76.6010 C.ar   32  HIS32       0.1154
     20  CE1       -2.3890   16.9900   75.4620 C.ar   32  HIS32       0.1986
     21  NE2       -1.7860   16.9350   76.6470 N.ar   32  HIS32      -0.2212
     22  N          2.6190   19.8780   72.1090 N.am   33  ALA33      -0.1966
     23  CA         3.7220   20.7170   71.6280 C.3    33  ALA33       0.1728
     24  C          3.3620   21.8090   70.6330 C.2    33  ALA33       0.2617
     25  O          2.4920   21.6260   69.7930 O.2    33  ALA33      -0.2715
     26  CB         4.7950   19.8440   71.0140 C.3    33  ALA33       0.0334
     27  N          4.1430   22.9020   70.6720 N.am   34  SER34      -0.1936
     28  CA         4.1470   23.9870   69.6930 C.3    34  SER34       0.2055
     29  C          5.5500   24.0400   69.1110 C.2    34  SER34       0.2643
     30  O          6.5130   24.2050   69.8600 O.2    34  SER34      -0.2714
     31  CB         3.8330   25.3320   70.3330 C.3    34  SER34       0.2130
     32  OG         4.2400   26.3410   69.4120 O.3    34  SER34      -0.2179
     33  N          5.6870   23.9280   67.7920 N.am   35  LEU35      -0.1963
     34  CA         7.0180   23.9900   67.1480 C.3    35  LEU35       0.1728
     35  C          7.5750   25.4080   67.1270 C.2    35  LEU35       0.2616
     36  O          8.7480   25.5990   67.4080 O.2    35  LEU35      -0.2715
     37  CB         6.9720   23.3710   65.7200 C.3    35  LEU35       0.0311
     38  CG         8.2520   23.4610   64.8760 C.3    35  LEU35       0.0022
     39  CD1        9.4370   22.7340   65.5430 C.3    35  LEU35       0.0001
     40  CD2        7.9990   22.9770   63.4240 C.3    35  LEU35       0.0001
     41  N          6.7490   26.3970   66.7950 N.am   36  SER36      -0.1950
     42  CA         7.1940   27.7930   66.7230 C.3    36  SER36       0.1924
     43  C          7.7050   28.3580   68.0780 C.2    36  SER36       0.2314
     44  O          8.5930   29.2120   68.0850 O.2    36  SER36      -0.2863
     45  CB         6.0970   28.6760   66.1380 C.3    36  SER36       0.2116
     46  OG         4.9120   28.6460   66.9160 O.3    36  SER36      -0.2180
     47  N         11.8020   27.9980   69.1800 N.3    39  GLY39      -0.1210
     48  CA        12.8070   28.8950   68.6100 C.3    39  GLY39       0.1956
     49  C         12.9220   28.5430   67.1400 C.2    39  GLY39       0.2612
     50  O         11.8940   28.3980   66.4860 O.2    39  GLY39      -0.2717
     51  N         14.1470   28.3710   66.6200 N.am   40  TRP40      -0.1962
     52  CA        14.4000   27.8440   65.2690 C.3    40  TRP40       0.1771
     53  C         15.0050   26.4430   65.4700 C.2    40  TRP40       0.2619
     54  O         16.0910   26.2900   65.9980 O.2    40  TRP40      -0.2715
     55  CB        15.2860   28.7470   64.3720 C.3    40  TRP40       0.0590
     56  CG        15.3470   28.2010   62.9670 C.ar   40  TRP40       0.0006
     57  CD1       14.3640   28.2760   62.0240 C.ar   40  TRP40       0.0946
     58  CD2       16.3150   27.2700   62.4590 C.ar   40  TRP40       0.0152
     59  NE1       14.7200   27.5400   60.9110 N.ar   40  TRP40      -0.2442
     60  CE2       15.8970   26.8900   61.1660 C.ar   40  TRP40       0.0810
     61  CE3       17.5160   26.7450   62.9590 C.ar   40  TRP40       0.0012
     62  CZ2       16.6590   26.0350   60.3520 C.ar   40  TRP40       0.0191
     63  CZ3       18.2860   25.9310   62.1370 C.ar   40  TRP40       0.0001
     64  CH2       17.8490   25.5740   60.8570 C.ar   40  TRP40       0.0015
     65  N         14.2470   25.4230   65.1610 N.am   41  VAL41      -0.1977
     66  CA        14.7170   24.0710   65.4090 C.3    41  VAL41       0.1596
     67  C         15.4710   23.5610   64.2040 C.2    41  VAL41       0.2287
     68  O         14.9180   23.5140   63.1010 O.2    41  VAL41      -0.2864
     69  CB        13.5630   23.1260   65.8080 C.3    41  VAL41       0.0276
     70  CG1       14.1000   21.7310   66.1390 C.3    41  VAL41       0.0022
     71  CG2       12.8000   23.6870   66.9970 C.3    41  VAL41       0.0022
     72  N         13.6340   20.9850   62.2770 N.3    44  GLY44      -0.1225
     73  CA        12.2180   21.2270   62.5290 C.3    44  GLY44       0.1811
     74  C         11.5150   20.1940   63.3720 C.2    44  GLY44       0.2280
     75  O         12.0910   19.7010   64.3490 O.2    44  GLY44      -0.2866
     76  N         -1.9970   13.6700   71.1800 N.3    65  PRO65      -0.2116
     77  CA        -3.3260   13.7190   70.5220 C.3    65  PRO65       0.1372
     78  C         -3.1490   13.8430   68.9950 C.2    65  PRO65       0.2244
     79  O         -2.2590   14.5610   68.5260 O.2    65  PRO65      -0.2868
     80  CB        -4.0180   14.9530   71.1320 C.3    65  PRO65       0.0268
     81  CG        -3.1010   15.4130   72.2960 C.3    65  PRO65       0.0207
     82  CD        -1.7230   14.8840   71.9850 C.3    65  PRO65       0.0892
     83  N         -6.0100   14.3410   66.8510 N.3    67  PHE67      -0.1241
     84  CA        -7.4150   14.6220   66.5750 C.3    67  PHE67       0.1605
     85  C         -7.6580   15.0370   65.1330 C.2    67  PHE67       0.2264
     86  O         -6.8420   15.7380   64.5210 O.2    67  PHE67      -0.2867
     87  CB        -7.9800   15.6750   67.5410 C.3    67  PHE67       0.0534
     88  CG        -7.9570   15.3730   69.0200 C.ar   67  PHE67      -0.0203
     89  CD1       -7.5260   14.1310   69.4960 C.ar   67  PHE67      -0.0042
     90  CD2       -8.3960   16.3170   69.9440 C.ar   67  PHE67      -0.0042
     91  CE1       -7.5350   13.8470   70.8610 C.ar   67  PHE67      -0.0003
     92  CE2       -8.4120   16.0250   71.3040 C.ar   67  PHE67      -0.0003
     93  CZ        -7.9450   14.7990   71.7520 C.ar   67  PHE67      -0.0000
     94  N         -5.5130   21.0190   63.9970 N.3   106  GLY106     -0.1210
     95  CA        -5.2400   21.7930   65.2050 C.3   106  GLY106      0.1956
     96  C         -4.2580   21.1730   66.1870 C.2   106  GLY106      0.2612
     97  O         -4.1360   21.6650   67.3180 O.2   106  GLY106     -0.2717
     98  N         -3.5550   20.0830   65.7730 N.am  107  MET107     -0.1965
     99  CA        -2.6370   19.3200   66.6420 C.3   107  MET107      0.1736
    100  C         -1.1910   19.7810   66.6330 C.2   107  MET107      0.2617
    101  O         -0.4530   19.4990   67.5870 O.2   107  MET107     -0.2715
    102  CB        -2.7400   17.7810   66.3940 C.3   107  MET107      0.0427
    103  CG        -4.0950   17.1850   66.6660 C.3   107  MET107      0.0599
    104  SD        -4.7300   17.2560   68.3860 S.3   107  MET107     -0.1393
    105  CE        -5.5570   18.8070   68.3370 C.3   107  MET107      0.0692
    106  N         -0.8080   20.4650   65.5630 N.am  108  GLY108     -0.1940
    107  CA         0.5320   20.9740   65.3460 C.3   108  GLY108      0.2014
    108  C          1.4250   20.0730   64.5220 C.2   108  GLY108      0.2639
    109  O          1.1780   18.8590   64.4060 O.2   108  GLY108     -0.2714
    110  N          2.5130   20.6870   63.9720 N.am  109  ALA109     -0.1963
    111  CA         3.5730   20.0550   63.1840 C.3   109  ALA109      0.1728
    112  C          4.2200   18.8330   63.8580 C.2   109  ALA109      0.2616
    113  O          4.5120   17.8570   63.1740 O.2   109  ALA109     -0.2715
    114  CB         4.6510   21.0850   62.8440 C.3   109  ALA109      0.0334
    115  N          4.4220   18.8690   65.1890 N.am  110  VAL110     -0.1977
    116  CA         5.0910   17.8000   65.9340 C.3   110  VAL110      0.1596
    117  C          4.2470   16.5420   65.9210 C.2   110  VAL110      0.2287
    118  O          4.7820   15.4960   65.5440 O.2   110  VAL110     -0.2864
    119  CB         5.5640   18.2460   67.3590 C.3   110  VAL110      0.0276
    120  CG1        6.0880   17.0630   68.1980 C.3   110  VAL110      0.0022
    121  CG2        6.6530   19.3210   67.2440 C.3   110  VAL110      0.0022
    122  N        -12.7230   10.5830   75.2690 N.3   150  LEU150     -0.1245
    123  CA       -11.6180   11.1340   76.0640 C.3   150  LEU150      0.1561
    124  C        -11.8090   10.7590   77.5420 C.2   150  LEU150      0.2260
    125  O        -11.4820   11.5520   78.4470 O.2   150  LEU150     -0.2867
    126  CB       -11.4720   12.6620   75.8740 C.3   150  LEU150      0.0270
    127  CG       -11.0750   13.1190   74.4710 C.3   150  LEU150      0.0019
    128  CD1      -11.1970   14.6480   74.3000 C.3   150  LEU150      0.0001
    129  CD2       -9.7030   12.6660   74.1240 C.3   150  LEU150      0.0001
    130  N          5.4670   24.7120   75.1800 N.3   170  GLY170     -0.1210
    131  CA         5.2080   25.9380   74.4240 C.3   170  GLY170      0.1956
    132  C          3.7500   26.2950   74.2280 C.2   170  GLY170      0.2612
    133  O          3.4290   27.2150   73.4740 O.2   170  GLY170     -0.2717
    134  N          2.8680   25.6010   74.9450 N.am  171  CYS171     -0.1970
    135  CA         1.4320   25.8290   74.9700 C.3   171  CYS171      0.1712
    136  C          1.0070   25.6500   76.4180 C.2   171  CYS171      0.2296
    137  O          1.7810   25.1240   77.2240 O.2   171  CYS171     -0.2864
    138  CB         0.6980   24.8750   74.0360 C.3   171  CYS171      0.0983
    139  SG         0.8340   23.1410   74.5030 S.3   171  CYS171     -0.0798
    140  N         -4.9090   25.6080   77.9940 N.3   174  GLU174     -0.1231
    141  CA        -5.9440   25.5450   76.9360 C.3   174  GLU174      0.1699
    142  C         -5.8010   24.2630   76.0550 C.2   174  GLU174      0.2593
    143  O         -6.7610   23.8680   75.4110 O.2   174  GLU174     -0.2718
    144  CB        -5.9280   26.8150   76.0460 C.3   174  GLU174      0.0402
    145  CG        -4.7780   26.9330   75.0370 C.3   174  GLU174      0.1161
    146  CD        -3.3730   27.0220   75.6080 C.2   174  GLU174      0.3649
    147  OE1       -3.2220   27.4680   76.7710 O.co2 174  GLU174     -0.2457
    148  OE2       -2.4210   26.6440   74.8860 O.co2 174  GLU174     -0.2457
    149  N         -4.6210   23.6020   76.0740 N.am  175  SER175     -0.1938
    150  CA        -4.3580   22.4050   75.2740 C.3   175  SER175      0.2055
    151  C         -4.2580   21.1580   76.1220 C.2   175  SER175      0.2643
    152  O         -3.8160   20.1150   75.6200 O.2   175  SER175     -0.2714
    153  CB        -3.0520   22.5820   74.4890 C.3   175  SER175      0.2130
    154  OG        -3.1880   23.6380   73.5590 O.3   175  SER175     -0.2179
    155  N         -4.7200   21.2300   77.3680 N.am  176  ASN176     -0.1957
    156  CA        -4.5650   20.1370   78.3220 C.3   176  ASN176      0.1819
    157  C         -5.6960   19.1060   78.2890 C.2   176  ASN176      0.2621
    158  O         -6.6580   19.1980   79.0720 O.2   176  ASN176     -0.2715
    159  CB        -4.2880   20.7140   79.7250 C.3   176  ASN176      0.1195
    160  CG        -3.8270   19.7260   80.7530 C.2   176  ASN176      0.2630
    161  OD1       -4.3810   19.6480   81.8590 O.2   176  ASN176     -0.2716
    162  ND2       -2.7960   18.9680   80.4280 N.am  176  ASN176     -0.0877
    163  N         -5.5590   18.1130   77.3830 N.am  177  THR177     -0.1951
    164  CA        -6.5610   17.0610   77.1500 C.3   177  THR177      0.1897
    165  C         -6.9460   16.2900   78.3990 C.2   177  THR177      0.2313
    166  O         -8.1190   15.8970   78.5200 O.2   177  THR177     -0.2863
    167  CB        -6.1760   16.0790   76.0040 C.3   177  THR177      0.1794
    168  OG1       -5.5000   16.7510   74.9420 O.3   177  THR177     -0.2208
    169  CG2       -7.4070   15.3760   75.4110 C.3   177  THR177      0.0378
    170  N        -10.2710   16.4660   80.2940 N.3   180  HIS180     -0.1241
    171  CA       -11.4720   15.7550   79.8300 C.3   180  HIS180      0.1621
    172  C        -11.6910   14.4510   80.5600 C.2   180  HIS180      0.2264
    173  O        -12.8490   14.0640   80.7630 O.2   180  HIS180     -0.2867
    174  CB       -11.5020   15.5490   78.3040 C.3   180  HIS180      0.0745
    175  CG       -11.5010   16.8310   77.5420 C.ar  180  HIS180      0.0817
    176  ND1      -12.4330   17.8110   77.7940 N.ar  180  HIS180     -0.2268
    177  CD2      -10.6060   17.2990   76.6440 C.ar  180  HIS180      0.1154
    178  CE1      -12.1120   18.8300   77.0060 C.ar  180  HIS180      0.1986
    179  NE2      -11.0270   18.5650   76.2880 N.ar  180  HIS180     -0.2212
    180  N        -18.3380   19.1040   77.2210 N.3   216  TYR216     -0.1241
    181  CA       -17.1110   19.5900   77.8320 C.3   216  TYR216      0.1605
    182  C        -17.2580   21.0770   78.1140 C.2   216  TYR216      0.2264
    183  O        -17.8550   21.8030   77.3160 O.2   216  TYR216     -0.2867
    184  CB       -15.8960   19.3880   76.8750 C.3   216  TYR216      0.0534
    185  CG       -15.6780   17.9790   76.3690 C.ar  216  TYR216     -0.0201
    186  CD1      -16.0820   16.8730   77.1180 C.ar  216  TYR216     -0.0009
    187  CD2      -14.9990   17.7460   75.1810 C.ar  216  TYR216     -0.0009
    188  CE1      -15.8590   15.5700   76.6640 C.ar  216  TYR216      0.0417
    189  CE2      -14.7330   16.4520   74.7410 C.ar  216  TYR216      0.0417
    190  CZ       -15.1620   15.3700   75.4850 C.ar  216  TYR216      0.1957
    191  OH       -14.8900   14.1120   75.0460 O.3   216  TYR216     -0.2866
    192  N        -14.7120   24.2730   78.9460 N.3   218  GLU218     -0.1245
    193  CA       -13.2770   24.6050   78.8480 C.3   218  GLU218      0.1567
    194  C        -12.9050   25.9920   79.3690 C.2   218  GLU218      0.2260
    195  O        -11.7160   26.3140   79.3890 O.2   218  GLU218     -0.2867
    196  CB       -12.8170   24.5010   77.3750 C.3   218  GLU218      0.0388
    197  CG       -13.1380   23.1680   76.7080 C.3   218  GLU218      0.1160
    198  CD       -12.9190   23.0620   75.2090 C.2   218  GLU218      0.3649
    199  OE1      -12.3840   24.0190   74.6000 O.co2 218  GLU218     -0.2457
    200  OE2      -13.2860   22.0070   74.6420 O.co2 218  GLU218     -0.2457
    201  N        -10.2010   26.0900   82.4060 N.3   221  PHE221     -0.1241
    202  CA        -8.9410   25.3750   82.1700 C.3   221  PHE221      0.1605
    203  C         -7.7180   26.0490   82.7430 C.2   221  PHE221      0.2264
    204  O         -6.9380   25.3980   83.4230 O.2   221  PHE221     -0.2867
    205  CB        -8.7530   25.0370   80.6720 C.3   221  PHE221      0.0534
    206  CG        -9.4820   23.7830   80.2380 C.ar  221  PHE221     -0.0203
    207  CD1      -10.5010   23.2420   81.0170 C.ar  221  PHE221     -0.0042
    208  CD2       -9.1320   23.1270   79.0620 C.ar  221  PHE221     -0.0042
    209  CE1      -11.1420   22.0560   80.6340 C.ar  221  PHE221     -0.0003
    210  CE2       -9.7940   21.9550   78.6720 C.ar  221  PHE221     -0.0003
    211  CZ       -10.7980   21.4380   79.4540 C.ar  221  PHE221     -0.0000
@<TRIPOS>BOND
     1    62    64   ar
     2    62    60   ar
     3    64    63   ar
     4    59    60   ar
     5    59    57   ar
     6    60    58   ar
     7    11     9    1
     8    57    56   ar
     9    63    61   ar
    10    10     9    1
    11    72    73    1
    12     9     8    2
    13    58    61   ar
    14    58    56   ar
    15    73    74    1
    16   114   111    1
    17    56    55    1
    18    68    67    2
    19   113   112    2
    20   111   112    1
    21   111   110    1
    22    74    75    2
    23    40    38    1
    24     8     7    1
    25   112   115   am
    26   110   108   am
    27    94    95    1
    28    67    66    1
    29    55    52    1
    30   109   108    2
    31    86    85    2
    32   108   107    1
    33     7     6    1
    34    38    39    1
    35    38    37    1
    36    85    84    1
    37    65    66    1
    38    65    53   am
    39   115   116    1
    40    95    96    1
    41    52    53    1
    42    52    51    1
    43   107   106    1
    44    66    69    1
    45    53    54    2
    46   118   117    2
    47   106   100   am
    48    37    34    1
    49    98    96   am
    50    98    99    1
    51    69    70    1
    52    69    71    1
    53     6     5    1
    54   117   116    1
    55   116   119    1
    56     5     2    1
    57    45    42    1
    58    45    46    1
    59    96    97    2
    60   102    99    1
    61   102   103    1
    62    50    49    2
    63     4     3    2
    64    84    83    1
    65    84    87    1
    66    51    49   am
    67   100    99    1
    68   100   101    2
    69   103   104    1
    70    42    41    1
    71    42    43    1
    72     1     2    1
    73    41    35   am
    74    35    34    1
    75    35    36    2
    76     2     3    1
    77    49    48    1
    78    34    33    1
    79   121   119    1
    80   119   120    1
    81    87    88    1
    82    33    29   am
    83    43    44    2
    84   105   104    1
    85    79    78    2
    86    48    47    1
    87    78    77    1
    88    88    89   ar
    89    88    90   ar
    90    29    28    1
    91    29    30    2
    92    32    31    1
    93    89    91   ar
    94    28    31    1
    95    28    27    1
    96    25    24    2
    97    90    92   ar
    98    77    80    1
    99    77    76    1
   100    24    27   am
   101    24    23    1
   102    91    93   ar
   103    26    23    1
   104    80    81    1
   105    76    82    1
   106    92    93   ar
   107    23    22    1
   108    82    81    1
   109    22    14   am
   110    14    13    1
   111    14    15    2
   112   133   132    2
   113   154   153    1
   114    13    12    1
   115    13    16    1
   116   138   139    1
   117   138   135    1
   118   129   127    1
   119   132   131    1
   120   132   134   am
   121   128   127    1
   122   131   130    1
   123   127   126    1
   124   153   150    1
   125   199   198   ar
   126   200   198   ar
   127    18    17   ar
   128    18    20   ar
   129   189   187   ar
   130   189   190   ar
   131    16    17    1
   132   148   146   ar
   133   168   167    1
   134   134   135    1
   135   135   136    1
   136   145   146    1
   137   145   144    1
   138   191   190    1
   139   187   185   ar
   140   198   197    1
   141   122   123    1
   142   150   149    1
   143   150   151    1
   144    17    19   ar
   145   143   142    2
   146   169   167    1
   147    20    21   ar
   148   190   188   ar
   149   146   147   ar
   150   152   151    2
   151   126   123    1
   152   167   164    1
   153   144   141    1
   154   142   149   am
   155   142   141    1
   156   123   124    1
   157   151   155   am
   158   179   177   ar
   159   179   178   ar
   160   185   184    1
   161   185   186   ar
   162   136   137    2
   163    19    21   ar
   164   177   175   ar
   165   188   186   ar
   166   197   196    1
   167   184   181    1
   168   141   140    1
   169   178   176   ar
   170   164   163    1
   171   164   165    1
   172   180   181    1
   173   183   182    2
   174   155   156    1
   175   196   193    1
   176   163   157   am
   177   175   176   ar
   178   175   174    1
   179   124   125    2
   180   181   182    1
   181   157   156    1
   182   157   158    2
   183   174   171    1
   184   156   159    1
   185   165   166    2
   186   210   208   ar
   187   210   211   ar
   188   193   192    1
   189   193   194    1
   190   208   206   ar
   191   194   195    2
   192   211   209   ar
   193   159   160    1
   194   171   170    1
   195   171   172    1
   196   206   205    1
   197   206   207   ar
   198   162   160   am
   199   172   173    2
   200   209   207   ar
   201   205   202    1
   202   160   161    2
   203   202   201    1
   204   202   203    1
   205   203   204    2
