@<TRIPOS>MOLECULE
tmp/3smcA00.pdb
 93 91 0 0 0
SMALL
GASTEIGER

@<TRIPOS>ATOM
      1  N        -47.6780   34.9030   23.7760 N.3     1  PRO1       -0.2102
      2  CA       -48.1860   34.7830   25.1460 C.3     1  PRO1        0.1504
      3  C        -48.6410   36.1450   25.6570 C.2     1  PRO1        0.2575
      4  O        -48.0130   37.1650   25.3710 O.2     1  PRO1       -0.2718
      5  CB       -46.9750   34.2740   25.9380 C.3     1  PRO1        0.0282
      6  CG       -45.9690   33.8470   24.8800 C.3     1  PRO1        0.0208
      7  CD       -46.2110   34.8230   23.7700 C.3     1  PRO1        0.0893
      8  N        -49.7260   36.1530   26.4210 N.am    2  MET2       -0.1980
      9  CA       -50.2590   37.3840   26.9830 C.3     2  MET2        0.1605
     10  C        -50.5260   37.1480   28.4600 C.2     2  MET2        0.2287
     11  O        -51.2970   36.2540   28.8110 O.2     2  MET2       -0.2864
     12  CB       -51.5790   37.7490   26.3040 C.3     2  MET2        0.0413
     13  CG       -51.5090   37.8680   24.7930 C.3     2  MET2        0.0598
     14  SD       -53.1690   37.9510   24.0900 S.3     2  MET2       -0.1393
     15  CE       -53.0220   36.7830   22.7350 C.3     2  MET2        0.0692
     16  N        -40.9850   30.9440   24.3770 N.3    32  LYS32      -0.1231
     17  CA       -41.2430   31.8280   23.2460 C.3    32  LYS32       0.1678
     18  C        -40.3680   33.0780   23.3330 C.2    32  LYS32       0.2434
     19  O        -39.9770   33.4940   24.4230 O.2    32  LYS32      -0.2733
     20  CB       -42.7230   32.2200   23.2110 C.3    32  LYS32       0.0284
     21  CG       -43.6550   31.0250   23.0320 C.3    32  LYS32       0.0035
     22  CD       -45.1090   31.4420   22.9490 C.3    32  LYS32       0.0206
     23  CE       -46.0190   30.2390   22.7270 C.3    32  LYS32       0.1093
     24  NZ       -45.8530   29.6500   21.3690 N.3    32  LYS32      -0.1314
     25  N        -40.0430   33.6880   22.1820 N.am   33  PRO33      -0.2729
     26  CA       -39.2060   34.8950   22.1470 C.3    33  PRO33       0.1401
     27  C        -39.8460   36.0300   22.9350 C.2    33  PRO33       0.2269
     28  O        -41.0520   36.2600   22.8300 O.2    33  PRO33      -0.2865
     29  CB       -39.1270   35.2230   20.6560 C.3    33  PRO33       0.0296
     30  CG       -39.3300   33.8820   19.9910 C.3    33  PRO33       0.0237
     31  CD       -40.4400   33.2910   20.8200 C.3    33  PRO33       0.0939
     32  N        -42.4490   38.6150   21.4520 N.3    36  TYR36      -0.1241
     33  CA       -43.8710   38.3290   21.2900 C.3    36  TYR36       0.1605
     34  C        -44.6650   38.2650   22.5840 C.2    36  TYR36       0.2264
     35  O        -45.8640   37.9800   22.5720 O.2    36  TYR36      -0.2867
     36  CB       -44.0400   37.0200   20.5230 C.3    36  TYR36       0.0534
     37  CG       -43.5320   37.1190   19.1040 C.ar   36  TYR36      -0.0201
     38  CD1      -44.2450   37.8310   18.1390 C.ar   36  TYR36      -0.0009
     39  CD2      -42.3130   36.5510   18.7400 C.ar   36  TYR36      -0.0009
     40  CE1      -43.7520   37.9780   16.8410 C.ar   36  TYR36       0.0417
     41  CE2      -41.8100   36.6910   17.4470 C.ar   36  TYR36       0.0417
     42  CZ       -42.5340   37.4060   16.5040 C.ar   36  TYR36       0.1957
     43  OH       -42.0410   37.5580   15.2290 O.3    36  TYR36      -0.2866
     44  N        -52.6080   33.7510   28.3380 N.3    62  HIS62      -0.1226
     45  CA       -53.0530   33.2250   27.0530 C.3    62  HIS62       0.1752
     46  C        -51.8000   32.8560   26.2820 C.2    62  HIS62       0.2597
     47  O        -50.7990   33.5710   26.3360 O.2    62  HIS62      -0.2718
     48  CB       -53.8100   34.2750   26.2330 C.3    62  HIS62       0.0759
     49  CG       -55.1540   34.6370   26.7800 C.ar   62  HIS62       0.0818
     50  ND1      -55.3170   35.4510   27.8800 N.ar   62  HIS62      -0.2268
     51  CD2      -56.4000   34.3180   26.3590 C.ar   62  HIS62       0.1154
     52  CE1      -56.6060   35.6200   28.1110 C.ar   62  HIS62       0.1986
     53  NE2      -57.2850   34.9420   27.2030 N.ar   62  HIS62      -0.2212
     54  N        -51.8550   31.7450   25.5620 N.am   63  SER63      -0.1938
     55  CA       -50.7110   31.3090   24.7770 C.3    63  SER63       0.2055
     56  C        -51.1570   30.3290   23.7060 C.2    63  SER63       0.2642
     57  O        -52.0990   29.5640   23.9080 O.2    63  SER63      -0.2714
     58  CB       -49.6720   30.6450   25.6860 C.3    63  SER63       0.2130
     59  OG       -48.5390   30.2190   24.9470 O.3    63  SER63      -0.2179
     60  N        -50.5010   30.3800   22.5530 N.am   64  ILE64      -0.1977
     61  CA       -50.8140   29.4490   21.4800 C.3    64  ILE64       0.1596
     62  C        -49.9160   28.2650   21.8060 C.2    64  ILE64       0.2287
     63  O        -48.7180   28.2820   21.5170 O.2    64  ILE64      -0.2864
     64  CB       -50.4460   30.0240   20.0990 C.3    64  ILE64       0.0276
     65  CG1      -51.2080   31.3320   19.8650 C.3    64  ILE64       0.0022
     66  CG2      -50.7860   29.0090   19.0060 C.3    64  ILE64       0.0022
     67  CD1      -50.8970   32.0090   18.5390 C.3    64  ILE64       0.0001
     68  N        -54.8110   29.0520   23.2360 N.3   101  MET101     -0.1245
     69  CA       -55.4590   29.6450   22.0700 C.3   101  MET101      0.1570
     70  C        -55.1130   28.9950   20.7350 C.2   101  MET101      0.2261
     71  O        -53.9640   28.6210   20.4990 O.2   101  MET101     -0.2867
     72  CB       -55.0950   31.1330   21.9730 C.3   101  MET101      0.0387
     73  CG       -55.3770   31.9620   23.2160 C.3   101  MET101      0.0595
     74  SD       -57.1290   32.0400   23.6100 S.3   101  MET101     -0.1393
     75  CE       -57.7750   32.8630   22.1570 C.3   101  MET101      0.0692
     76  N        -56.1060   34.2590   17.1950 N.3   106  VAL106     -0.1245
     77  CA       -55.2520   35.3060   17.7410 C.3   106  VAL106      0.1561
     78  C        -54.8720   36.2650   16.6170 C.2   106  VAL106      0.2260
     79  O        -54.1000   35.9140   15.7180 O.2   106  VAL106     -0.2867
     80  CB       -53.9620   34.7350   18.3750 C.3   106  VAL106      0.0252
     81  CG1      -53.1030   35.8780   18.9100 C.3   106  VAL106      0.0019
     82  CG2      -54.3130   33.7770   19.5060 C.3   106  VAL106      0.0019
     83  N        -52.4630   34.3940   13.3640 N.3   113  PHE113     -0.1241
     84  CA       -51.3250   33.4850   13.3130 C.3   113  PHE113      0.1605
     85  C        -51.6170   32.1740   12.5840 C.2   113  PHE113      0.2264
     86  O        -50.7140   31.3670   12.3760 O.2   113  PHE113     -0.2867
     87  CB       -50.8290   33.2010   14.7330 C.3   113  PHE113      0.0534
     88  CG       -50.0710   34.3480   15.3430 C.ar  113  PHE113     -0.0203
     89  CD1      -48.7960   34.6760   14.8860 C.ar  113  PHE113     -0.0042
     90  CD2      -50.6350   35.1130   16.3540 C.ar  113  PHE113     -0.0042
     91  CE1      -48.0940   35.7540   15.4310 C.ar  113  PHE113     -0.0003
     92  CE2      -49.9440   36.1940   16.9060 C.ar  113  PHE113     -0.0003
     93  CZ       -48.6690   36.5140   16.4430 C.ar  113  PHE113     -0.0000
@<TRIPOS>BOND
     1    86    85    2
     2    85    84    1
     3    84    83    1
     4    84    87    1
     5    87    88    1
     6    89    88   ar
     7    89    91   ar
     8    43    42    1
     9    88    90   ar
    10    91    93   ar
    11    79    78    2
    12    90    92   ar
    13    93    92   ar
    14    42    40   ar
    15    42    41   ar
    16    78    77    1
    17    40    38   ar
    18    76    77    1
    19    41    39   ar
    20    77    80    1
    21    38    37   ar
    22    80    81    1
    23    80    82    1
    24    67    65    1
    25    39    37   ar
    26    66    64    1
    27    37    36    1
    28    65    64    1
    29    30    29    1
    30    30    31    1
    31    64    61    1
    32    71    70    2
    33    36    33    1
    34    29    26    1
    35    70    69    1
    36    31    25    1
    37    33    32    1
    38    33    34    1
    39    24    23    1
    40    61    62    1
    41    61    60    1
    42    63    62    2
    43    72    69    1
    44    72    73    1
    45    69    68    1
    46    26    25    1
    47    26    27    1
    48    75    74    1
    49    25    18   am
    50    60    56   am
    51    35    34    2
    52    23    22    1
    53    15    14    1
    54    28    27    2
    55    22    21    1
    56    21    20    1
    57    20    17    1
    58    73    74    1
    59    17    18    1
    60    17    16    1
    61    18    19    2
    62    56    57    2
    63    56    55    1
    64     7     1    1
    65     7     6    1
    66     1     2    1
    67    14    13    1
    68    55    54    1
    69    55    58    1
    70    13    12    1
    71     6     5    1
    72    59    58    1
    73     2     3    1
    74     2     5    1
    75     4     3    2
    76    54    46   am
    77     3     8   am
    78    48    49    1
    79    48    45    1
    80    46    47    2
    81    46    45    1
    82    12     9    1
    83    51    49   ar
    84    51    53   ar
    85     8     9    1
    86    49    50   ar
    87     9    10    1
    88    45    44    1
    89    53    52   ar
    90    50    52   ar
    91    10    11    2
