@<TRIPOS>MOLECULE
tmp/3smcC00.pdb
 86 83 0 0 0
SMALL
GASTEIGER

@<TRIPOS>ATOM
      1  N        -72.1880   40.7400   19.8150 N.3     1  PRO1       -0.2102
      2  CA       -70.7400   40.9410   19.6950 C.3     1  PRO1        0.1504
      3  C        -70.2290   41.8700   20.7950 C.2     1  PRO1        0.2575
      4  O        -70.8980   42.8380   21.1630 O.2     1  PRO1       -0.2718
      5  CB       -70.5850   41.5740   18.3080 C.3     1  PRO1        0.0282
      6  CG       -71.8760   41.2270   17.5940 C.3     1  PRO1        0.0208
      7  CD       -72.8880   41.3770   18.6900 C.3     1  PRO1        0.0893
      8  N        -69.0430   41.5690   21.3130 N.am    2  MET2       -0.1980
      9  CA       -68.4260   42.3720   22.3630 C.3     2  MET2        0.1605
     10  C        -66.9780   42.6200   21.9760 C.2     2  MET2        0.2287
     11  O        -66.2160   41.6680   21.8160 O.2     2  MET2       -0.2864
     12  CB       -68.4450   41.6180   23.6970 C.3     2  MET2        0.0413
     13  CG       -69.8250   41.2630   24.2250 C.3     2  MET2        0.0598
     14  SD       -69.7310   40.1200   25.6300 S.3     2  MET2       -0.1393
     15  CE       -70.8670   38.8290   25.0910 C.3     2  MET2        0.0692
     16  N        -74.2300   41.6920   12.3320 N.3    32  LYS32      -0.1245
     17  CA       -75.2090   41.8050   13.4110 C.3    32  LYS32       0.1561
     18  C        -75.6760   43.2500   13.5810 C.2    32  LYS32       0.2260
     19  O        -74.9030   44.1870   13.3790 O.2    32  LYS32      -0.2867
     20  CB       -74.6160   41.3350   14.7470 C.3    32  LYS32       0.0271
     21  CG       -74.5350   39.8300   14.9640 C.3    32  LYS32       0.0035
     22  CD       -73.1790   39.2610   14.5940 C.3    32  LYS32       0.0206
     23  CE       -72.8390   38.0590   15.4750 C.3    32  LYS32       0.1093
     24  NZ       -73.8820   36.9960   15.4270 N.3    32  LYS32      -0.1314
     25  N        -77.1640   45.3180   19.3160 N.3    36  TYR36      -0.1241
     26  CA       -76.6840   44.2250   20.1590 C.3    36  TYR36       0.1605
     27  C        -75.1760   44.2770   20.3810 C.2    36  TYR36       0.2264
     28  O        -74.6240   43.4510   21.1050 O.2    36  TYR36      -0.2867
     29  CB       -77.0230   42.8740   19.5250 C.3    36  TYR36       0.0534
     30  CG       -78.4480   42.7360   19.0400 C.ar   36  TYR36      -0.0201
     31  CD1      -79.5220   42.8400   19.9240 C.ar   36  TYR36      -0.0009
     32  CD2      -78.7220   42.4870   17.6940 C.ar   36  TYR36      -0.0009
     33  CE1      -80.8360   42.6970   19.4790 C.ar   36  TYR36       0.0417
     34  CE2      -80.0310   42.3420   17.2380 C.ar   36  TYR36       0.0417
     35  CZ       -81.0820   42.4480   18.1350 C.ar   36  TYR36       0.1957
     36  OH       -82.3750   42.3090   17.6850 O.3    36  TYR36      -0.2866
     37  N        -65.7210   38.9030   21.2470 N.3    62  HIS62      -0.1226
     38  CA       -66.5800   37.7730   21.5780 C.3    62  HIS62       0.1752
     39  C        -67.7870   37.8350   20.6520 C.2    62  HIS62       0.2597
     40  O        -68.3510   38.9050   20.4300 O.2    62  HIS62      -0.2718
     41  CB       -67.0780   37.8520   23.0250 C.3    62  HIS62       0.0759
     42  CG       -66.0100   37.6530   24.0540 C.ar   62  HIS62       0.0818
     43  ND1      -65.1480   38.6570   24.4380 N.ar   62  HIS62      -0.2268
     44  CD2      -65.6690   36.5640   24.7810 C.ar   62  HIS62       0.1154
     45  CE1      -64.3210   38.1950   25.3590 C.ar   62  HIS62       0.1986
     46  NE2      -64.6160   36.9280   25.5850 N.ar   62  HIS62      -0.2212
     47  N        -68.1860   36.6910   20.1190 N.am   63  SER63      -0.1938
     48  CA       -69.3300   36.6560   19.2270 C.3    63  SER63       0.2055
     49  C        -69.9260   35.2610   19.1840 C.2    63  SER63       0.2642
     50  O        -69.2070   34.2670   19.2820 O.2    63  SER63      -0.2714
     51  CB       -68.9050   37.0770   17.8160 C.3    63  SER63       0.2130
     52  OG       -69.9900   37.0130   16.9050 O.3    63  SER63      -0.2179
     53  N        -71.2470   35.1890   19.0710 N.am   64  ILE64      -0.1977
     54  CA       -71.9160   33.9020   18.9670 C.3    64  ILE64       0.1596
     55  C        -71.9090   33.6310   17.4650 C.2    64  ILE64       0.2287
     56  O        -72.7600   34.1290   16.7280 O.2    64  ILE64      -0.2864
     57  CB       -73.3700   33.9710   19.4850 C.3    64  ILE64       0.0276
     58  CG1      -73.3730   34.3490   20.9710 C.3    64  ILE64       0.0022
     59  CG2      -74.0620   32.6230   19.2850 C.3    64  ILE64       0.0022
     60  CD1      -74.7690   34.5310   21.5660 C.3    64  ILE64       0.0001
     61  N        -68.4540   32.2080   21.0870 N.3   101  MET101     -0.1245
     62  CA       -69.2450   31.8190   22.2510 C.3   101  MET101      0.1570
     63  C        -70.4620   30.9550   21.9560 C.2   101  MET101      0.2261
     64  O        -71.1650   31.1760   20.9730 O.2   101  MET101     -0.2867
     65  CB       -69.7330   33.0690   22.9970 C.3   101  MET101      0.0387
     66  CG       -68.6530   34.0730   23.3770 C.3   101  MET101      0.0595
     67  SD       -67.4460   33.3920   24.5180 S.3   101  MET101     -0.1393
     68  CE       -68.4750   33.0780   25.9780 C.3   101  MET101      0.0692
     69  N        -73.6610   32.8900   27.0240 N.3   106  VAL106     -0.1245
     70  CA       -73.7320   34.3430   26.9570 C.3   106  VAL106      0.1561
     71  C        -75.0300   34.7650   27.6280 C.2   106  VAL106      0.2260
     72  O        -76.1230   34.5200   27.1080 O.2   106  VAL106     -0.2867
     73  CB       -73.7130   34.8670   25.5080 C.3   106  VAL106      0.0252
     74  CG1      -73.7850   36.3880   25.5130 C.3   106  VAL106      0.0019
     75  CG2      -72.4430   34.4090   24.8040 C.3   106  VAL106      0.0019
     76  N        -78.6760   33.4280   25.6240 N.3   113  PHE113     -0.1241
     77  CA       -79.1370   33.4720   24.2430 C.3   113  PHE113      0.1605
     78  C        -79.4920   32.1110   23.6590 C.2   113  PHE113      0.2264
     79  O        -79.8900   32.0190   22.4970 O.2   113  PHE113     -0.2867
     80  CB       -78.0890   34.1650   23.3720 C.3   113  PHE113      0.0534
     81  CG       -78.0850   35.6580   23.5210 C.ar  113  PHE113     -0.0203
     82  CD1      -79.1600   36.4140   23.0620 C.ar  113  PHE113     -0.0042
     83  CD2      -77.0270   36.3080   24.1440 C.ar  113  PHE113     -0.0042
     84  CE1      -79.1830   37.8000   23.2220 C.ar  113  PHE113     -0.0003
     85  CE2      -77.0390   37.6910   24.3100 C.ar  113  PHE113     -0.0003
     86  CZ       -78.1200   38.4400   23.8480 C.ar  113  PHE113     -0.0000
@<TRIPOS>BOND
     1    16    17    1
     2    19    18    2
     3    17    18    1
     4    17    20    1
     5    22    21    1
     6    22    23    1
     7    20    21    1
     8    24    23    1
     9    56    55    2
    10    52    51    1
    11    34    32   ar
    12    34    35   ar
    13    55    54    1
    14     6     5    1
    15     6     7    1
    16    36    35    1
    17    32    30   ar
    18    51    48    1
    19    35    33   ar
    20     5     2    1
    21     7     1    1
    22    54    53    1
    23    54    57    1
    24    30    29    1
    25    30    31   ar
    26    53    49   am
    27    49    48    1
    28    49    50    2
    29    48    47    1
    30    59    57    1
    31    25    26    1
    32    33    31   ar
    33    57    58    1
    34    29    26    1
    35     2     1    1
    36     2     3    1
    37    47    39   am
    38    26    27    1
    39    27    28    2
    40    40    39    2
    41    39    38    1
    42     3     4    2
    43     3     8   am
    44    58    60    1
    45    64    63    2
    46    61    62    1
    47    37    38    1
    48     8     9    1
    49    38    41    1
    50    11    10    2
    51    63    62    1
    52    10     9    1
    53    62    65    1
    54     9    12    1
    55    79    78    2
    56    65    66    1
    57    41    42    1
    58    82    84   ar
    59    82    81   ar
    60    84    86   ar
    61    80    81    1
    62    80    77    1
    63    66    67    1
    64    81    83   ar
    65    78    77    1
    66    12    13    1
    67    86    85   ar
    68    42    43   ar
    69    42    44   ar
    70    83    85   ar
    71    13    14    1
    72    77    76    1
    73    43    45   ar
    74    67    68    1
    75    44    46   ar
    76    75    73    1
    77    15    14    1
    78    45    46   ar
    79    73    74    1
    80    73    70    1
    81    70    69    1
    82    70    71    1
    83    72    71    2
