@<TRIPOS>MOLECULE
tmp/3smiB00.pdb
 119 117 0 0 0
SMALL
GASTEIGER

@<TRIPOS>ATOM
      1  N         -0.8910    2.7640  -58.5790 N.3    69  HIS69      -0.1226
      2  CA        -0.9790    4.0970  -57.9790 C.3    69  HIS69       0.1752
      3  C         -0.3430    4.0940  -56.5870 C.2    69  HIS69       0.2597
      4  O         -0.9170    3.5530  -55.6430 O.2    69  HIS69      -0.2718
      5  CB        -2.4360    4.5910  -57.9120 C.3    69  HIS69       0.0759
      6  CG        -2.5610    6.0080  -57.4440 C.ar   69  HIS69       0.0818
      7  ND1       -2.6880    7.0510  -58.3400 N.ar   69  HIS69      -0.2268
      8  CD2       -2.5430    6.5130  -56.1870 C.ar   69  HIS69       0.1154
      9  CE1       -2.7630    8.1500  -57.6070 C.ar   69  HIS69       0.1986
     10  NE2       -2.6800    7.8750  -56.3060 N.ar   69  HIS69      -0.2212
     11  N          0.8310    4.7050  -56.4840 N.am   70  GLY70      -0.1942
     12  CA         1.5700    4.8210  -55.2370 C.3    70  GLY70       0.2014
     13  C          1.1430    6.0380  -54.4460 C.2    70  GLY70       0.2640
     14  O          1.1520    7.1550  -54.9670 O.2    70  GLY70      -0.2714
     15  N          0.7550    5.8330  -53.1880 N.am   71  THR71      -0.1936
     16  CA         0.3310    6.9390  -52.3300 C.3    71  THR71       0.2028
     17  C          0.9460    6.8180  -50.9350 C.2    71  THR71       0.2642
     18  O          1.5280    5.7850  -50.6030 O.2    71  THR71      -0.2714
     19  CB        -1.2040    7.0360  -52.2620 C.3    71  THR71       0.1808
     20  OG1       -1.5390    8.2760  -51.6430 O.3    71  THR71      -0.2208
     21  CG2       -1.8480    5.8830  -51.4910 C.3    71  THR71       0.0379
     22  N          0.7980    7.8790  -50.1220 N.am   72  ASP72      -0.1971
     23  CA         1.2570    7.9150  -48.7370 C.3    72  ASP72       0.1709
     24  C          0.2230    7.2020  -47.8610 C.2    72  ASP72       0.2293
     25  O         -0.9550    7.1390  -48.2330 O.2    72  ASP72      -0.2864
     26  CB         1.4890    9.3690  -48.2740 C.3    72  ASP72       0.1436
     27  CG         0.2250   10.2030  -48.1590 C.2    72  ASP72       0.3671
     28  OD1       -0.1060   10.6220  -47.0330 O.co2  72  ASP72      -0.2456
     29  OD2       -0.4320   10.4310  -49.1930 O.co2  72  ASP72      -0.2456
     30  N         -3.2640    8.8650  -47.0800 N.3    75  SER75      -0.1217
     31  CA        -4.2820    8.8890  -48.1270 C.3    75  SER75       0.1889
     32  C         -4.9930    7.5340  -48.2800 C.2    75  SER75       0.2288
     33  O         -6.0740    7.5020  -48.8590 O.2    75  SER75      -0.2866
     34  CB        -3.6680    9.3080  -49.4590 C.3    75  SER75       0.2089
     35  OG        -3.1040   10.6070  -49.3790 O.3    75  SER75      -0.2183
     36  N         -3.2440   10.2310  -61.7830 N.3    93  TYR93      -0.1227
     37  CA        -2.2560    9.4340  -62.5060 C.3    93  TYR93       0.1736
     38  C         -2.1890    7.9760  -62.0660 C.2    93  TYR93       0.2595
     39  O         -2.2550    7.6700  -60.8710 O.2    93  TYR93      -0.2718
     40  CB        -0.8720   10.0530  -62.3250 C.3    93  TYR93       0.0548
     41  CG        -0.5930   11.2100  -63.2520 C.ar   93  TYR93      -0.0200
     42  CD1        0.1670   11.0370  -64.4040 C.ar   93  TYR93      -0.0009
     43  CD2       -1.0810   12.4850  -62.9750 C.ar   93  TYR93      -0.0009
     44  CE1        0.4310   12.1010  -65.2630 C.ar   93  TYR93       0.0417
     45  CE2       -0.8330   13.5560  -63.8330 C.ar   93  TYR93       0.0417
     46  CZ        -0.0800   13.3560  -64.9790 C.ar   93  TYR93       0.1957
     47  OH         0.1870   14.3990  -65.8220 O.3    93  TYR93      -0.2866
     48  N         -2.0190    7.0830  -63.0560 N.am   94  PHE94      -0.1962
     49  CA        -1.8590    5.6430  -62.8720 C.3    94  PHE94       0.1771
     50  C         -0.7280    5.1650  -63.7840 C.2    94  PHE94       0.2619
     51  O         -0.5980    5.6650  -64.9030 O.2    94  PHE94      -0.2715
     52  CB        -3.1740    4.8920  -63.1360 C.3    94  PHE94       0.0574
     53  CG        -4.3230    5.3240  -62.2540 C.ar   94  PHE94      -0.0200
     54  CD1       -4.4860    4.7880  -60.9810 C.ar   94  PHE94      -0.0042
     55  CD2       -5.2450    6.2670  -62.6970 C.ar   94  PHE94      -0.0042
     56  CE1       -5.5390    5.2040  -60.1590 C.ar   94  PHE94      -0.0003
     57  CE2       -6.3050    6.6720  -61.8790 C.ar   94  PHE94      -0.0003
     58  CZ        -6.4420    6.1430  -60.6150 C.ar   94  PHE94      -0.0000
     59  N          0.1160    4.2420  -63.2930 N.am   95  ALA95      -0.1977
     60  CA         1.2670    3.7480  -64.0470 C.3    95  ALA95       0.1597
     61  C          1.0920    2.3160  -64.5240 C.2    95  ALA95       0.2287
     62  O          0.5170    1.4910  -63.8120 O.2    95  ALA95      -0.2864
     63  CB         2.5220    3.8440  -63.1970 C.3    95  ALA95       0.0319
     64  N          7.3680    2.8120  -61.3050 N.3   100  TYR100     -0.1227
     65  CA         7.0580    4.2350  -61.4440 C.3   100  TYR100      0.1736
     66  C          6.3330    4.7010  -60.1760 C.2   100  TYR100      0.2596
     67  O          6.7660    5.6650  -59.5440 O.2   100  TYR100     -0.2718
     68  CB         6.2080    4.4930  -62.7090 C.3   100  TYR100      0.0548
     69  CG         6.2860    5.9070  -63.2440 C.ar  100  TYR100     -0.0200
     70  CD1        5.7040    6.9700  -62.5560 C.ar  100  TYR100     -0.0009
     71  CD2        6.8970    6.1790  -64.4650 C.ar  100  TYR100     -0.0009
     72  CE1        5.7860    8.2770  -63.0380 C.ar  100  TYR100      0.0417
     73  CE2        6.9700    7.4800  -64.9660 C.ar  100  TYR100      0.0417
     74  CZ         6.4130    8.5250  -64.2480 C.ar  100  TYR100      0.1957
     75  OH         6.4650    9.8060  -64.7390 O.3   100  TYR100     -0.2866
     76  N          5.2720    3.9640  -59.7770 N.am  101  SER101     -0.1952
     77  CA         4.4690    4.2200  -58.5820 C.3   101  SER101      0.1924
     78  C          5.2430    3.9200  -57.2830 C.2   101  SER101      0.2314
     79  O          4.8820    4.4510  -56.2280 O.2   101  SER101     -0.2863
     80  CB         3.1920    3.3920  -58.6260 C.3   101  SER101      0.2116
     81  OG         2.3060    3.8910  -59.6120 O.3   101  SER101     -0.2180
     82  N          8.4120    9.6930  -53.9080 N.3   105  THR105     -0.1203
     83  CA         7.6100   10.9070  -54.1100 C.3   105  THR105      0.1994
     84  C          6.1230   10.5410  -54.2050 C.2   105  THR105      0.2617
     85  O          5.2740   11.3390  -53.8150 O.2   105  THR105     -0.2717
     86  CB         8.0780   11.6920  -55.3490 C.3   105  THR105      0.1784
     87  OG1        8.0770   10.8360  -56.4950 O.3   105  THR105     -0.2211
     88  CG2        9.4570   12.3240  -55.1620 C.3   105  THR105      0.0376
     89  N          5.8640    9.3180  -54.6200 N.am  106  TYR106     -0.1975
     90  CA         4.5220    8.8150  -54.7660 C.3   106  TYR106      0.1639
     91  C          4.1570    7.9930  -53.5770 C.2   106  TYR106      0.2290
     92  O          3.3450    8.3910  -52.8050 O.2   106  TYR106     -0.2864
     93  CB         4.3760    8.0310  -56.0680 C.3   106  TYR106      0.0560
     94  CG         4.6780    8.8590  -57.2830 C.ar  106  TYR106     -0.0198
     95  CD1        4.1660   10.1190  -57.4110 C.ar  106  TYR106     -0.0009
     96  CD2        5.4940    8.4060  -58.2660 C.ar  106  TYR106     -0.0009
     97  CE1        4.4340   10.8690  -58.4600 C.ar  106  TYR106      0.0417
     98  CE2        5.7610    9.1580  -59.3210 C.ar  106  TYR106      0.0417
     99  CZ         5.2210   10.3840  -59.4210 C.ar  106  TYR106      0.1957
    100  OH         5.4830   11.1560  -60.4820 O.3   106  TYR106     -0.2866
    101  N          5.3420    7.2650  -50.3830 N.3   108  ARG108     -0.1245
    102  CA         6.1020    7.6990  -49.2480 C.3   108  ARG108      0.1563
    103  C          6.2850    6.5690  -48.2640 C.2   108  ARG108      0.2260
    104  O          5.3620    5.8940  -47.9070 O.2   108  ARG108     -0.2867
    105  CB         5.2950    8.7810  -48.5520 C.3   108  ARG108      0.0307
    106  CG         5.7420   10.2200  -48.6320 C.3   108  ARG108      0.0489
    107  CD         5.0090   11.0380  -47.5500 C.3   108  ARG108      0.2205
    108  NE         4.0590   12.0200  -48.0800 N.pl3 108  ARG108     -0.0865
    109  CZ         3.1180   12.6470  -47.3780 C.cat 108  ARG108      0.5346
    110  NH1        2.9560   12.4110  -46.0970 N.pl3 108  ARG108      0.1354
    111  NH2        2.3310   13.5170  -47.9720 N.pl3 108  ARG108      0.1354
    112  N          1.9430    5.6350  -68.8370 N.3   155  LEU155     -0.1245
    113  CA         0.9390    6.0820  -67.9210 C.3   155  LEU155      0.1561
    114  C         -0.3690    6.5680  -68.4770 C.2   155  LEU155      0.2260
    115  O         -0.5180    6.7500  -69.6260 O.2   155  LEU155     -0.2867
    116  CB         1.5230    7.0640  -66.9420 C.3   155  LEU155      0.0270
    117  CG         2.2710    8.2730  -67.3700 C.3   155  LEU155      0.0019
    118  CD1        1.2850    9.3150  -67.4310 C.3   155  LEU155      0.0001
    119  CD2        3.2890    8.5880  -66.3630 C.3   155  LEU155      0.0001
@<TRIPOS>BOND
     1   115   114    2
     2   112   113    1
     3   114   113    1
     4   113   116    1
     5   118   117    1
     6   117   116    1
     7   117   119    1
     8    47    46    1
     9    44    46   ar
    10    44    42   ar
    11    46    45   ar
    12    73    71   ar
    13    73    74   ar
    14    51    50    2
    15    75    74    1
    16    61    60    1
    17    61    62    2
    18    71    69   ar
    19    42    41   ar
    20    74    72   ar
    21    60    59    1
    22    60    63    1
    23    45    43   ar
    24    50    59   am
    25    50    49    1
    26    41    43   ar
    27    41    40    1
    28    69    68    1
    29    69    70   ar
    30    52    49    1
    31    52    53    1
    32    48    49    1
    33    48    38   am
    34    72    70   ar
    35    68    65    1
    36    55    53   ar
    37    55    57   ar
    38    37    40    1
    39    37    38    1
    40    37    36    1
    41    53    54   ar
    42    38    39    2
    43    57    58   ar
    44    65    64    1
    45    65    66    1
    46    54    56   ar
    47    58    56   ar
    48   100    99    1
    49    66    76   am
    50    66    67    2
    51    76    77    1
    52    81    80    1
    53    99    98   ar
    54    99    97   ar
    55    98    96   ar
    56    80    77    1
    57    77    78    1
    58     1     2    1
    59    97    95   ar
    60     7     9   ar
    61     7     6   ar
    62    96    94   ar
    63     2     5    1
    64     2     3    1
    65     5     6    1
    66     9    10   ar
    67     6     8   ar
    68    95    94   ar
    69    94    93    1
    70    78    79    2
    71     3    11   am
    72     3     4    2
    73    87    86    1
    74    11    12    1
    75    10     8   ar
    76    93    90    1
    77    86    88    1
    78    86    83    1
    79    12    13    1
    80    14    13    2
    81    90    89    1
    82    90    91    1
    83    89    84   am
    84    13    15   am
    85    84    83    1
    86    84    85    2
    87    83    82    1
    88    91    92    2
    89    15    16    1
    90    16    19    1
    91    16    17    1
    92    19    20    1
    93    19    21    1
    94    17    18    2
    95    17    22   am
    96   101   102    1
    97    22    23    1
    98    34    35    1
    99    34    31    1
   100   102   105    1
   101   102   103    1
   102    29    27   ar
   103    33    32    2
   104    23    26    1
   105    23    24    1
   106   106   105    1
   107   106   107    1
   108    32    31    1
   109    26    27    1
   110   103   104    2
   111    25    24    2
   112    27    28   ar
   113    31    30    1
   114   108   107    1
   115   108   109    2
   116   111   109    1
   117   109   110    1
