@<TRIPOS>MOLECULE
tmp/3smjB00.pdb
 123 121 0 0 0
SMALL
GASTEIGER

@<TRIPOS>ATOM
      1  N         13.1900   -9.4810  -44.4050 N.3    67  HIS67      -0.1226
      2  CA        14.5410   -9.4040  -43.9100 C.3    67  HIS67       0.1752
      3  C         14.5770  -10.0570  -42.5090 C.2    67  HIS67       0.2597
      4  O         13.8730   -9.6210  -41.6000 O.2    67  HIS67      -0.2718
      5  CB        15.0120   -7.9510  -43.7560 C.3    67  HIS67       0.0759
      6  CG        16.4140   -7.8500  -43.3040 C.ar   67  HIS67       0.0818
      7  ND1       17.5070   -7.8690  -44.1410 N.ar   67  HIS67      -0.2268
      8  CD2       16.9260   -7.7840  -42.0390 C.ar   67  HIS67       0.1154
      9  CE1       18.6170   -7.8140  -43.4250 C.ar   67  HIS67       0.1986
     10  NE2       18.2790   -7.7600  -42.1460 N.ar   67  HIS67      -0.2212
     11  N         15.3350  -11.1280  -42.4160 N.am   68  GLY68      -0.1942
     12  CA        15.5140  -11.8700  -41.1580 C.3    68  GLY68       0.2014
     13  C         16.6410  -11.2630  -40.3750 C.2    68  GLY68       0.2639
     14  O         17.6790  -10.8560  -40.9030 O.2    68  GLY68      -0.2714
     15  N         16.4760  -11.2420  -39.0350 N.am   69  THR69      -0.1950
     16  CA        17.5170  -10.7110  -38.2050 C.3    69  THR69       0.1897
     17  C         17.6140  -11.4330  -36.8710 C.2    69  THR69       0.2313
     18  O         16.7420  -12.1850  -36.5410 O.2    69  THR69      -0.2863
     19  CB        17.3170   -9.2100  -38.0010 C.3    69  THR69       0.1794
     20  OG1       18.5960   -8.6730  -37.6470 O.3    69  THR69      -0.2208
     21  CG2       16.1850   -8.9070  -37.0240 C.3    69  THR69       0.0378
     22  N         23.6800   -0.8580  -38.5990 N.3    86  TYR86      -0.1241
     23  CA        22.9810   -2.1350  -38.5140 C.3    86  TYR86       0.1605
     24  C         24.0170   -3.2300  -38.7050 C.2    86  TYR86       0.2264
     25  O         24.8290   -3.1600  -39.6270 O.2    86  TYR86      -0.2867
     26  CB        21.8990   -2.2320  -39.5890 C.3    86  TYR86       0.0534
     27  CG        21.2650   -3.6000  -39.6980 C.ar   86  TYR86      -0.0201
     28  CD1       21.2380   -4.2810  -40.9070 C.ar   86  TYR86      -0.0009
     29  CD2       20.6930   -4.2110  -38.5900 C.ar   86  TYR86      -0.0009
     30  CE1       20.6590   -5.5320  -41.0110 C.ar   86  TYR86       0.0417
     31  CE2       20.1110   -5.4620  -38.6840 C.ar   86  TYR86       0.0417
     32  CZ        20.0970   -6.1170  -39.8960 C.ar   86  TYR86       0.1957
     33  OH        19.5200   -7.3620  -39.9950 O.3    86  TYR86      -0.2866
     34  N         23.5370   -6.5320  -39.4270 N.3    88  GLY88      -0.1225
     35  CA        23.2360   -7.6930  -40.2790 C.3    88  GLY88       0.1811
     36  C         23.6280   -7.5410  -41.7530 C.2    88  GLY88       0.2280
     37  O         22.8030   -7.8220  -42.6450 O.2    88  GLY88      -0.2866
     38  N         26.4410   -9.0350  -43.3660 N.3    90  ASN90      -0.1225
     39  CA        27.5410   -9.9150  -43.6790 C.3    90  ASN90       0.1785
     40  C         27.5690  -10.4220  -45.1300 C.2    90  ASN90       0.2597
     41  O         28.6330  -10.8030  -45.6460 O.2    90  ASN90      -0.2718
     42  CB        27.6280  -11.1090  -42.7110 C.3    90  ASN90       0.1169
     43  CG        28.2110  -10.7180  -41.3530 C.2    90  ASN90       0.2627
     44  OD1       27.4900  -10.1900  -40.5020 O.2    90  ASN90      -0.2716
     45  ND2       29.5240  -10.9540  -41.1610 N.am   90  ASN90      -0.0877
     46  N         26.4120  -10.4520  -45.7820 N.am   91  ALA91      -0.1979
     47  CA        26.3610  -10.8730  -47.1810 C.3    91  ALA91       0.1597
     48  C         27.0110   -9.7990  -48.0440 C.2    91  ALA91       0.2287
     49  O         26.7540   -8.6050  -47.8560 O.2    91  ALA91      -0.2864
     50  CB        24.9170  -11.0940  -47.6170 C.3    91  ALA91       0.0319
     51  N         20.3180   -6.6500  -47.4480 N.3    99  TYR99      -0.1227
     52  CA        19.6590   -7.5760  -48.3460 C.3    99  TYR99       0.1736
     53  C         18.2530   -7.8510  -47.9370 C.2    99  TYR99       0.2595
     54  O         17.9740   -8.0450  -46.7630 O.2    99  TYR99      -0.2718
     55  CB        20.4560   -8.8740  -48.3990 C.3    99  TYR99       0.0548
     56  CG        21.7610   -8.8370  -49.1380 C.ar   99  TYR99      -0.0200
     57  CD1       22.0820   -9.7790  -50.1130 C.ar   99  TYR99      -0.0009
     58  CD2       22.7500   -7.8300  -48.8790 C.ar   99  TYR99      -0.0009
     59  CE1       23.2820   -9.7620  -50.7910 C.ar   99  TYR99       0.0417
     60  CE2       23.9550   -7.8060  -49.5630 C.ar   99  TYR99       0.0417
     61  CZ        24.2390   -8.7550  -50.5400 C.ar   99  TYR99       0.1957
     62  OH        25.4140   -8.7720  -51.2940 O.3    99  TYR99      -0.2866
     63  N         17.3450   -7.9140  -48.8990 N.am  100  PHE100     -0.1962
     64  CA        15.9560   -8.1820  -48.7120 C.3   100  PHE100      0.1771
     65  C         15.5040   -9.2620  -49.7030 C.2   100  PHE100      0.2619
     66  O         15.8720   -9.2590  -50.8770 O.2   100  PHE100     -0.2715
     67  CB        15.1470   -6.8990  -48.9410 C.3   100  PHE100      0.0574
     68  CG        15.5420   -5.8080  -48.0470 C.ar  100  PHE100     -0.0200
     69  CD1       14.9670   -5.7050  -46.7980 C.ar  100  PHE100     -0.0042
     70  CD2       16.5230   -4.8950  -48.4220 C.ar  100  PHE100     -0.0042
     71  CE1       15.3550   -4.6840  -45.9370 C.ar  100  PHE100     -0.0003
     72  CE2       16.9170   -3.8840  -47.5460 C.ar  100  PHE100     -0.0003
     73  CZ        16.3100   -3.8020  -46.2910 C.ar  100  PHE100     -0.0000
     74  N         14.6500  -10.1630  -49.2130 N.am  101  ALA101     -0.1977
     75  CA        14.1560  -11.2920  -50.0540 C.3   101  ALA101      0.1597
     76  C         12.7780  -11.0280  -50.5570 C.2   101  ALA101      0.2287
     77  O         11.8860  -10.4950  -49.8660 O.2   101  ALA101     -0.2864
     78  CB        14.1240  -12.5880  -49.1970 C.3   101  ALA101      0.0319
     79  N         13.5360  -17.3080  -47.7700 N.3   106  TYR106     -0.1227
     80  CA        14.9390  -16.9280  -47.7910 C.3   106  TYR106      0.1736
     81  C         15.3340  -16.2920  -46.4560 C.2   106  TYR106      0.2596
     82  O         16.3470  -16.6240  -45.8690 O.2   106  TYR106     -0.2718
     83  CB        15.2100  -15.9760  -48.9830 C.3   106  TYR106      0.0548
     84  CG        15.4230  -16.6450  -50.3510 C.ar  106  TYR106     -0.0200
     85  CD1       16.0270  -15.9550  -51.4030 C.ar  106  TYR106     -0.0009
     86  CD2       15.0760  -17.9740  -50.5730 C.ar  106  TYR106     -0.0009
     87  CE1       16.2400  -16.5670  -52.6260 C.ar  106  TYR106      0.0417
     88  CE2       15.2820  -18.5790  -51.8120 C.ar  106  TYR106      0.0417
     89  CZ        15.8450  -17.8650  -52.8250 C.ar  106  TYR106      0.1957
     90  OH        16.0290  -18.5240  -54.0480 O.3   106  TYR106     -0.2866
     91  N         14.5280  -15.3550  -45.9960 N.am  107  SER107     -0.1952
     92  CA        14.8470  -14.6390  -44.7370 C.3   107  SER107      0.1924
     93  C         14.6670  -15.4830  -43.4780 C.2   107  SER107      0.2314
     94  O         15.2310  -15.1580  -42.4320 O.2   107  SER107     -0.2863
     95  CB        13.9490  -13.4340  -44.6500 C.3   107  SER107      0.2116
     96  OG        14.3400  -12.4730  -45.6630 O.3   107  SER107     -0.2180
     97  N         20.5150  -18.6730  -40.4050 N.3   111  THR111     -0.1203
     98  CA        21.7040  -17.8350  -40.4160 C.3   111  THR111      0.1994
     99  C         21.2930  -16.3410  -40.3710 C.2   111  THR111      0.2617
    100  O         22.0610  -15.4920  -39.8870 O.2   111  THR111     -0.2717
    101  CB        22.5510  -18.1370  -41.6430 C.3   111  THR111      0.1784
    102  OG1       22.9950  -19.5040  -41.5490 O.3   111  THR111     -0.2211
    103  CG2       23.7560  -17.2170  -41.7370 C.3   111  THR111      0.0376
    104  N         20.1050  -16.0490  -40.8800 N.am  112  TYR112     -0.1975
    105  CA        19.6050  -14.6770  -40.9230 C.3   112  TYR112      0.1639
    106  C         18.7210  -14.3870  -39.7280 C.2   112  TYR112      0.2290
    107  O         19.0830  -13.5550  -38.9000 O.2   112  TYR112     -0.2864
    108  CB        18.8420  -14.4230  -42.2180 C.3   112  TYR112      0.0560
    109  CG        19.5980  -14.7180  -43.4950 C.ar  112  TYR112     -0.0198
    110  CD1       20.9570  -14.4260  -43.6660 C.ar  112  TYR112     -0.0009
    111  CD2       18.9020  -15.2110  -44.5720 C.ar  112  TYR112     -0.0009
    112  CE1       21.5900  -14.6520  -44.8900 C.ar  112  TYR112      0.0417
    113  CE2       19.5340  -15.4500  -45.7750 C.ar  112  TYR112      0.0417
    114  CZ        20.8700  -15.1850  -45.9160 C.ar  112  TYR112      0.1957
    115  OH        21.4450  -15.4090  -47.1560 O.3   112  TYR112     -0.2866
    116  N         16.2770  -11.4210  -54.6450 N.3   167  LEU167     -0.1245
    117  CA        16.7190  -10.5400  -53.5450 C.3   167  LEU167      0.1561
    118  C         17.0890   -9.2030  -54.1150 C.2   167  LEU167      0.2260
    119  O         17.3910   -9.0900  -55.3100 O.2   167  LEU167     -0.2867
    120  CB        17.9150  -11.1840  -52.8590 C.3   167  LEU167      0.0270
    121  CG        19.2380  -11.3550  -53.6020 C.3   167  LEU167      0.0019
    122  CD1       20.1310  -10.1670  -53.5850 C.3   167  LEU167      0.0001
    123  CD2       20.0530  -12.5720  -53.0580 C.3   167  LEU167      0.0001
@<TRIPOS>BOND
     1   119   118    2
     2   116   117    1
     3   118   117    1
     4    90    89    1
     5   121   122    1
     6   121   123    1
     7   121   120    1
     8   117   120    1
     9    89    87   ar
    10    89    88   ar
    11    87    85   ar
    12    88    86   ar
    13    85    84   ar
    14    62    61    1
    15    66    65    2
    16    59    61   ar
    17    59    57   ar
    18    86    84   ar
    19    76    75    1
    20    76    77    2
    21    61    60   ar
    22    84    83    1
    23    57    56   ar
    24    75    74    1
    25    75    78    1
    26    65    74   am
    27    65    64    1
    28    60    58   ar
    29    56    58   ar
    30    56    55    1
    31    83    80    1
    32    67    64    1
    33    67    68    1
    34    63    64    1
    35    63    53   am
    36    70    68   ar
    37    70    72   ar
    38    55    52    1
    39    52    53    1
    40    52    51    1
    41    68    69   ar
    42    48    49    2
    43    48    47    1
    44    53    54    2
    45    80    79    1
    46    80    81    1
    47    50    47    1
    48    72    73   ar
    49    47    46    1
    50   115   114    1
    51    69    71   ar
    52    81    91   am
    53    81    82    2
    54    73    71   ar
    55    91    92    1
    56   114   113   ar
    57   114   112   ar
    58    46    40   am
    59   113   111   ar
    60    96    95    1
    61    41    40    2
    62    40    39    1
    63   112   110   ar
    64    92    95    1
    65    92    93    1
    66   111   109   ar
    67     1     2    1
    68     7     9   ar
    69     7     6   ar
    70     2     5    1
    71     2     3    1
    72     5     6    1
    73    39    38    1
    74    39    42    1
    75   110   109   ar
    76   109   108    1
    77    93    94    2
    78     9    10   ar
    79     6     8   ar
    80    42    43    1
    81    37    36    2
    82     3    11   am
    83     3     4    2
    84    11    12    1
    85   108   105    1
    86    10     8   ar
    87    36    35    1
    88   103   101    1
    89   101   102    1
    90   101    98    1
    91    43    45   am
    92    43    44    2
    93    12    13    1
    94    30    28   ar
    95    30    32   ar
    96   105   104    1
    97   105   106    1
    98    28    27   ar
    99    14    13    2
   100   104    99   am
   101    98    97    1
   102    98    99    1
   103    13    15   am
   104    99   100    2
   105    35    34    1
   106    33    32    1
   107    32    31   ar
   108   106   107    2
   109    27    26    1
   110    27    29   ar
   111    25    24    2
   112    26    23    1
   113    15    16    1
   114    24    23    1
   115    31    29   ar
   116    22    23    1
   117    16    19    1
   118    16    17    1
   119    19    20    1
   120    19    21    1
   121    17    18    2
