@<TRIPOS>MOLECULE
tmp/3smkA01.pdb
 144 134 0 0 0
SMALL
GASTEIGER

@<TRIPOS>ATOM
      1  N         16.1330   -9.0510   -8.4430 N.3    19  GLU19      -0.1245
      2  CA        17.3800   -9.2960   -7.7550 C.3    19  GLU19       0.1567
      3  C         18.5250   -8.4790   -8.3690 C.2    19  GLU19       0.2260
      4  O         19.2130   -7.7440   -7.6580 O.2    19  GLU19      -0.2867
      5  CB        17.7720  -10.7430   -7.8020 C.3    19  GLU19       0.0388
      6  CG        18.8800  -10.9940   -6.6950 C.3    19  GLU19       0.1160
      7  CD        19.5130  -12.4030   -6.7400 C.2    19  GLU19       0.3649
      8  OE1       19.3620  -13.1120   -7.7640 O.co2  19  GLU19      -0.2457
      9  OE2       20.1470  -12.7860   -5.7310 O.co2  19  GLU19      -0.2457
     10  N         16.8850  -23.8240   -7.0280 N.3    44  GLU44      -0.1245
     11  CA        17.1340  -22.4520   -7.4400 C.3    44  GLU44       0.1567
     12  C         16.0380  -21.5230   -6.9070 C.2    44  GLU44       0.2260
     13  O         16.3200  -20.4000   -6.4680 O.2    44  GLU44      -0.2867
     14  CB        17.1600  -22.3620   -8.9700 C.3    44  GLU44       0.0388
     15  CG        17.2160  -20.9190   -9.4670 C.3    44  GLU44       0.1160
     16  CD        17.6430  -20.8090  -10.9230 C.2    44  GLU44       0.3649
     17  OE1       17.4130  -21.7620  -11.6930 O.co2  44  GLU44      -0.2457
     18  OE2       18.2140  -19.7700  -11.2960 O.co2  44  GLU44      -0.2457
     19  N         16.2250  -21.0000   -3.2230 N.3    47  ASN47      -0.1225
     20  CA        17.2860  -20.0010   -2.9980 C.3    47  ASN47       0.1785
     21  C         16.8020  -18.5500   -3.2230 C.2    47  ASN47       0.2597
     22  O         17.1000  -17.6690   -2.4330 O.2    47  ASN47      -0.2718
     23  CB        18.5130  -20.2610   -3.8560 C.3    47  ASN47       0.1169
     24  CG        19.2180  -21.5600   -3.4680 C.2    47  ASN47       0.2627
     25  OD1       18.9590  -22.1290   -2.4020 O.2    47  ASN47      -0.2716
     26  ND2       20.0500  -22.0690   -4.3710 N.am   47  ASN47      -0.0877
     27  N         16.0680  -18.3270   -4.3090 N.am   48  LEU48      -0.1980
     28  CA        15.5540  -16.9910   -4.6660 C.3    48  LEU48       0.1596
     29  C         14.6000  -16.4650   -3.5990 C.2    48  LEU48       0.2287
     30  O         14.6710  -15.3050   -3.1650 O.2    48  LEU48      -0.2864
     31  CB        14.8480  -17.0540   -6.0140 C.3    48  LEU48       0.0297
     32  CG        15.8040  -17.1530   -7.2000 C.3    48  LEU48       0.0022
     33  CD1       14.9390  -17.3330   -8.4610 C.3    48  LEU48       0.0001
     34  CD2       16.7140  -15.9100   -7.3840 C.3    48  LEU48       0.0001
     35  N         14.4640  -17.3620   -0.3530 N.3    50  SER50      -0.1202
     36  CA        15.1480  -17.0310    0.8840 C.3    50  SER50       0.2020
     37  C         15.9540  -15.7660    0.7760 C.2    50  SER50       0.2618
     38  O         15.9220  -14.9590    1.6980 O.2    50  SER50      -0.2717
     39  CB        16.0210  -18.1920    1.4130 C.3    50  SER50       0.2103
     40  OG        17.2480  -18.2370    0.7490 O.3    50  SER50      -0.2182
     41  N         16.6390  -15.5650   -0.3400 N.am   51  VAL51      -0.1979
     42  CA        17.4060  -14.3450   -0.5570 C.3    51  VAL51       0.1595
     43  C         16.4570  -13.0880   -0.5840 C.2    51  VAL51       0.2287
     44  O         16.7920  -12.0160   -0.0400 O.2    51  VAL51      -0.2864
     45  CB        18.2390  -14.3990   -1.9220 C.3    51  VAL51       0.0276
     46  CG1       18.7660  -12.9480   -2.2870 C.3    51  VAL51       0.0022
     47  CG2       19.4560  -15.3750   -1.7580 C.3    51  VAL51       0.0022
     48  N         15.1930  -12.5770    3.0410 N.3    54  LYS54      -0.1245
     49  CA        16.3780  -12.3250    3.8680 C.3    54  LYS54       0.1561
     50  C         16.8420  -10.8500    3.7080 C.2    54  LYS54       0.2260
     51  O         17.1680  -10.1510    4.6610 O.2    54  LYS54      -0.2867
     52  CB        17.5190  -13.2640    3.5320 C.3    54  LYS54       0.0271
     53  CG        18.6460  -13.1480    4.5720 C.3    54  LYS54       0.0035
     54  CD        18.6380  -14.3220    5.5570 C.3    54  LYS54       0.0206
     55  CE        19.8930  -14.3370    6.4790 C.3    54  LYS54       0.1093
     56  NZ        20.3460  -12.9700    6.9300 N.3    54  LYS54      -0.1314
     57  N         15.9610  -26.9960    4.5910 N.3   117  PHE117     -0.1241
     58  CA        16.0110  -25.6450    4.0900 C.3   117  PHE117      0.1605
     59  C         14.8270  -24.8580    4.6760 C.2   117  PHE117      0.2264
     60  O         15.0180  -23.7810    5.2350 O.2   117  PHE117     -0.2867
     61  CB        15.9970  -25.6720    2.5440 C.3   117  PHE117      0.0534
     62  CG        16.1740  -24.3140    1.8890 C.ar  117  PHE117     -0.0203
     63  CD1       15.1050  -23.4120    1.8090 C.ar  117  PHE117     -0.0042
     64  CD2       17.3970  -23.9540    1.3050 C.ar  117  PHE117     -0.0042
     65  CE1       15.2510  -22.1600    1.1540 C.ar  117  PHE117     -0.0003
     66  CE2       17.5700  -22.7540    0.6660 C.ar  117  PHE117     -0.0003
     67  CZ        16.4870  -21.8220    0.6040 C.ar  117  PHE117     -0.0000
     68  N         15.0980  -24.5350    8.5570 N.3   120  LYS120     -0.1231
     69  CA        16.0610  -23.4530    8.8790 C.3   120  LYS120      0.1693
     70  C         15.3710  -22.0750    8.7580 C.2   120  LYS120      0.2591
     71  O         15.5230  -21.2310    9.6530 O.2   120  LYS120     -0.2718
     72  CB        17.2510  -23.4600    7.9480 C.3   120  LYS120      0.0285
     73  CG        18.1890  -22.2570    8.1350 C.3   120  LYS120      0.0035
     74  CD        19.5030  -22.4370    7.3710 C.3   120  LYS120      0.0206
     75  CE        20.3380  -21.0690    7.4650 C.3   120  LYS120      0.1093
     76  NZ        19.6140  -19.8230    6.9500 N.3   120  LYS120     -0.1314
     77  N         14.6640  -21.8540    7.6290 N.am  121  MET121     -0.1979
     78  CA        13.9320  -20.5810    7.4030 C.3   121  MET121      0.1605
     79  C         12.9470  -20.3350    8.5040 C.2   121  MET121      0.2287
     80  O         12.8180  -19.2060    8.9640 O.2   121  MET121     -0.2864
     81  CB        13.1770  -20.5700    6.0760 C.3   121  MET121      0.0413
     82  CG        14.1100  -20.4060    4.8370 C.3   121  MET121      0.0598
     83  SD        13.0740  -20.0950    3.3740 S.3   121  MET121     -0.1393
     84  CE        12.3420  -18.4810    3.6590 C.3   121  MET121      0.0692
     85  N         14.8730  -19.1500   11.5390 N.3   124  ASP124     -0.1239
     86  CA        15.3850  -17.7860   11.3100 C.3   124  ASP124      0.1674
     87  C         14.2960  -16.7180   11.5570 C.2   124  ASP124      0.2266
     88  O         14.5670  -15.7430   12.2240 O.2   124  ASP124     -0.2867
     89  CB        15.9080  -17.6070    9.8880 C.3   124  ASP124      0.1410
     90  CG        17.2160  -18.4290    9.5870 C.2   124  ASP124      0.3668
     91  OD1       17.9590  -18.8490   10.4830 O.co2 124  ASP124     -0.2456
     92  OD2       17.5030  -18.6710    8.4040 O.co2 124  ASP124     -0.2456
     93  N         26.3370  -27.1620    2.3350 N.3   165  PRO165     -0.2102
     94  CA        26.1330  -25.7400    2.7060 C.3   165  PRO165      0.1504
     95  C         24.8480  -25.5110    3.5400 C.2   165  PRO165      0.2575
     96  O         24.8800  -24.7200    4.4640 O.2   165  PRO165     -0.2718
     97  CB        26.0430  -25.0080    1.3540 C.3   165  PRO165      0.0282
     98  CG        26.6920  -25.9600    0.3480 C.3   165  PRO165      0.0208
     99  CD        26.2690  -27.3380    0.8800 C.3   165  PRO165      0.0893
    100  N         23.7680  -26.2620    3.2820 N.am  166  ILE166     -0.1980
    101  CA        22.5470  -26.0630    4.0720 C.3   166  ILE166      0.1595
    102  C         22.7700  -26.4990    5.5220 C.2   166  ILE166      0.2287
    103  O         22.3320  -25.8060    6.4760 O.2   166  ILE166     -0.2864
    104  CB        21.3210  -26.7720    3.4540 C.3   166  ILE166      0.0276
    105  CG1       21.0690  -26.2250    2.0530 C.3   166  ILE166      0.0022
    106  CG2       20.1250  -26.6220    4.3490 C.3   166  ILE166      0.0022
    107  CD1       20.0790  -27.0680    1.1970 C.3   166  ILE166      0.0001
    108  N         25.0630  -23.8290    7.1300 N.3   169  GLY169     -0.1225
    109  CA        24.3670  -22.5420    7.4150 C.3   169  GLY169      0.1811
    110  C         23.3580  -22.6900    8.5180 C.2   169  GLY169      0.2280
    111  O         23.1330  -21.7680    9.3000 O.2   169  GLY169     -0.2866
    112  N         32.4210  -23.5190   -2.9710 N.3   208  LYS208     -0.1231
    113  CA        32.4950  -22.0970   -2.6450 C.3   208  LYS208      0.1693
    114  C         31.5310  -21.7090   -1.5040 C.2   208  LYS208      0.2592
    115  O         31.9230  -20.9390   -0.6200 O.2   208  LYS208     -0.2718
    116  CB        32.2250  -21.1840   -3.8630 C.3   208  LYS208      0.0285
    117  CG        33.0520  -19.8510   -3.8130 C.3   208  LYS208      0.0035
    118  CD        32.4510  -18.6250   -4.5950 C.3   208  LYS208      0.0206
    119  CE        32.1090  -18.8850   -6.1230 C.3   208  LYS208      0.1093
    120  NZ        33.0550  -19.8090   -6.8700 N.3   208  LYS208     -0.1314
    121  N         30.2890  -22.2240   -1.5600 N.am  209  ASP209     -0.1974
    122  CA        29.2430  -21.9200   -0.5540 C.3   209  ASP209      0.1709
    123  C         29.6880  -22.4670    0.7900 C.2   209  ASP209      0.2293
    124  O         29.6300  -21.7960    1.8230 O.2   209  ASP209     -0.2864
    125  CB        27.8880  -22.5630   -0.9010 C.3   209  ASP209      0.1436
    126  CG        27.2940  -22.0270   -2.1870 C.2   209  ASP209      0.3671
    127  OD1       27.8080  -21.0270   -2.7530 O.co2 209  ASP209     -0.2456
    128  OD2       26.3310  -22.6490   -2.6560 O.co2 209  ASP209     -0.2456
    129  N         32.7100  -20.6490    2.1140 N.3   212  LEU212     -0.1231
    130  CA        32.2070  -19.3390    2.5580 C.3   212  LEU212      0.1693
    131  C         31.6360  -19.4890    3.9500 C.2   212  LEU212      0.2591
    132  O         32.0190  -18.7580    4.8330 O.2   212  LEU212     -0.2718
    133  CB        31.1640  -18.7290    1.5890 C.3   212  LEU212      0.0284
    134  CG        30.6740  -17.2730    1.7420 C.3   212  LEU212      0.0019
    135  CD1       29.8120  -16.8060    0.5220 C.3   212  LEU212      0.0001
    136  CD2       29.9150  -17.0370    3.0050 C.3   212  LEU212      0.0001
    137  N         30.7330  -20.4640    4.1560 N.am  213  ILE213     -0.1980
    138  CA        30.0540  -20.6200    5.4530 C.3   213  ILE213      0.1595
    139  C         31.0320  -21.0480    6.5730 C.2   213  ILE213      0.2287
    140  O         30.9420  -20.5880    7.7300 O.2   213  ILE213     -0.2864
    141  CB        28.8170  -21.5770    5.3610 C.3   213  ILE213      0.0276
    142  CG1       27.7990  -21.0410    4.3380 C.3   213  ILE213      0.0022
    143  CG2       28.1040  -21.6850    6.6850 C.3   213  ILE213      0.0022
    144  CD1       26.6720  -22.0080    4.0490 C.3   213  ILE213      0.0001
@<TRIPOS>BOND
     1    17    16   ar
     2    18    16   ar
     3    16    15    1
     4    15    14    1
     5    14    11    1
     6    33    32    1
     7     1     2    1
     8     3     2    1
     9     3     4    2
    10     5     2    1
    11     5     6    1
    12     8     7   ar
    13    11    10    1
    14    11    12    1
    15    34    32    1
    16    32    31    1
    17    12    13    2
    18   120   119    1
    19     7     6    1
    20     7     9   ar
    21   119   118    1
    22    31    28    1
    23    28    27    1
    24    28    29    1
    25   118   117    1
    26    26    24   am
    27    27    21   am
    28   116   117    1
    29   116   113    1
    30    23    24    1
    31    23    20    1
    32    29    30    2
    33    24    25    2
    34    21    20    1
    35    21    22    2
    36    19    20    1
    37   112   113    1
    38   127   126   ar
    39   128   126   ar
    40   113   114    1
    41    46    45    1
    42   126   125    1
    43    45    47    1
    44    45    42    1
    45   121   114   am
    46   121   122    1
    47   114   115    2
    48   125   122    1
    49    43    42    1
    50    43    44    2
    51    42    41    1
    52   122   123    1
    53    35    36    1
    54    41    37   am
    55    98    99    1
    56    98    97    1
    57   135   134    1
    58    67    66   ar
    59    67    65   ar
    60    66    64   ar
    61    40    39    1
    62    37    36    1
    63    37    38    2
    64   123   124    2
    65    99    93    1
    66    36    39    1
    67    65    63   ar
    68   107   105    1
    69    64    62   ar
    70    97    94    1
    71   133   134    1
    72   133   130    1
    73   134   136    1
    74    63    62   ar
    75    62    61    1
    76   105   104    1
    77   129   130    1
    78    93    94    1
    79    61    58    1
    80   130   131    1
    81    94    95    1
    82    48    49    1
    83   100    95   am
    84   100   101    1
    85    83    84    1
    86    83    82    1
    87   104   101    1
    88   104   106    1
    89    52    49    1
    90    52    53    1
    91    95    96    2
    92    50    49    1
    93    50    51    2
    94   131   137   am
    95   131   132    2
    96   144   142    1
    97   101   102    1
    98    58    57    1
    99    58    59    1
   100   137   138    1
   101   142   141    1
   102    53    54    1
   103    59    60    2
   104    82    81    1
   105   141   138    1
   106   141   143    1
   107   138   139    1
   108   102   103    2
   109    54    55    1
   110    81    78    1
   111    55    56    1
   112   139   140    2
   113    76    75    1
   114   108   109    1
   115    74    75    1
   116    74    73    1
   117    78    77    1
   118    78    79    1
   119   109   110    1
   120    77    70   am
   121    72    73    1
   122    72    69    1
   123    92    90   ar
   124    79    80    2
   125   110   111    2
   126    68    69    1
   127    70    69    1
   128    70    71    2
   129    90    89    1
   130    90    91   ar
   131    89    86    1
   132    86    85    1
   133    86    87    1
   134    87    88    2
