@<TRIPOS>MOLECULE
tmp/3smlA01.pdb
 135 126 0 0 0
SMALL
GASTEIGER

@<TRIPOS>ATOM
      1  N         15.5450  -26.2140   -6.5610 N.3    43  ASN43      -0.1240
      2  CA        16.6850  -25.6760   -5.8090 C.3    43  ASN43       0.1653
      3  C         16.9190  -24.1850   -6.0600 C.2    43  ASN43       0.2266
      4  O         17.0860  -23.3830   -5.1120 O.2    43  ASN43      -0.2867
      5  CB        17.9520  -26.4330   -6.1990 C.3    43  ASN43       0.1155
      6  CG        19.1180  -26.0260   -5.3770 C.2    43  ASN43       0.2627
      7  OD1       19.1540  -26.3000   -4.1820 O.2    43  ASN43      -0.2716
      8  ND2       20.0760  -25.3430   -5.9930 N.am   43  ASN43      -0.0877
      9  N         16.4330  -20.9410   -3.5490 N.3    47  ASN47      -0.1240
     10  CA        17.4500  -19.8700   -3.3260 C.3    47  ASN47       0.1653
     11  C         16.8950  -18.4670   -3.5250 C.2    47  ASN47       0.2266
     12  O         17.1790  -17.5800   -2.7440 O.2    47  ASN47      -0.2867
     13  CB        18.7060  -20.0960   -4.2020 C.3    47  ASN47       0.1155
     14  CG        19.5120  -21.3630   -3.7390 C.2    47  ASN47       0.2627
     15  OD1       19.3030  -21.8740   -2.6480 O.2    47  ASN47      -0.2716
     16  ND2       20.3700  -21.8800   -4.6080 N.am   47  ASN47      -0.0877
     17  N         14.6530  -17.3640   -0.5920 N.3    50  SER50      -0.1202
     18  CA        15.4300  -17.1080    0.6060 C.3    50  SER50       0.2020
     19  C         16.2300  -15.8220    0.4920 C.2    50  SER50       0.2618
     20  O         16.2970  -15.0490    1.4800 O.2    50  SER50      -0.2717
     21  CB        16.3410  -18.3160    0.9670 C.3    50  SER50       0.2103
     22  OG        17.5470  -18.3510    0.2150 O.3    50  SER50      -0.2182
     23  N         16.8030  -15.5660   -0.6840 N.am   51  VAL51      -0.1979
     24  CA        17.6150  -14.3490   -0.8990 C.3    51  VAL51       0.1595
     25  C         16.7080  -13.0940   -0.7890 C.2    51  VAL51       0.2287
     26  O         17.1190  -12.0560   -0.1720 O.2    51  VAL51      -0.2864
     27  CB        18.3090  -14.3940   -2.2960 C.3    51  VAL51       0.0276
     28  CG1       18.8710  -13.0210   -2.7500 C.3    51  VAL51       0.0022
     29  CG2       19.4810  -15.4460   -2.2770 C.3    51  VAL51       0.0022
     30  N         15.6850  -12.5790    2.8550 N.3    54  LYS54      -0.1245
     31  CA        16.7970  -12.3430    3.7490 C.3    54  LYS54       0.1561
     32  C         17.2370  -10.8890    3.5950 C.2    54  LYS54       0.2260
     33  O         17.6360  -10.2560    4.5800 O.2    54  LYS54      -0.2867
     34  CB        17.9570  -13.2870    3.3870 C.3    54  LYS54       0.0271
     35  CG        19.0080  -13.4060    4.5110 C.3    54  LYS54       0.0035
     36  CD        18.5610  -14.4050    5.6800 C.3    54  LYS54       0.0206
     37  CE        19.8190  -14.8830    6.4680 C.3    54  LYS54       0.1093
     38  NZ        20.5520  -13.6910    7.0630 N.3    54  LYS54      -0.1314
     39  N         16.3690  -27.0070    4.1080 N.3   124  PHE124     -0.1241
     40  CA        16.3600  -25.6080    3.7100 C.3   124  PHE124      0.1605
     41  C         15.1700  -24.8410    4.3230 C.2   124  PHE124      0.2264
     42  O         15.3540  -23.7480    4.9150 O.2   124  PHE124     -0.2867
     43  CB        16.2860  -25.5670    2.1690 C.3   124  PHE124      0.0534
     44  CG        16.4950  -24.2060    1.5720 C.ar  124  PHE124     -0.0203
     45  CD1       15.4200  -23.2800    1.4980 C.ar  124  PHE124     -0.0042
     46  CD2       17.7310  -23.8700    1.0090 C.ar  124  PHE124     -0.0042
     47  CE1       15.6020  -21.9930    0.8460 C.ar  124  PHE124     -0.0003
     48  CE2       17.9060  -22.6400    0.3770 C.ar  124  PHE124     -0.0003
     49  CZ        16.8460  -21.6980    0.3330 C.ar  124  PHE124     -0.0000
     50  N         15.4360  -24.5840    8.1620 N.3   127  LYS127     -0.1231
     51  CA        16.3730  -23.5230    8.5150 C.3   127  LYS127      0.1693
     52  C         15.6790  -22.1160    8.3990 C.2   127  LYS127      0.2591
     53  O         15.8160  -21.2780    9.3220 O.2   127  LYS127     -0.2718
     54  CB        17.6100  -23.5410    7.6140 C.3   127  LYS127      0.0285
     55  CG        18.5700  -22.3560    7.8890 C.3   127  LYS127      0.0035
     56  CD        19.7830  -22.3840    6.8850 C.3   127  LYS127      0.0206
     57  CE        20.6070  -21.0400    7.0010 C.3   127  LYS127      0.1093
     58  NZ        19.8200  -19.8700    6.5060 N.3   127  LYS127     -0.1314
     59  N         15.0070  -21.8550    7.2740 N.am  128  MET128     -0.1979
     60  CA        14.2690  -20.5550    7.1150 C.3   128  MET128      0.1605
     61  C         13.2970  -20.4070    8.2910 C.2   128  MET128      0.2287
     62  O         13.2080  -19.3360    8.8520 O.2   128  MET128     -0.2864
     63  CB        13.4680  -20.4670    5.7750 C.3   128  MET128      0.0413
     64  CG        14.4230  -20.3520    4.5380 C.3   128  MET128      0.0598
     65  SD        13.3870  -20.1670    3.0480 S.3   128  MET128     -0.1393
     66  CE        12.7590  -18.5100    3.3340 C.3   128  MET128      0.0692
     67  N         15.2150  -19.3620   11.1930 N.3   131  ASP131     -0.1239
     68  CA        15.7280  -18.0050   10.9800 C.3   131  ASP131      0.1674
     69  C         14.6400  -16.9460   11.2400 C.2   131  ASP131      0.2266
     70  O         14.8920  -15.9520   11.9390 O.2   131  ASP131     -0.2867
     71  CB        16.1960  -17.8150    9.5260 C.3   131  ASP131      0.1410
     72  CG        17.5140  -18.5170    9.2060 C.2   131  ASP131      0.3668
     73  OD1       18.2950  -18.9100   10.1310 O.co2 131  ASP131     -0.2456
     74  OD2       17.7370  -18.7390    7.9930 O.co2 131  ASP131     -0.2456
     75  N         27.9320  -30.2550    3.0800 N.3   171  HIS171     -0.1227
     76  CA        26.8080  -29.6430    2.3030 C.3   171  HIS171      0.1737
     77  C         26.6160  -28.1370    2.6640 C.2   171  HIS171      0.2438
     78  O         26.5320  -27.8280    3.8250 O.2   171  HIS171     -0.2733
     79  CB        25.4820  -30.4220    2.4940 C.3   171  HIS171      0.0758
     80  CG        24.5400  -30.1730    1.3530 C.ar  171  HIS171      0.0818
     81  ND1       24.0000  -28.9150    1.1220 N.ar  171  HIS171     -0.2268
     82  CD2       24.1370  -30.9550    0.3170 C.ar  171  HIS171      0.1154
     83  CE1       23.2450  -28.9570    0.0280 C.ar  171  HIS171      0.1986
     84  NE2       23.3050  -30.1750   -0.4780 N.ar  171  HIS171     -0.2212
     85  N         26.6070  -27.2000    1.6960 N.am  172  PRO172     -0.2718
     86  CA        26.4220  -25.7720    2.0530 C.3   172  PRO172      0.1535
     87  C         25.1780  -25.5150    2.9210 C.2   172  PRO172      0.2598
     88  O         25.2160  -24.7050    3.8030 O.2   172  PRO172     -0.2715
     89  CB        26.2640  -25.0980    0.6960 C.3   172  PRO172      0.0310
     90  CG        27.2090  -25.8920   -0.2340 C.3   172  PRO172      0.0237
     91  CD        26.9520  -27.3620    0.2720 C.3   172  PRO172      0.0939
     92  N         24.1020  -26.2800    2.7330 N.am  173  ILE173     -0.1978
     93  CA        22.8890  -26.0280    3.5230 C.3   173  ILE173      0.1596
     94  C         23.1310  -26.5260    4.9350 C.2   173  ILE173      0.2287
     95  O         22.7360  -25.8630    5.8670 O.2   173  ILE173     -0.2864
     96  CB        21.6920  -26.7580    2.9180 C.3   173  ILE173      0.0276
     97  CG1       21.2780  -26.1070    1.5920 C.3   173  ILE173      0.0022
     98  CG2       20.4780  -26.7300    3.8960 C.3   173  ILE173      0.0022
     99  CD1       20.3610  -26.9840    0.7690 C.3   173  ILE173      0.0001
    100  N         25.4200  -23.8780    6.5250 N.3   176  GLY176     -0.1225
    101  CA        24.6810  -22.5920    6.7720 C.3   176  GLY176      0.1811
    102  C         23.7230  -22.7290    7.9660 C.2   176  GLY176      0.2280
    103  O         23.5450  -21.7880    8.7690 O.2   176  GLY176     -0.2866
    104  N         32.5380  -23.9330   -2.6880 N.3   220  ASP220     -0.1239
    105  CA        31.2260  -23.6960   -2.0410 C.3   220  ASP220      0.1674
    106  C         31.2910  -23.9320   -0.5400 C.2   220  ASP220      0.2266
    107  O         30.7540  -23.1500    0.2080 O.2   220  ASP220     -0.2867
    108  CB        30.1240  -24.6310   -2.5800 C.3   220  ASP220      0.1410
    109  CG        29.7320  -24.3410   -4.0690 C.2   220  ASP220      0.3668
    110  OD1       29.9980  -23.2170   -4.5960 O.co2 220  ASP220     -0.2456
    111  OD2       29.1770  -25.2810   -4.6840 O.co2 220  ASP220     -0.2456
    112  N         33.7910  -21.6100    1.5650 N.3   223  LEU223     -0.1231
    113  CA        33.2060  -20.2740    1.7670 C.3   223  LEU223      0.1693
    114  C         32.4060  -20.1730    3.0920 C.2   223  LEU223      0.2591
    115  O         32.5550  -19.2090    3.8510 O.2   223  LEU223     -0.2718
    116  CB        32.2970  -19.8770    0.6000 C.3   223  LEU223      0.0284
    117  CG        31.7570  -18.4440    0.5930 C.3   223  LEU223      0.0019
    118  CD1       31.3380  -18.0080   -0.8360 C.3   223  LEU223      0.0001
    119  CD2       30.5940  -18.2720    1.5480 C.3   223  LEU223      0.0001
    120  N         31.5290  -21.1330    3.3530 N.am  224  ILE224     -0.1980
    121  CA        30.6900  -21.0710    4.5690 C.3   224  ILE224      0.1595
    122  C         31.5040  -21.5060    5.7800 C.2   224  ILE224      0.2287
    123  O         31.2650  -21.0690    6.9120 O.2   224  ILE224     -0.2864
    124  CB        29.4250  -21.9500    4.4210 C.3   224  ILE224      0.0276
    125  CG1       28.6990  -21.5380    3.1210 C.3   224  ILE224      0.0022
    126  CG2       28.5060  -21.7750    5.6540 C.3   224  ILE224      0.0022
    127  CD1       27.3700  -22.2290    2.8550 C.3   224  ILE224      0.0001
    128  N         32.9340  -18.5500    7.3970 N.3   227  LEU227     -0.1245
    129  CA        32.0180  -17.7930    8.2610 C.3   227  LEU227      0.1561
    130  C         31.9910  -18.4290    9.6610 C.2   227  LEU227      0.2260
    131  O         31.9060  -17.6920   10.6660 O.2   227  LEU227     -0.2867
    132  CB        30.5610  -17.7520    7.6960 C.3   227  LEU227      0.0270
    133  CG        30.4570  -17.1830    6.2540 C.3   227  LEU227      0.0019
    134  CD1       29.0040  -17.2870    5.7300 C.3   227  LEU227      0.0001
    135  CD2       30.8960  -15.7090    6.2710 C.3   227  LEU227      0.0001
@<TRIPOS>BOND
     1     1     2    1
     2     5     2    1
     3     5     6    1
     4     3     2    1
     5     3     4    2
     6     8     6   am
     7     6     7    2
     8   111   109   ar
     9    16    14   am
    10   110   109   ar
    11    13    14    1
    12    13    10    1
    13   109   108    1
    14    14    15    2
    15     9    10    1
    16    11    10    1
    17    11    12    2
    18    28    27    1
    19   104   105    1
    20   108   105    1
    21    27    29    1
    22    27    24    1
    23   105   106    1
    24    24    25    1
    25    24    23    1
    26   118   117    1
    27    25    26    2
    28    23    19   am
    29    17    18    1
    30   106   107    2
    31    84    83   ar
    32    84    82   ar
    33    90    91    1
    34    90    89    1
    35    83    81   ar
    36    22    21    1
    37    91    85    1
    38    82    80   ar
    39    49    48   ar
    40    49    47   ar
    41    48    46   ar
    42    19    18    1
    43    19    20    2
    44   117   116    1
    45   117   119    1
    46   116   113    1
    47    18    21    1
    48    89    86    1
    49    99    97    1
    50    47    45   ar
    51    46    44   ar
    52    81    80   ar
    53    80    79    1
    54    45    44   ar
    55   112   113    1
    56    44    43    1
    57    97    96    1
    58    85    86    1
    59    85    77   am
    60   113   114    1
    61    86    87    1
    62    43    40    1
    63    76    79    1
    64    76    77    1
    65    76    75    1
    66    77    78    2
    67    92    87   am
    68    92    93    1
    69    30    31    1
    70   127   125    1
    71    96    93    1
    72    96    98    1
    73    87    88    2
    74    65    66    1
    75    65    64    1
    76   114   120   am
    77   114   115    2
    78   125   124    1
    79   120   121    1
    80    34    31    1
    81    34    35    1
    82    93    94    1
    83    32    31    1
    84    32    33    2
    85    40    39    1
    86    40    41    1
    87    41    42    2
    88   124   121    1
    89   124   126    1
    90    35    36    1
    91    64    63    1
    92   121   122    1
    93    94    95    2
    94    36    37    1
    95   134   133    1
    96    63    60    1
    97   122   123    2
    98   133   135    1
    99   133   132    1
   100    37    38    1
   101    58    57    1
   102   100   101    1
   103   101   102    1
   104    56    57    1
   105    56    55    1
   106    60    59    1
   107    60    61    1
   108    59    52   am
   109   128   129    1
   110    54    55    1
   111    54    51    1
   112   132   129    1
   113   102   103    2
   114    74    72   ar
   115    50    51    1
   116   129   130    1
   117    61    62    2
   118    52    51    1
   119    52    53    2
   120    72    71    1
   121    72    73   ar
   122    71    68    1
   123   130   131    2
   124    68    67    1
   125    68    69    1
   126    69    70    2
