@<TRIPOS>MOLECULE
tmp/3smlA00.pdb
 171 162 0 0 0
SMALL
GASTEIGER

@<TRIPOS>ATOM
      1  N         15.6850  -12.5790    2.8550 N.3    54  LYS54      -0.1245
      2  CA        16.7970  -12.3430    3.7490 C.3    54  LYS54       0.1561
      3  C         17.2370  -10.8890    3.5950 C.2    54  LYS54       0.2260
      4  O         17.6360  -10.2560    4.5800 O.2    54  LYS54      -0.2867
      5  CB        17.9570  -13.2870    3.3870 C.3    54  LYS54       0.0271
      6  CG        19.0080  -13.4060    4.5110 C.3    54  LYS54       0.0035
      7  CD        18.5610  -14.4050    5.6800 C.3    54  LYS54       0.0206
      8  CE        19.8190  -14.8830    6.4680 C.3    54  LYS54       0.1093
      9  NZ        20.5520  -13.6910    7.0630 N.3    54  LYS54      -0.1314
     10  N         15.9270   -5.2270   10.0080 N.3    61  ARG61      -0.1245
     11  CA        16.6480   -5.5240   11.2720 C.3    61  ARG61       0.1563
     12  C         17.7570   -4.4670   11.5340 C.2    61  ARG61       0.2260
     13  O         17.9100   -4.0150   12.6680 O.2    61  ARG61      -0.2867
     14  CB        17.2520   -6.9600   11.2370 C.3    61  ARG61       0.0307
     15  CG        16.2090   -8.0800   11.1910 C.3    61  ARG61       0.0489
     16  CD        16.8700   -9.3760   10.7420 C.3    61  ARG61       0.2205
     17  NE        17.8960   -9.8710   11.6900 N.pl3  61  ARG61      -0.0865
     18  CZ        18.9920  -10.5200   11.2900 C.cat  61  ARG61       0.5346
     19  NH1       19.2140  -10.7810    9.9740 N.pl3  61  ARG61       0.1354
     20  NH2       19.8470  -10.9690   12.2120 N.pl3  61  ARG61       0.1354
     21  N         15.4360  -24.5840    8.1620 N.3   127  LYS127     -0.1245
     22  CA        16.3730  -23.5230    8.5150 C.3   127  LYS127      0.1561
     23  C         15.6790  -22.1160    8.3990 C.2   127  LYS127      0.2260
     24  O         15.8160  -21.2780    9.3220 O.2   127  LYS127     -0.2867
     25  CB        17.6100  -23.5410    7.6140 C.3   127  LYS127      0.0271
     26  CG        18.5700  -22.3560    7.8890 C.3   127  LYS127      0.0035
     27  CD        19.7830  -22.3840    6.8850 C.3   127  LYS127      0.0206
     28  CE        20.6070  -21.0400    7.0010 C.3   127  LYS127      0.1093
     29  NZ        19.8200  -19.8700    6.5060 N.3   127  LYS127     -0.1314
     30  N         13.7990  -16.7870   14.8090 N.3   134  ARG134     -0.1231
     31  CA        14.8900  -16.0660   15.4110 C.3   134  ARG134      0.1694
     32  C         14.7800  -14.5130   15.2600 C.2   134  ARG134      0.2592
     33  O         15.1100  -13.7480   16.2190 O.2   134  ARG134     -0.2718
     34  CB        16.2150  -16.5690   14.8630 C.3   134  ARG134      0.0321
     35  CG        17.4670  -15.7170   15.3800 C.3   134  ARG134      0.0489
     36  CD        18.7980  -16.4900   15.1840 C.3   134  ARG134      0.2205
     37  NE        19.0240  -16.7950   13.7660 N.pl3 134  ARG134     -0.0865
     38  CZ        19.6990  -16.0110   12.9350 C.cat 134  ARG134      0.5346
     39  NH1       20.2330  -14.8510   13.3640 N.pl3 134  ARG134      0.1354
     40  NH2       19.8430  -16.3950   11.6650 N.pl3 134  ARG134      0.1354
     41  N         14.3720  -14.0370   14.0880 N.am  135  TYR135     -0.1976
     42  CA        14.2520  -12.5660   13.9240 C.3   135  TYR135      0.1639
     43  C         13.1010  -12.0520   14.7680 C.2   135  TYR135      0.2290
     44  O         13.1940  -10.9400   15.3420 O.2   135  TYR135     -0.2864
     45  CB        14.0700  -12.1820   12.4410 C.3   135  TYR135      0.0560
     46  CG        15.1680  -12.7750   11.5540 C.ar  135  TYR135     -0.0198
     47  CD1       16.5010  -12.8620   11.9970 C.ar  135  TYR135     -0.0009
     48  CD2       14.8720  -13.2070   10.2790 C.ar  135  TYR135     -0.0009
     49  CE1       17.4920  -13.4040   11.2020 C.ar  135  TYR135      0.0417
     50  CE2       15.8510  -13.7140    9.4460 C.ar  135  TYR135      0.0417
     51  CZ        17.1650  -13.8300    9.9240 C.ar  135  TYR135      0.1957
     52  OH        18.0850  -14.4160    9.1230 O.3   135  TYR135     -0.2866
     53  N         14.4940  -11.6740   18.1330 N.3   138  GLU138     -0.1245
     54  CA        15.3610  -10.5040   18.3550 C.3   138  GLU138      0.1567
     55  C         14.6510   -9.2730   18.9320 C.2   138  GLU138      0.2260
     56  O         15.2790   -8.4890   19.6640 O.2   138  GLU138     -0.2867
     57  CB        16.0800  -10.0760   17.0750 C.3   138  GLU138      0.0388
     58  CG        17.1790  -11.0800   16.6650 C.3   138  GLU138      0.1160
     59  CD        17.8050  -10.7660   15.2980 C.2   138  GLU138      0.3649
     60  OE1       17.2570   -9.9700   14.5100 O.co2 138  GLU138     -0.2457
     61  OE2       18.8680  -11.3210   14.9980 O.co2 138  GLU138     -0.2457
     62  N         25.4200  -23.8780    6.5250 N.3   176  GLY176     -0.1225
     63  CA        24.6810  -22.5920    6.7720 C.3   176  GLY176      0.1811
     64  C         23.7230  -22.7290    7.9660 C.2   176  GLY176      0.2280
     65  O         23.5450  -21.7880    8.7690 O.2   176  GLY176     -0.2866
     66  N         25.8400  -22.7820   11.1170 N.3   179  LEU179     -0.1231
     67  CA        26.2490  -21.3950   11.3650 C.3   179  LEU179      0.1693
     68  C         25.1170  -20.6090   12.0560 C.2   179  LEU179      0.2592
     69  O         25.3500  -19.9970   13.1310 O.2   179  LEU179     -0.2718
     70  CB        26.6150  -20.6970   10.0480 C.3   179  LEU179      0.0284
     71  CG        27.0390  -19.2160   10.1900 C.3   179  LEU179      0.0019
     72  CD1       28.4890  -19.1670   10.6740 C.3   179  LEU179      0.0001
     73  CD2       26.9220  -18.5290    8.8220 C.3   179  LEU179      0.0001
     74  N         23.8960  -20.6690   11.5010 N.am  180  ASN180     -0.1974
     75  CA        22.7800  -19.9100   12.1000 C.3   180  ASN180      0.1688
     76  C         22.2930  -20.4280   13.4070 C.2   180  ASN180      0.2292
     77  O         21.9900  -19.6410   14.3110 O.2   180  ASN180     -0.2864
     78  CB        21.6090  -19.7490   11.1330 C.3   180  ASN180      0.1181
     79  CG        21.9720  -18.7860    9.9800 C.2   180  ASN180      0.2629
     80  OD1       23.1680  -18.4440    9.7700 O.2   180  ASN180     -0.2716
     81  ND2       20.9590  -18.3660    9.2370 N.am  180  ASN180     -0.0877
     82  N         24.6950  -19.1540   15.9520 N.3   183  VAL183     -0.1245
     83  CA        24.3230  -17.7380   16.2760 C.3   183  VAL183      0.1561
     84  C         23.0830  -17.6370   17.2050 C.2   183  VAL183      0.2260
     85  O         23.1010  -16.8870   18.1940 O.2   183  VAL183     -0.2867
     86  CB        24.1140  -16.9010   15.0320 C.3   183  VAL183      0.0252
     87  CG1       23.4660  -15.4420   15.3820 C.3   183  VAL183      0.0019
     88  CG2       25.4710  -16.6370   14.3800 C.3   183  VAL183      0.0019
     89  N         24.1890  -18.4450   20.6040 N.3   186  TYR186     -0.1227
     90  CA        25.0560  -17.4390   21.2090 C.3   186  TYR186      0.1736
     91  C         24.2330  -16.2410   21.6410 C.2   186  TYR186      0.2595
     92  O         24.4220  -15.6910   22.7540 O.2   186  TYR186     -0.2718
     93  CB        26.1070  -16.9650   20.1880 C.3   186  TYR186      0.0548
     94  CG        27.2060  -16.1410   20.8010 C.ar  186  TYR186     -0.0200
     95  CD1       28.3270  -16.7530   21.3250 C.ar  186  TYR186     -0.0009
     96  CD2       27.1120  -14.7390   20.8760 C.ar  186  TYR186     -0.0009
     97  CE1       29.3420  -15.9980   21.9160 C.ar  186  TYR186      0.0417
     98  CE2       28.1370  -13.9770   21.4580 C.ar  186  TYR186      0.0417
     99  CZ        29.2460  -14.6350   21.9780 C.ar  186  TYR186      0.1957
    100  OH        30.2870  -13.9240   22.5860 O.3   186  TYR186     -0.2866
    101  N         23.3830  -15.7520   20.7630 N.am  187  GLU187     -0.1979
    102  CA        22.8390  -14.4310   21.1180 C.3   187  GLU187      0.1602
    103  C         21.3490  -14.4030   21.4470 C.2   187  GLU187      0.2287
    104  O         20.8620  -13.4160   21.9790 O.2   187  GLU187     -0.2864
    105  CB        23.2470  -13.3720   20.0810 C.3   187  GLU187      0.0415
    106  CG        22.7050  -13.6390   18.7100 C.3   187  GLU187      0.1163
    107  CD        22.9220  -12.4680   17.7150 C.2   187  GLU187      0.3649
    108  OE1       23.9730  -11.7640   17.7250 O.co2 187  GLU187     -0.2457
    109  OE2       22.0140  -12.2500   16.8980 O.co2 187  GLU187     -0.2457
    110  N         33.7910  -21.6100    1.5650 N.3   223  LEU223     -0.1231
    111  CA        33.2060  -20.2740    1.7670 C.3   223  LEU223      0.1693
    112  C         32.4060  -20.1730    3.0920 C.2   223  LEU223      0.2591
    113  O         32.5550  -19.2090    3.8510 O.2   223  LEU223     -0.2718
    114  CB        32.2970  -19.8770    0.6000 C.3   223  LEU223      0.0284
    115  CG        31.7570  -18.4440    0.5930 C.3   223  LEU223      0.0019
    116  CD1       31.3380  -18.0080   -0.8360 C.3   223  LEU223      0.0001
    117  CD2       30.5940  -18.2720    1.5480 C.3   223  LEU223      0.0001
    118  N         31.5290  -21.1330    3.3530 N.am  224  ILE224     -0.1980
    119  CA        30.6900  -21.0710    4.5690 C.3   224  ILE224      0.1595
    120  C         31.5040  -21.5060    5.7800 C.2   224  ILE224      0.2287
    121  O         31.2650  -21.0690    6.9120 O.2   224  ILE224     -0.2864
    122  CB        29.4250  -21.9500    4.4210 C.3   224  ILE224      0.0276
    123  CG1       28.6990  -21.5380    3.1210 C.3   224  ILE224      0.0022
    124  CG2       28.5060  -21.7750    5.6540 C.3   224  ILE224      0.0022
    125  CD1       27.3700  -22.2290    2.8550 C.3   224  ILE224      0.0001
    126  N         32.9340  -18.5500    7.3970 N.3   227  LEU227     -0.1245
    127  CA        32.0180  -17.7930    8.2610 C.3   227  LEU227      0.1561
    128  C         31.9910  -18.4290    9.6610 C.2   227  LEU227      0.2260
    129  O         31.9060  -17.6920   10.6660 O.2   227  LEU227     -0.2867
    130  CB        30.5610  -17.7520    7.6960 C.3   227  LEU227      0.0270
    131  CG        30.4570  -17.1830    6.2540 C.3   227  LEU227      0.0019
    132  CD1       29.0040  -17.2870    5.7300 C.3   227  LEU227      0.0001
    133  CD2       30.8960  -15.7090    6.2710 C.3   227  LEU227      0.0001
    134  N         35.0760  -17.2210   11.3210 N.3   230  ASP230     -0.1225
    135  CA        35.0380  -15.8150   11.6760 C.3   230  ASP230      0.1805
    136  C         34.3210  -15.7020   13.0370 C.2   230  ASP230      0.2597
    137  O         34.6870  -14.8820   13.8900 O.2   230  ASP230     -0.2718
    138  CB        34.2060  -15.0160   10.6640 C.3   230  ASP230      0.1424
    139  CG        34.8710  -14.8480    9.2700 C.2   230  ASP230      0.3668
    140  OD1       36.1050  -14.9180    9.1840 O.co2 230  ASP230     -0.2456
    141  OD2       34.1120  -14.6070    8.2750 O.co2 230  ASP230     -0.2456
    142  N         33.2470  -16.4810   13.2240 N.am  231  ASN231     -0.1974
    143  CA        32.4820  -16.4130   14.4660 C.3   231  ASN231      0.1688
    144  C         33.3180  -16.9890   15.5790 C.2   231  ASN231      0.2292
    145  O         33.3560  -16.4060   16.6580 O.2   231  ASN231     -0.2864
    146  CB        31.1350  -17.1640   14.3040 C.3   231  ASN231      0.1181
    147  CG        30.1230  -16.3360   13.5440 C.2   231  ASN231      0.2629
    148  OD1       30.4470  -15.1790   13.1920 O.2   231  ASN231     -0.2716
    149  ND2       28.8710  -16.8540   13.3570 N.am  231  ASN231     -0.0877
    150  N         35.7150  -14.3700   16.5750 N.3   234  LEU234     -0.1231
    151  CA        35.0610  -13.3390   17.3360 C.3   234  LEU234      0.1693
    152  C         34.7510  -13.7790   18.7700 C.2   234  LEU234      0.2592
    153  O         34.8550  -12.9700   19.6910 O.2   234  LEU234     -0.2718
    154  CB        33.7580  -12.9280   16.6350 C.3   234  LEU234      0.0284
    155  CG        33.0840  -11.6260   17.0160 C.3   234  LEU234      0.0019
    156  CD1       33.9770  -10.3930   16.8170 C.3   234  LEU234      0.0001
    157  CD2       31.8150  -11.5150   16.1150 C.3   234  LEU234      0.0001
    158  N         34.3940  -15.0510   18.9690 N.am  235  TRP235     -0.1976
    159  CA        33.8000  -15.4500   20.2530 C.3   235  TRP235      0.1640
    160  C         34.8170  -16.0190   21.2210 C.2   235  TRP235      0.2290
    161  O         34.5040  -16.3040   22.3660 O.2   235  TRP235     -0.2864
    162  CB        32.7280  -16.5120   20.0020 C.3   235  TRP235      0.0576
    163  CG        31.5420  -15.9430   19.2580 C.ar  235  TRP235      0.0006
    164  CD1       31.1780  -14.6520   19.1950 C.ar  235  TRP235      0.0946
    165  CD2       30.5500  -16.6980   18.5450 C.ar  235  TRP235      0.0152
    166  NE1       29.9890  -14.5280   18.4540 N.ar  235  TRP235     -0.2442
    167  CE2       29.6080  -15.7830   18.0430 C.ar  235  TRP235      0.0810
    168  CE3       30.4030  -18.0740   18.2580 C.ar  235  TRP235      0.0012
    169  CZ2       28.5170  -16.1730   17.2600 C.ar  235  TRP235      0.0191
    170  CZ3       29.2840  -18.4850   17.5030 C.ar  235  TRP235      0.0001
    171  CH2       28.3490  -17.5250   17.0280 C.ar  235  TRP235      0.0015
@<TRIPOS>BOND
     1   116   115    1
     2   115   114    1
     3   115   117    1
     4   114   111    1
     5   110   111    1
     6   111   112    1
     7   125   123    1
     8     1     2    1
     9   112   118   am
    10   112   113    2
    11   123   122    1
    12   118   119    1
    13     5     2    1
    14     5     6    1
    15     3     2    1
    16     3     4    2
    17   122   119    1
    18   122   124    1
    19     6     7    1
    20   119   120    1
    21     7     8    1
    22   132   131    1
    23   120   121    2
    24   131   133    1
    25   131   130    1
    26     8     9    1
    27    29    28    1
    28    62    63    1
    29    63    64    1
    30    27    28    1
    31    27    26    1
    32   126   127    1
    33    25    26    1
    34    25    22    1
    35   130   127    1
    36    64    65    2
    37    21    22    1
    38   127   128    1
    39   141   139   ar
    40    23    22    1
    41    23    24    2
    42    73    71    1
    43    52    51    1
    44   140   139   ar
    45    81    79   am
    46   139   138    1
    47    50    51   ar
    48    50    48   ar
    49   128   129    2
    50    80    79    2
    51    51    49   ar
    52    19    18    1
    53    79    78    1
    54    10    11    1
    55    70    71    1
    56    70    67    1
    57    71    72    1
    58    48    46   ar
    59   138   135    1
    60    16    15    1
    61    16    17    1
    62    66    67    1
    63    78    75    1
    64    15    14    1
    65    49    47   ar
    66    14    11    1
    67    11    12    1
    68    18    17    2
    69    18    20    1
    70   134   135    1
    71    67    68    1
    72    74    68   am
    73    74    75    1
    74    12    13    2
    75    46    47   ar
    76    46    45    1
    77    40    38    1
    78   135   136    1
    79    68    69    2
    80    75    76    1
    81    45    42    1
    82    38    39    1
    83    38    37    2
    84   136   142   am
    85   136   137    2
    86   148   147    2
    87   142   143    1
    88   149   147   am
    89    76    77    2
    90   147   146    1
    91    37    36    1
    92    42    41    1
    93    42    43    1
    94    41    32   am
    95   146   143    1
    96    88    86    1
    97   143   144    1
    98    60    59   ar
    99    43    44    2
   100    30    31    1
   101    34    35    1
   102    34    31    1
   103    61    59   ar
   104    86    87    1
   105    86    83    1
   106    36    35    1
   107    32    31    1
   108    32    33    2
   109    59    58    1
   110   144   145    2
   111    82    83    1
   112   157   155    1
   113    83    84    1
   114   150   151    1
   115   154   155    1
   116   154   151    1
   117    58    57    1
   118   156   155    1
   119   109   107   ar
   120   171   169   ar
   121   171   170   ar
   122    57    54    1
   123    84    85    2
   124   169   167   ar
   125   151   152    1
   126   170   168   ar
   127   107   108   ar
   128   107   106    1
   129   167   166   ar
   130   167   165   ar
   131    53    54    1
   132   168   165   ar
   133    54    55    1
   134   166   164   ar
   135   165   163   ar
   136   106   105    1
   137   152   158   am
   138   152   153    2
   139    55    56    2
   140   158   159    1
   141   164   163   ar
   142   163   162    1
   143   162   159    1
   144   105   102    1
   145    93    94    1
   146    93    90    1
   147   159   160    1
   148    89    90    1
   149   101   102    1
   150   101    91   am
   151    94    96   ar
   152    94    95   ar
   153    96    98   ar
   154   102   103    1
   155    90    91    1
   156   160   161    2
   157    95    97   ar
   158   103   104    2
   159    98    99   ar
   160    91    92    2
   161    97    99   ar
   162    99   100    1
