@<TRIPOS>MOLECULE
tmp/3smnA01.pdb
 136 127 0 0 0
SMALL
GASTEIGER

@<TRIPOS>ATOM
      1  N         24.8410   -9.0430    8.5450 N.3    19  GLU19      -0.1245
      2  CA        23.5370   -9.2590    7.8690 C.3    19  GLU19       0.1567
      3  C         22.4070   -8.4130    8.5460 C.2    19  GLU19       0.2260
      4  O         21.5840   -7.7450    7.8750 O.2    19  GLU19      -0.2867
      5  CB        23.1460  -10.7440    7.8670 C.3    19  GLU19       0.0388
      6  CG        21.9250  -10.9550    6.9140 C.3    19  GLU19       0.1160
      7  CD        21.3840  -12.4040    6.8900 C.2    19  GLU19       0.3649
      8  OE1       21.7160  -13.1830    7.7990 O.co2  19  GLU19      -0.2457
      9  OE2       20.6100  -12.7340    5.9470 O.co2  19  GLU19      -0.2457
     10  N         25.6210  -26.2510    6.5950 N.3    43  ASN43      -0.1240
     11  CA        24.4790  -25.7170    5.8880 C.3    43  ASN43       0.1653
     12  C         24.2240  -24.2220    6.1590 C.2    43  ASN43       0.2266
     13  O         24.0670  -23.4570    5.2200 O.2    43  ASN43      -0.2867
     14  CB        23.2120  -26.5510    6.2390 C.3    43  ASN43       0.1155
     15  CG        22.0070  -26.1090    5.4800 C.2    43  ASN43       0.2627
     16  OD1       21.9380  -26.2460    4.2490 O.2    43  ASN43      -0.2716
     17  ND2       21.0080  -25.6170    6.2000 N.am   43  ASN43      -0.0877
     18  N         24.6590  -20.9030    3.5720 N.3    47  ASN47      -0.1240
     19  CA        23.5870  -19.9700    3.3190 C.3    47  ASN47       0.1653
     20  C         24.0860  -18.5360    3.5580 C.2    47  ASN47       0.2266
     21  O         23.7310  -17.6480    2.7940 O.2    47  ASN47      -0.2867
     22  CB        22.3910  -20.2310    4.2610 C.3    47  ASN47       0.1155
     23  CG        21.6890  -21.5410    3.9790 C.2    47  ASN47       0.2627
     24  OD1       20.9700  -22.0970    4.8600 O.2    47  ASN47      -0.2716
     25  ND2       21.8310  -22.0210    2.7840 N.am   47  ASN47      -0.0877
     26  N         26.3350  -17.3900    0.6230 N.3    50  SER50      -0.1202
     27  CA        25.5510  -17.1250   -0.5740 C.3    50  SER50       0.2020
     28  C         24.7840  -15.8000   -0.4710 C.2    50  SER50       0.2618
     29  O         24.7830  -15.0160   -1.4290 O.2    50  SER50      -0.2717
     30  CB        24.5830  -18.2900   -0.8760 C.3    50  SER50       0.2103
     31  OG        23.4110  -18.2330   -0.0750 O.3    50  SER50      -0.2182
     32  N         24.1430  -15.5610    0.6690 N.am   51  VAL51      -0.1979
     33  CA        23.3890  -14.3030    0.8980 C.3    51  VAL51       0.1595
     34  C         24.3090  -13.0590    0.7990 C.2    51  VAL51       0.2287
     35  O         23.9560  -12.0480    0.1500 O.2    51  VAL51      -0.2864
     36  CB        22.6480  -14.3510    2.2840 C.3    51  VAL51       0.0276
     37  CG1       22.1050  -12.9380    2.7530 C.3    51  VAL51       0.0022
     38  CG2       21.4660  -15.4110    2.2000 C.3    51  VAL51       0.0022
     39  N         25.4490  -12.5510   -2.9070 N.3    54  LYS54      -0.1245
     40  CA        24.3360  -12.3160   -3.8010 C.3    54  LYS54       0.1561
     41  C         23.8690  -10.8580   -3.6260 C.2    54  LYS54       0.2260
     42  O         23.4290  -10.2290   -4.6030 O.2    54  LYS54      -0.2867
     43  CB        23.1630  -13.2110   -3.4350 C.3    54  LYS54       0.0271
     44  CG        22.1740  -13.3680   -4.6130 C.3    54  LYS54       0.0035
     45  CD        22.7260  -14.3800   -5.7170 C.3    54  LYS54       0.0206
     46  CE        21.5960  -14.8830   -6.6580 C.3    54  LYS54       0.1093
     47  NZ        20.7940  -13.6740   -7.2280 N.3    54  LYS54      -0.1314
     48  N         24.7260  -27.0310   -4.0870 N.3   124  PHE124     -0.1241
     49  CA        24.6790  -25.6190   -3.6580 C.3   124  PHE124      0.1605
     50  C         25.8700  -24.8350   -4.2770 C.2   124  PHE124      0.2264
     51  O         25.6630  -23.7880   -4.8650 O.2   124  PHE124     -0.2867
     52  CB        24.6620  -25.5770   -2.1320 C.3   124  PHE124      0.0534
     53  CG        24.3840  -24.2120   -1.5150 C.ar  124  PHE124     -0.0203
     54  CD1       25.4040  -23.2530   -1.4130 C.ar  124  PHE124     -0.0042
     55  CD2       23.1460  -23.9460   -0.9070 C.ar  124  PHE124     -0.0042
     56  CE1       25.1910  -21.9910   -0.7670 C.ar  124  PHE124     -0.0003
     57  CE2       22.9030  -22.7180   -0.2570 C.ar  124  PHE124     -0.0003
     58  CZ        23.9210  -21.7170   -0.1860 C.ar  124  PHE124     -0.0000
     59  N         25.5880  -24.5740   -8.1110 N.3   127  LYS127     -0.1231
     60  CA        24.6440  -23.5140   -8.4620 C.3   127  LYS127      0.1693
     61  C         25.3220  -22.1100   -8.3760 C.2   127  LYS127      0.2591
     62  O         25.2070  -21.2840   -9.2940 O.2   127  LYS127     -0.2718
     63  CB        23.4430  -23.4860   -7.5150 C.3   127  LYS127      0.0285
     64  CG        22.5490  -22.2810   -7.8360 C.3   127  LYS127      0.0035
     65  CD        21.2340  -22.3540   -6.9250 C.3   127  LYS127      0.0206
     66  CE        20.3950  -21.0490   -7.0600 C.3   127  LYS127      0.1093
     67  NZ        21.1590  -19.8190   -6.6360 N.3   127  LYS127     -0.1314
     68  N         26.0540  -21.8710   -7.2860 N.am  128  MET128     -0.1979
     69  CA        26.7910  -20.5960   -7.0990 C.3   128  MET128      0.1605
     70  C         27.7870  -20.4400   -8.2380 C.2   128  MET128      0.2287
     71  O         27.8490  -19.3770   -8.7990 O.2   128  MET128     -0.2864
     72  CB        27.5250  -20.5240   -5.7670 C.3   128  MET128      0.0413
     73  CG        26.5700  -20.3640   -4.5010 C.3   128  MET128      0.0598
     74  SD        27.6390  -20.1400   -3.0240 S.3   128  MET128     -0.1393
     75  CE        28.4350  -18.5900   -3.3900 C.3   128  MET128      0.0692
     76  N         25.8620  -19.3250  -11.2100 N.3   131  ASP131     -0.1239
     77  CA        25.3520  -17.9480  -10.9890 C.3   131  ASP131      0.1674
     78  C         26.4490  -16.9030  -11.2910 C.2   131  ASP131      0.2266
     79  O         26.1860  -15.8940  -11.9880 O.2   131  ASP131     -0.2867
     80  CB        24.8440  -17.7570   -9.5360 C.3   131  ASP131      0.1410
     81  CG        23.5310  -18.4730   -9.2480 C.2   131  ASP131      0.3668
     82  OD1       22.7740  -18.8420  -10.2150 O.co2 131  ASP131     -0.2456
     83  OD2       23.2740  -18.7060   -8.0290 O.co2 131  ASP131     -0.2456
     84  N         13.0890  -30.1710   -3.0770 N.3   171  HIS171     -0.1227
     85  CA        14.1990  -29.5730   -2.2620 C.3   171  HIS171      0.1737
     86  C         14.4340  -28.0680   -2.6270 C.2   171  HIS171      0.2438
     87  O         14.6080  -27.7720   -3.7940 O.2   171  HIS171     -0.2733
     88  CB        15.5230  -30.3860   -2.4610 C.3   171  HIS171      0.0758
     89  CG        16.5040  -30.1810   -1.3360 C.ar  171  HIS171      0.0818
     90  ND1       17.0700  -28.9440   -1.0680 N.ar  171  HIS171     -0.2268
     91  CD2       16.9150  -31.0080   -0.3310 C.ar  171  HIS171      0.1154
     92  CE1       17.8490  -29.0390    0.0060 C.ar  171  HIS171      0.1986
     93  NE2       17.7930  -30.2850    0.4590 N.ar  171  HIS171     -0.2212
     94  N         14.4280  -27.1110   -1.6640 N.am  172  PRO172     -0.2718
     95  CA        14.6880  -25.6970   -2.0650 C.3   172  PRO172      0.1535
     96  C         15.9220  -25.4310   -2.9460 C.2   172  PRO172      0.2598
     97  O         15.8820  -24.5930   -3.8330 O.2   172  PRO172     -0.2715
     98  CB        14.7920  -24.9780   -0.7160 C.3   172  PRO172      0.0310
     99  CG        13.7410  -25.7790    0.1750 C.3   172  PRO172      0.0237
    100  CD        14.1020  -27.2090   -0.2210 C.3   172  PRO172      0.0939
    101  N         17.0050  -26.1710   -2.7170 N.am  173  ILE173     -0.1978
    102  CA        18.2340  -25.9830   -3.4980 C.3   173  ILE173      0.1596
    103  C         17.9550  -26.4890   -4.8960 C.2   173  ILE173      0.2287
    104  O         18.3160  -25.8360   -5.8570 O.2   173  ILE173     -0.2864
    105  CB        19.4680  -26.7800   -2.8980 C.3   173  ILE173      0.0276
    106  CG1       19.8650  -26.2140   -1.4890 C.3   173  ILE173      0.0022
    107  CG2       20.6550  -26.6990   -3.8940 C.3   173  ILE173      0.0022
    108  CD1       20.7360  -27.0960   -0.6790 C.3   173  ILE173      0.0001
    109  N         15.6910  -23.7970   -6.4840 N.3   176  GLY176     -0.1225
    110  CA        16.3830  -22.5000   -6.7640 C.3   176  GLY176      0.1811
    111  C         17.3360  -22.6920   -7.9290 C.2   176  GLY176      0.2280
    112  O         17.4850  -21.8050   -8.7570 O.2   176  GLY176     -0.2866
    113  N          8.5880  -23.7780    2.6320 N.3   220  ASP220     -0.1239
    114  CA         9.8570  -23.4840    1.9340 C.3   220  ASP220      0.1674
    115  C          9.8030  -23.7880    0.4270 C.2   220  ASP220      0.2266
    116  O         10.3050  -23.0220   -0.3670 O.2   220  ASP220     -0.2867
    117  CB        11.0360  -24.2660    2.5560 C.3   220  ASP220      0.1410
    118  CG        11.1600  -24.0580    4.1070 C.2   220  ASP220      0.3668
    119  OD1       11.6080  -25.0060    4.7730 O.co2 220  ASP220     -0.2456
    120  OD2       10.7860  -22.9840    4.6500 O.co2 220  ASP220     -0.2456
    121  N          7.2990  -21.4650   -1.7340 N.3   223  LEU223     -0.1231
    122  CA         7.8740  -20.1060   -1.9150 C.3   223  LEU223      0.1693
    123  C          8.6590  -20.0130   -3.2400 C.2   223  LEU223      0.2591
    124  O          8.5390  -19.0320   -4.0140 O.2   223  LEU223     -0.2718
    125  CB         8.7900  -19.7450   -0.7320 C.3   223  LEU223      0.0284
    126  CG         9.4630  -18.3580   -0.7150 C.3   223  LEU223      0.0019
    127  CD1        8.4370  -17.2890   -0.4050 C.3   223  LEU223      0.0001
    128  CD2       10.6470  -18.2330    0.2840 C.3   223  LEU223      0.0001
    129  N          9.4920  -21.0180   -3.5060 N.am  224  ILE224     -0.1980
    130  CA        10.3210  -20.9500   -4.7220 C.3   224  ILE224      0.1595
    131  C          9.5020  -21.3780   -5.9160 C.2   224  ILE224      0.2287
    132  O          9.7340  -20.9360   -7.0300 O.2   224  ILE224     -0.2864
    133  CB        11.5860  -21.8090   -4.5920 C.3   224  ILE224      0.0276
    134  CG1       12.3720  -21.3160   -3.3290 C.3   224  ILE224      0.0022
    135  CG2       12.4300  -21.6490   -5.8410 C.3   224  ILE224      0.0022
    136  CD1       13.6090  -22.0720   -2.9860 C.3   224  ILE224      0.0001
@<TRIPOS>BOND
     1    79    78    2
     2    78    77    1
     3    76    77    1
     4    77    80    1
     5    82    81   ar
     6    80    81    1
     7    62    61    2
     8    81    83   ar
     9    71    70    2
    10   112   111    2
    11    60    61    1
    12    60    59    1
    13    60    63    1
    14    61    68   am
    15    70    69    1
    16   111   110    1
    17    64    63    1
    18    64    65    1
    19    68    69    1
    20    47    46    1
    21    69    72    1
    22    66    65    1
    23    66    67    1
    24   132   131    2
    25   110   109    1
    26    46    45    1
    27   131   130    1
    28   104   103    2
    29   135   133    1
    30    72    73    1
    31    45    44    1
    32   103   102    1
    33    51    50    2
    34   130   133    1
    35   130   129    1
    36    44    43    1
    37    42    41    2
    38   133   134    1
    39    73    74    1
    40    50    49    1
    41    48    49    1
    42   124   123    2
    43   107   105    1
    44    97    96    2
    45    40    41    1
    46    40    43    1
    47    40    39    1
    48    87    86    2
    49    49    52    1
    50   129   123   am
    51   102   105    1
    52   102   101    1
    53    75    74    1
    54   134   136    1
    55   123   122    1
    56    84    85    1
    57    96   101   am
    58    96    95    1
    59   105   106    1
    60    86    85    1
    61    86    94   am
    62    88    85    1
    63    88    89    1
    64    52    53    1
    65    95    94    1
    66    95    98    1
    67   122   121    1
    68   122   125    1
    69    94   100    1
    70    53    54   ar
    71    53    55   ar
    72   106   108    1
    73    29    28    2
    74    54    56   ar
    75    89    90   ar
    76    89    91   ar
    77    90    92   ar
    78    55    57   ar
    79    30    27    1
    80    30    31    1
    81    56    58   ar
    82   125   126    1
    83    98    99    1
    84   126   127    1
    85   126   128    1
    86    27    28    1
    87    27    26    1
    88    28    32   am
    89   116   115    2
    90    91    93   ar
    91    57    58   ar
    92   100    99    1
    93    92    93   ar
    94    35    34    2
    95   115   114    1
    96    32    33    1
    97    34    33    1
    98    33    36    1
    99   114   117    1
   100   114   113    1
   101    38    36    1
   102    36    37    1
   103   117   118    1
   104    25    23   am
   105    21    20    2
   106    19    20    1
   107    19    18    1
   108    19    22    1
   109    23    22    1
   110    23    24    2
   111   118   120   ar
   112   118   119   ar
   113    16    15    2
   114    13    12    2
   115    15    17   am
   116    15    14    1
   117    11    12    1
   118    11    14    1
   119    11    10    1
   120     9     7   ar
   121     7     6    1
   122     7     8   ar
   123     6     5    1
   124     5     2    1
   125     2     1    1
   126     2     3    1
   127     4     3    2
