@<TRIPOS>MOLECULE
tmp/3smoA01.pdb
 127 119 0 0 0
SMALL
GASTEIGER

@<TRIPOS>ATOM
      1  N        -24.6210  -20.7510   -3.5350 N.3    46  ASN46      -0.1240
      2  CA       -23.5920  -19.7380   -3.2860 C.3    46  ASN46       0.1653
      3  C        -24.0980  -18.3410   -3.5270 C.2    46  ASN46       0.2266
      4  O        -23.8190  -17.4830   -2.7540 O.2    46  ASN46      -0.2867
      5  CB       -22.3620  -20.0090   -4.1490 C.3    46  ASN46       0.1155
      6  CG       -21.6070  -21.3020   -3.6860 C.2    46  ASN46       0.2627
      7  OD1      -21.8520  -21.8550   -2.6310 O.2    46  ASN46      -0.2716
      8  ND2      -20.6540  -21.7420   -4.5180 N.am   46  ASN46      -0.0877
      9  N        -26.2820  -17.2690   -0.5950 N.3    49  SER49      -0.1202
     10  CA       -25.4860  -17.0000    0.6050 C.3    49  SER49       0.2020
     11  C        -24.7320  -15.6830    0.4600 C.2    49  SER49       0.2618
     12  O        -24.7050  -14.8590    1.3850 O.2    49  SER49      -0.2717
     13  CB       -24.4810  -18.1430    0.8160 C.3    49  SER49       0.2103
     14  OG       -23.7340  -18.0250    2.0300 O.3    49  SER49      -0.2182
     15  N        -24.1170  -15.4790   -0.6900 N.am   50  VAL50      -0.1979
     16  CA       -23.3280  -14.2440   -0.8600 C.3    50  VAL50       0.1595
     17  C        -24.2490  -12.9860   -0.7720 C.2    50  VAL50       0.2287
     18  O        -23.8790  -11.9440   -0.1650 O.2    50  VAL50      -0.2864
     19  CB       -22.6510  -14.2640   -2.2590 C.3    50  VAL50       0.0276
     20  CG1      -22.1070  -12.8690   -2.6930 C.3    50  VAL50       0.0022
     21  CG2      -21.4910  -15.2770   -2.2690 C.3    50  VAL50       0.0022
     22  N        -25.2830  -12.5060    2.8870 N.3    53  LYS53      -0.1245
     23  CA       -24.1620  -12.2530    3.7710 C.3    53  LYS53       0.1561
     24  C        -23.7220  -10.7950    3.5770 C.2    53  LYS53       0.2260
     25  O        -23.2870  -10.1520    4.5280 O.2    53  LYS53      -0.2867
     26  CB       -23.0160  -13.2290    3.3950 C.3    53  LYS53       0.0271
     27  CG       -21.9910  -13.4010    4.5330 C.3    53  LYS53       0.0035
     28  CD       -22.6860  -14.1080    5.7870 C.3    53  LYS53       0.0206
     29  CE       -21.7940  -15.0760    6.3360 C.3    53  LYS53       0.1093
     30  NZ       -20.4280  -14.5350    6.7810 N.3    53  LYS53      -0.1314
     31  N        -24.6200  -26.8700    4.0830 N.3   123  PHE123     -0.1241
     32  CA       -24.6020  -25.4270    3.6900 C.3   123  PHE123      0.1605
     33  C        -25.7650  -24.7000    4.3110 C.2   123  PHE123      0.2264
     34  O        -25.5820  -23.6090    4.8520 O.2   123  PHE123     -0.2867
     35  CB       -24.7060  -25.4090    2.1560 C.3   123  PHE123      0.0534
     36  CG       -24.5060  -24.0390    1.5560 C.ar  123  PHE123     -0.0203
     37  CD1      -23.2480  -23.7100    0.9950 C.ar  123  PHE123     -0.0042
     38  CD2      -25.5770  -23.1220    1.5200 C.ar  123  PHE123     -0.0042
     39  CE1      -23.0530  -22.4750    0.3770 C.ar  123  PHE123     -0.0003
     40  CE2      -25.4160  -21.8070    0.8570 C.ar  123  PHE123     -0.0003
     41  CZ       -24.1440  -21.5370    0.3360 C.ar  123  PHE123     -0.0000
     42  N        -25.5030  -24.4260    8.0870 N.3   126  LYS126     -0.1231
     43  CA       -24.5670  -23.3960    8.4220 C.3   126  LYS126      0.1693
     44  C        -25.2570  -22.0050    8.2930 C.2   126  LYS126      0.2591
     45  O        -25.1530  -21.1820    9.2120 O.2   126  LYS126     -0.2718
     46  CB       -23.3400  -23.3960    7.4490 C.3   126  LYS126      0.0285
     47  CG       -22.4010  -22.1900    7.7940 C.3   126  LYS126      0.0035
     48  CD       -21.1620  -22.2640    6.8330 C.3   126  LYS126      0.0206
     49  CE       -20.3620  -20.9370    7.0300 C.3   126  LYS126      0.1093
     50  NZ       -21.0460  -19.7880    6.4800 N.3   126  LYS126     -0.1314
     51  N        -25.9750  -21.7810    7.1930 N.am  127  MET127     -0.1979
     52  CA       -26.7050  -20.4590    7.0600 C.3   127  MET127      0.1605
     53  C        -27.6720  -20.2850    8.2270 C.2   127  MET127      0.2287
     54  O        -27.6890  -19.2150    8.7790 O.2   127  MET127     -0.2864
     55  CB       -27.4730  -20.3680    5.7140 C.3   127  MET127      0.0413
     56  CG       -26.4970  -20.2080    4.5510 C.3   127  MET127      0.0598
     57  SD       -27.5530  -20.0290    3.0490 S.3   127  MET127     -0.1393
     58  CE       -28.1730  -18.3680    3.3380 C.3   127  MET127      0.0692
     59  N        -25.7520  -19.2260   11.0930 N.3   130  ASP130     -0.1239
     60  CA       -25.2050  -17.8590   10.9130 C.3   130  ASP130      0.1674
     61  C        -26.3100  -16.8490   11.1850 C.2   130  ASP130      0.2266
     62  O        -26.0380  -15.8310   11.8660 O.2   130  ASP130     -0.2867
     63  CB       -24.7530  -17.6530    9.4770 C.3   130  ASP130      0.1410
     64  CG       -23.4740  -18.4700    9.1410 C.2   130  ASP130      0.3668
     65  OD1      -22.7480  -18.8140   10.0870 O.co2 130  ASP130     -0.2456
     66  OD2      -23.2130  -18.6280    7.9210 O.co2 130  ASP130     -0.2456
     67  N        -13.1030  -29.9940    3.0860 N.3   170  HIS170     -0.1227
     68  CA       -14.1790  -29.4150    2.2440 C.3   170  HIS170      0.1737
     69  C        -14.3890  -27.9340    2.6430 C.2   170  HIS170      0.2438
     70  O        -14.5770  -27.6590    3.8210 O.2   170  HIS170     -0.2733
     71  CB       -15.4960  -30.1220    2.4990 C.3   170  HIS170      0.0758
     72  CG       -16.4540  -29.8780    1.3790 C.ar  170  HIS170      0.0818
     73  ND1      -17.0390  -28.6400    1.1590 N.ar  170  HIS170     -0.2268
     74  CD2      -16.8290  -30.6790    0.3440 C.ar  170  HIS170      0.1154
     75  CE1      -17.7820  -28.7020    0.0470 C.ar  170  HIS170      0.1986
     76  NE2      -17.6920  -29.9430   -0.4460 N.ar  170  HIS170     -0.2212
     77  N        -14.4230  -26.9950    1.7000 N.am  171  PRO171     -0.2718
     78  CA       -14.5790  -25.5980    2.1300 C.3   171  PRO171      0.1535
     79  C        -15.8290  -25.3240    2.9730 C.2   171  PRO171      0.2598
     80  O        -15.7960  -24.5050    3.8590 O.2   171  PRO171     -0.2715
     81  CB       -14.7250  -24.8560    0.8060 C.3   171  PRO171      0.0310
     82  CG       -13.7040  -25.6140   -0.1160 C.3   171  PRO171      0.0237
     83  CD       -14.0590  -27.0770    0.2570 C.3   171  PRO171      0.0939
     84  N        -16.8880  -26.0920    2.7350 N.am  172  ILE172     -0.1978
     85  CA       -18.1150  -25.8290    3.5320 C.3   172  ILE172      0.1596
     86  C        -17.8450  -26.3010    4.9330 C.2   172  ILE172      0.2287
     87  O        -18.2110  -25.6430    5.9010 O.2   172  ILE172     -0.2864
     88  CB       -19.3300  -26.5650    2.8880 C.3   172  ILE172      0.0276
     89  CG1      -19.6640  -25.9070    1.5460 C.3   172  ILE172      0.0022
     90  CG2      -20.5540  -26.5030    3.9080 C.3   172  ILE172      0.0022
     91  CD1      -20.7200  -26.7180    0.7680 C.3   172  ILE172      0.0001
     92  N        -15.6030  -23.7100    6.5360 N.3   175  GLY175     -0.1225
     93  CA       -16.2950  -22.3900    6.8300 C.3   175  GLY175      0.1811
     94  C        -17.2980  -22.5760    7.9690 C.2   175  GLY175      0.2280
     95  O        -17.4890  -21.6660    8.7770 O.2   175  GLY175     -0.2866
     96  N         -8.5000  -23.7580   -2.6470 N.3   219  ASP219     -0.1239
     97  CA        -9.8030  -23.4670   -2.0060 C.3   219  ASP219      0.1674
     98  C         -9.7420  -23.7570   -0.5330 C.2   219  ASP219      0.2266
     99  O        -10.2310  -22.9880    0.2470 O.2   219  ASP219     -0.2867
    100  CB       -10.9050  -24.3730   -2.5600 C.3   219  ASP219      0.1410
    101  CG       -11.2750  -24.0400   -4.0280 C.2   219  ASP219      0.3668
    102  OD1      -11.0150  -22.8860   -4.5050 O.co2 219  ASP219     -0.2456
    103  OD2      -11.8650  -24.9680   -4.6220 O.co2 219  ASP219     -0.2456
    104  N         -7.3260  -21.4670    1.6630 N.3   222  LEU222     -0.1231
    105  CA        -7.8980  -20.1120    1.8420 C.3   222  LEU222      0.1693
    106  C         -8.6780  -20.0040    3.1620 C.2   222  LEU222      0.2591
    107  O         -8.5570  -19.0470    3.9040 O.2   222  LEU222     -0.2718
    108  CB        -8.8510  -19.7680    0.6620 C.3   222  LEU222      0.0284
    109  CG        -9.4140  -18.3120    0.5670 C.3   222  LEU222      0.0019
    110  CD1       -8.3420  -17.3020    0.2530 C.3   222  LEU222      0.0001
    111  CD2      -10.3900  -18.1960   -0.5600 C.3   222  LEU222      0.0001
    112  N         -9.5470  -20.9640    3.4010 N.am  223  ILE223     -0.1980
    113  CA       -10.3760  -20.8760    4.6310 C.3   223  ILE223      0.1595
    114  C         -9.5620  -21.3530    5.8080 C.2   223  ILE223      0.2287
    115  O         -9.7640  -20.9120    6.9170 O.2   223  ILE223     -0.2864
    116  CB       -11.6720  -21.6360    4.4740 C.3   223  ILE223      0.0276
    117  CG1      -12.4480  -20.9830    3.2910 C.3   223  ILE223      0.0022
    118  CG2      -12.4860  -21.6210    5.7570 C.3   223  ILE223      0.0022
    119  CD1      -13.6360  -21.8410    2.7640 C.3   223  ILE223      0.0001
    120  N         -8.1290  -18.4090    7.3420 N.3   226  LEU226     -0.1245
    121  CA        -9.0210  -17.7150    8.2560 C.3   226  LEU226      0.1561
    122  C         -9.0530  -18.3340    9.6530 C.2   226  LEU226      0.2260
    123  O         -9.1560  -17.5700   10.6650 O.2   226  LEU226     -0.2867
    124  CB       -10.5010  -17.6970    7.6700 C.3   226  LEU226      0.0270
    125  CG       -10.5680  -17.1290    6.2500 C.3   226  LEU226      0.0019
    126  CD1      -11.9880  -17.2890    5.7950 C.3   226  LEU226      0.0001
    127  CD2      -10.2080  -15.6240    6.2580 C.3   226  LEU226      0.0001
@<TRIPOS>BOND
     1   103   101   ar
     2     8     6   am
     3   102   101   ar
     4     5     6    1
     5     5     2    1
     6   101   100    1
     7     6     7    2
     8     1     2    1
     9     3     2    1
    10     3     4    2
    11    20    19    1
    12    96    97    1
    13   100    97    1
    14    21    19    1
    15    19    16    1
    16    97    98    1
    17    16    17    1
    18    16    15    1
    19    17    18    2
    20    15    11   am
    21     9    10    1
    22   111   109    1
    23    98    99    2
    24    76    75   ar
    25    76    74   ar
    26    82    83    1
    27    82    81    1
    28    75    73   ar
    29   110   109    1
    30    83    77    1
    31    41    39   ar
    32    41    40   ar
    33    74    72   ar
    34    39    37   ar
    35    11    10    1
    36    11    12    2
    37   109   108    1
    38    10    13    1
    39   108   105    1
    40    91    89    1
    41    81    78    1
    42    13    14    1
    43    40    38   ar
    44    37    36   ar
    45    73    72   ar
    46    72    71    1
    47    38    36   ar
    48    89    88    1
    49    36    35    1
    50   104   105    1
    51    77    78    1
    52    77    69   am
    53   105   106    1
    54    78    79    1
    55    35    32    1
    56    68    71    1
    57    68    69    1
    58    68    67    1
    59    69    70    2
    60    84    79   am
    61    84    85    1
    62   119   117    1
    63    22    23    1
    64    88    85    1
    65    88    90    1
    66    79    80    2
    67    57    58    1
    68    57    56    1
    69   106   112   am
    70   106   107    2
    71   117   116    1
    72    26    23    1
    73    26    27    1
    74   112   113    1
    75    85    86    1
    76    24    23    1
    77    24    25    2
    78    32    31    1
    79    32    33    1
    80    33    34    2
    81   116   113    1
    82   116   118    1
    83    27    28    1
    84    56    55    1
    85   113   114    1
    86    86    87    2
    87    55    52    1
    88    28    29    1
    89   126   125    1
    90   114   115    2
    91   125   127    1
    92   125   124    1
    93    29    30    1
    94    50    49    1
    95    92    93    1
    96    93    94    1
    97    48    49    1
    98    48    47    1
    99    52    51    1
   100    52    53    1
   101    51    44   am
   102   120   121    1
   103    46    47    1
   104    46    43    1
   105   124   121    1
   106    66    64   ar
   107    94    95    2
   108    42    43    1
   109    53    54    2
   110   121   122    1
   111    44    43    1
   112    44    45    2
   113    64    63    1
   114    64    65   ar
   115    63    60    1
   116   122   123    2
   117    60    59    1
   118    60    61    1
   119    61    62    2
