@<TRIPOS>MOLECULE
tmp/3smoA00.pdb
 124 117 0 0 0
SMALL
GASTEIGER

@<TRIPOS>ATOM
      1  N        -25.0460   -5.1880    9.8920 N.3    60  ARG60      -0.1245
      2  CA       -24.3240   -5.4740   11.1760 C.3    60  ARG60       0.1563
      3  C        -23.2580   -4.4450   11.4350 C.2    60  ARG60       0.2260
      4  O        -23.1160   -3.9600   12.5910 O.2    60  ARG60      -0.2867
      5  CB       -23.6890   -6.8860   11.0380 C.3    60  ARG60       0.0307
      6  CG       -24.7720   -7.9510   11.1530 C.3    60  ARG60       0.0489
      7  CD       -24.1600   -9.3370   10.6690 C.3    60  ARG60       0.2205
      8  NE       -23.1290   -9.7960   11.6380 N.pl3  60  ARG60      -0.0865
      9  CZ       -22.0110  -10.4200   11.2590 C.cat  60  ARG60       0.5346
     10  NH1      -21.7520  -10.6290    9.9780 N.pl3  60  ARG60       0.1354
     11  NH2      -21.1520  -10.8810   12.1840 N.pl3  60  ARG60       0.1354
     12  N        -23.1320   -1.9650   14.6130 N.3    64  ARG64      -0.1245
     13  CA       -22.0390   -1.8560   15.5610 C.3    64  ARG64       0.1563
     14  C        -21.6000   -0.4060   15.7780 C.2    64  ARG64       0.2260
     15  O        -21.3420    0.0040   16.9320 O.2    64  ARG64      -0.2867
     16  CB       -20.8260   -2.6980   15.1520 C.3    64  ARG64       0.0307
     17  CG       -21.1850   -4.2200   15.2550 C.3    64  ARG64       0.0489
     18  CD       -19.8850   -5.0460   15.1420 C.3    64  ARG64       0.2205
     19  NE       -19.2230   -4.9120   13.7970 N.pl3  64  ARG64      -0.0865
     20  CZ       -19.5860   -5.5930   12.7100 C.cat  64  ARG64       0.5346
     21  NH1      -20.6090   -6.4370   12.7830 N.pl3  64  ARG64       0.1354
     22  NH2      -18.9310   -5.4360   11.5390 N.pl3  64  ARG64       0.1354
     23  N        -27.1140  -16.6660   14.7040 N.3   133  ARG133     -0.1245
     24  CA       -26.0590  -15.9520   15.3850 C.3   133  ARG133      0.1563
     25  C        -26.1550  -14.4090   15.1890 C.2   133  ARG133      0.2260
     26  O        -25.8690  -13.6550   16.1410 O.2   133  ARG133     -0.2867
     27  CB       -24.7150  -16.3920   14.7710 C.3   133  ARG133      0.0307
     28  CG       -23.4530  -15.6510   15.3330 C.3   133  ARG133      0.0489
     29  CD       -22.1640  -16.4710   15.1070 C.3   133  ARG133      0.2205
     30  NE       -21.9320  -16.7360   13.6640 N.pl3 133  ARG133     -0.0865
     31  CZ       -21.2510  -15.9580   12.8490 C.cat 133  ARG133      0.5346
     32  NH1      -20.7860  -14.8030   13.3000 N.pl3 133  ARG133      0.1354
     33  NH2      -21.0930  -16.3040   11.5550 N.pl3 133  ARG133      0.1354
     34  N        -26.4170  -11.5950   18.0720 N.3   137  GLU137     -0.1245
     35  CA       -25.5220  -10.4580   18.2810 C.3   137  GLU137      0.1567
     36  C        -26.2500   -9.2390   18.8070 C.2   137  GLU137      0.2260
     37  O        -25.6110   -8.4350   19.5000 O.2   137  GLU137     -0.2867
     38  CB       -24.8250  -10.0260   16.9820 C.3   137  GLU137      0.0388
     39  CG       -23.7730  -11.0410   16.5470 C.3   137  GLU137      0.1160
     40  CD       -23.1680  -10.7200   15.1570 C.2   137  GLU137      0.3649
     41  OE1      -23.7010   -9.8630   14.4060 O.co2 137  GLU137     -0.2457
     42  OE2      -22.1260  -11.3080   14.8140 O.co2 137  GLU137     -0.2457
     43  N        -15.1960  -22.6350   11.0590 N.3   178  LEU178     -0.1245
     44  CA       -14.7790  -21.2330   11.3260 C.3   178  LEU178      0.1561
     45  C        -15.9210  -20.4480   12.0550 C.2   178  LEU178      0.2260
     46  O        -15.6620  -19.8120   13.1310 O.2   178  LEU178     -0.2867
     47  CB       -14.4140  -20.5160    9.9950 C.3   178  LEU178      0.0270
     48  CG       -14.0120  -19.0160   10.1940 C.3   178  LEU178      0.0019
     49  CD1      -12.5560  -19.1270   10.7410 C.3   178  LEU178      0.0001
     50  CD2      -14.0300  -18.3750    8.7790 C.3   178  LEU178      0.0001
     51  N        -16.3470  -18.9920   15.9050 N.3   182  VAL182     -0.1245
     52  CA       -16.6720  -17.5790   16.2490 C.3   182  VAL182      0.1561
     53  C        -17.9350  -17.5130   17.1310 C.2   182  VAL182      0.2260
     54  O        -17.9570  -16.7880   18.1120 O.2   182  VAL182     -0.2867
     55  CB       -16.8870  -16.7450   14.9810 C.3   182  VAL182      0.0252
     56  CG1      -17.5060  -15.2740   15.3020 C.3   182  VAL182      0.0019
     57  CG2      -15.5100  -16.5670   14.2620 C.3   182  VAL182      0.0019
     58  N        -16.8080  -18.2820   20.5380 N.3   185  TYR185     -0.1227
     59  CA       -15.9010  -17.3150   21.1450 C.3   185  TYR185      0.1736
     60  C        -16.7200  -16.1050   21.5550 C.2   185  TYR185      0.2595
     61  O        -16.5850  -15.5780   22.7040 O.2   185  TYR185     -0.2718
     62  CB       -14.8790  -16.8340   20.0880 C.3   185  TYR185      0.0548
     63  CG       -13.7880  -15.9880   20.7350 C.ar  185  TYR185     -0.0200
     64  CD1      -12.6750  -16.5940   21.2780 C.ar  185  TYR185     -0.0009
     65  CD2      -13.9050  -14.5660   20.7720 C.ar  185  TYR185     -0.0009
     66  CE1      -11.6880  -15.8380   21.8750 C.ar  185  TYR185      0.0417
     67  CE2      -12.8700  -13.8070   21.3460 C.ar  185  TYR185      0.0417
     68  CZ       -11.8010  -14.4650   21.9000 C.ar  185  TYR185      0.1957
     69  OH       -10.7770  -13.7210   22.4840 O.3   185  TYR185     -0.2866
     70  N        -17.6000  -15.6590   20.6680 N.am  186  GLU186     -0.1979
     71  CA       -18.2020  -14.3430   21.0160 C.3   186  GLU186      0.1602
     72  C        -19.6530  -14.2850   21.3630 C.2   186  GLU186      0.2287
     73  O        -20.1080  -13.2910   21.9230 O.2   186  GLU186     -0.2864
     74  CB       -17.8380  -13.3180   19.9620 C.3   186  GLU186      0.0415
     75  CG       -18.4330  -13.5660   18.6590 C.3   186  GLU186      0.1163
     76  CD       -18.1350  -12.3950   17.6780 C.2   186  GLU186      0.3649
     77  OE1      -17.0580  -11.7110   17.7280 O.co2 186  GLU186     -0.2457
     78  OE2      -19.0660  -12.1140   16.9090 O.co2 186  GLU186     -0.2457
     79  N         -8.1290  -18.4090    7.3420 N.3   226  LEU226     -0.1245
     80  CA        -9.0210  -17.7150    8.2560 C.3   226  LEU226      0.1561
     81  C         -9.0530  -18.3340    9.6530 C.2   226  LEU226      0.2260
     82  O         -9.1560  -17.5700   10.6650 O.2   226  LEU226     -0.2867
     83  CB       -10.5010  -17.6970    7.6700 C.3   226  LEU226      0.0270
     84  CG       -10.5680  -17.1290    6.2500 C.3   226  LEU226      0.0019
     85  CD1      -11.9880  -17.2890    5.7950 C.3   226  LEU226      0.0001
     86  CD2      -10.2080  -15.6240    6.2580 C.3   226  LEU226      0.0001
     87  N         -5.9960  -17.1260   11.2960 N.3   229  ASP229     -0.1225
     88  CA        -6.0920  -15.7330   11.6490 C.3   229  ASP229      0.1805
     89  C         -6.8000  -15.6150   12.9960 C.2   229  ASP229      0.2597
     90  O         -6.4510  -14.7750   13.8690 O.2   229  ASP229     -0.2718
     91  CB        -6.8770  -14.9460   10.6600 C.3   229  ASP229      0.1424
     92  CG        -6.1950  -14.7780    9.2830 C.2   229  ASP229      0.3668
     93  OD1       -4.9270  -14.8540    9.1760 O.co2 229  ASP229     -0.2456
     94  OD2       -6.9710  -14.5420    8.3030 O.co2 229  ASP229     -0.2456
     95  N         -7.8870  -16.3850   13.1820 N.am  230  ASN230     -0.1974
     96  CA        -8.5730  -16.2990   14.4480 C.3   230  ASN230      0.1688
     97  C         -7.7390  -16.8660   15.5530 C.2   230  ASN230      0.2292
     98  O         -7.7330  -16.2940   16.5880 O.2   230  ASN230     -0.2864
     99  CB        -9.9030  -17.0450   14.3580 C.3   230  ASN230      0.1181
    100  CG       -10.8750  -16.2180   13.5660 C.2   230  ASN230      0.2629
    101  OD1      -10.5060  -15.0780   13.1420 O.2   230  ASN230     -0.2716
    102  ND2      -12.0980  -16.7420   13.3470 N.am  230  ASN230     -0.0877
    103  N         -5.3880  -14.2170   16.5860 N.3   233  LEU233     -0.1231
    104  CA        -6.0070  -13.1740   17.3160 C.3   233  LEU233      0.1693
    105  C         -6.3440  -13.5940   18.7640 C.2   233  LEU233      0.2592
    106  O         -6.1940  -12.8110   19.7330 O.2   233  LEU233     -0.2718
    107  CB        -7.2740  -12.7540   16.5250 C.3   233  LEU233      0.0284
    108  CG        -7.9990  -11.5370   16.9730 C.3   233  LEU233      0.0019
    109  CD1       -7.1850  -10.3350   16.6780 C.3   233  LEU233      0.0001
    110  CD2       -9.2730  -11.5120   16.0970 C.3   233  LEU233      0.0001
    111  N         -6.7230  -14.8500   18.9500 N.am  234  TRP234     -0.1976
    112  CA        -7.3040  -15.3000   20.2310 C.3   234  TRP234      0.1640
    113  C         -6.2950  -15.9090   21.1660 C.2   234  TRP234      0.2290
    114  O         -6.6200  -16.1660   22.3140 O.2   234  TRP234     -0.2864
    115  CB        -8.3610  -16.3690   19.9280 C.3   234  TRP234      0.0576
    116  CG        -9.5620  -15.7770   19.1800 C.ar  234  TRP234      0.0006
    117  CD1       -9.9140  -14.4940   19.0770 C.ar  234  TRP234      0.0946
    118  CD2      -10.5220  -16.5440   18.4490 C.ar  234  TRP234      0.0152
    119  NE1      -11.1380  -14.3890   18.3660 N.ar  234  TRP234     -0.2442
    120  CE2      -11.4970  -15.6580   17.9850 C.ar  234  TRP234      0.0810
    121  CE3      -10.6550  -17.9320   18.2050 C.ar  234  TRP234      0.0012
    122  CZ2      -12.5780  -16.0750   17.1660 C.ar  234  TRP234      0.0191
    123  CZ3      -11.7900  -18.3820   17.4660 C.ar  234  TRP234      0.0001
    124  CH2      -12.7330  -17.4340   16.9770 C.ar  234  TRP234      0.0015
@<TRIPOS>BOND
     1    85    84    1
     2    84    86    1
     3    84    83    1
     4    79    80    1
     5    83    80    1
     6    80    81    1
     7    94    92   ar
     8    50    48    1
     9    93    92   ar
    10    92    91    1
    11    81    82    2
    12     1     2    1
    13    10     9    1
    14    47    48    1
    15    47    44    1
    16    48    49    1
    17    91    88    1
    18     7     6    1
    19     7     8    1
    20     5     6    1
    21     5     2    1
    22    43    44    1
    23     2     3    1
    24     9     8    2
    25     9    11    1
    26    87    88    1
    27    44    45    1
    28     3     4    2
    29    22    20    1
    30    33    31    1
    31    88    89    1
    32    45    46    2
    33    20    21    1
    34    20    19    2
    35    31    32    1
    36    31    30    2
    37    89    95   am
    38    89    90    2
    39   101   100    2
    40    95    96    1
    41   102   100   am
    42   100    99    1
    43    30    29    1
    44    19    18    1
    45    57    55    1
    46    99    96    1
    47    41    40   ar
    48    96    97    1
    49    12    13    1
    50    23    24    1
    51    27    28    1
    52    27    24    1
    53    42    40   ar
    54    55    56    1
    55    55    52    1
    56    29    28    1
    57    18    17    1
    58    16    17    1
    59    16    13    1
    60    40    39    1
    61    25    24    1
    62    25    26    2
    63    97    98    2
    64    13    14    1
    65    14    15    2
    66    51    52    1
    67   110   108    1
    68    52    53    1
    69   107   108    1
    70   107   104    1
    71    39    38    1
    72   103   104    1
    73   109   108    1
    74    78    76   ar
    75   124   122   ar
    76   124   123   ar
    77    38    35    1
    78    53    54    2
    79   122   120   ar
    80   104   105    1
    81   123   121   ar
    82    76    77   ar
    83    76    75    1
    84   120   119   ar
    85   120   118   ar
    86    34    35    1
    87   121   118   ar
    88    35    36    1
    89   119   117   ar
    90   118   116   ar
    91    75    74    1
    92   105   111   am
    93   105   106    2
    94    36    37    2
    95   111   112    1
    96   117   116   ar
    97   116   115    1
    98   115   112    1
    99    74    71    1
   100    62    63    1
   101    62    59    1
   102   112   113    1
   103    58    59    1
   104    70    71    1
   105    70    60   am
   106    63    65   ar
   107    63    64   ar
   108    65    67   ar
   109    71    72    1
   110    59    60    1
   111   113   114    2
   112    64    66   ar
   113    67    68   ar
   114    72    73    2
   115    60    61    2
   116    66    68   ar
   117    68    69    1
