@<TRIPOS>MOLECULE
tmp/3smpB00.pdb
 157 154 0 0 0
SMALL
GASTEIGER

@<TRIPOS>ATOM
      1  N         19.6970  -11.3180   27.6050 N.3   242  LYS242     -0.1245
      2  CA        20.3270  -11.6730   28.8640 C.3   242  LYS242      0.1561
      3  C         21.7090  -12.2230   28.5010 C.2   242  LYS242      0.2260
      4  O         21.8180  -13.0690   27.6060 O.2   242  LYS242     -0.2867
      5  CB        19.4770  -12.7200   29.6040 C.3   242  LYS242      0.0271
      6  CG        19.8480  -12.9360   31.0620 C.3   242  LYS242      0.0035
      7  CD        18.5760  -13.2640   31.8610 C.3   242  LYS242      0.0206
      8  CE        18.8860  -13.3190   33.3480 C.3   242  LYS242      0.1093
      9  NZ        19.2580  -11.9680   33.8690 N.3   242  LYS242     -0.1314
     10  N         25.6200  -13.8590   29.7610 N.3   244  VAL244     -0.1245
     11  CA        26.2140  -14.7380   30.7570 C.3   244  VAL244      0.1561
     12  C         26.5600  -13.9720   32.0410 C.2   244  VAL244      0.2260
     13  O         26.3050  -14.4790   33.1230 O.2   244  VAL244     -0.2867
     14  CB        27.4460  -15.4620   30.1880 C.3   244  VAL244      0.0252
     15  CG1       28.2210  -16.1740   31.2910 C.3   244  VAL244      0.0019
     16  CG2       26.9980  -16.4510   29.1130 C.3   244  VAL244      0.0019
     17  N         23.8640  -13.7030   34.5650 N.3   247  ILE247     -0.1231
     18  CA        23.5590  -14.9290   35.3370 C.3   247  ILE247      0.1692
     19  C         24.6600  -15.2620   36.3750 C.2   247  ILE247      0.2592
     20  O         24.3620  -15.6030   37.5280 O.2   247  ILE247     -0.2718
     21  CB        23.3270  -16.1640   34.4160 C.3   247  ILE247      0.0266
     22  CG1       22.1550  -15.9290   33.4690 C.3   247  ILE247      0.0019
     23  CG2       23.0360  -17.4100   35.2630 C.3   247  ILE247      0.0020
     24  CD1       22.0160  -16.9740   32.3780 C.3   247  ILE247      0.0001
     25  N         25.9220  -15.1580   35.9670 N.am  248  TYR248     -0.1976
     26  CA        27.0400  -15.6370   36.7930 C.3   248  TYR248      0.1639
     27  C         27.9020  -14.5470   37.4420 C.2   248  TYR248      0.2290
     28  O         28.7550  -14.8610   38.2670 O.2   248  TYR248     -0.2864
     29  CB        27.9430  -16.5670   35.9740 C.3   248  TYR248      0.0560
     30  CG        27.2160  -17.7480   35.4020 C.ar  248  TYR248     -0.0198
     31  CD1       26.9120  -18.8480   36.1900 C.ar  248  TYR248     -0.0009
     32  CD2       26.7840  -17.7470   34.0680 C.ar  248  TYR248     -0.0009
     33  CE1       26.2150  -19.9410   35.6590 C.ar  248  TYR248      0.0417
     34  CE2       26.1070  -18.8300   33.5290 C.ar  248  TYR248      0.0417
     35  CZ        25.8210  -19.9230   34.3320 C.ar  248  TYR248      0.1957
     36  OH        25.1290  -20.9870   33.7960 O.3   248  TYR248     -0.2866
     37  N         31.7340  -17.7190   33.0320 N.3   252  TYR252     -0.1241
     38  CA        31.4200  -18.9920   33.6590 C.3   252  TYR252      0.1605
     39  C         32.4020  -20.0260   33.1240 C.2   252  TYR252      0.2264
     40  O         32.1210  -20.7370   32.1530 O.2   252  TYR252     -0.2867
     41  CB        29.9670  -19.3850   33.4070 C.3   252  TYR252      0.0534
     42  CG        29.4770  -20.5390   34.2590 C.ar  252  TYR252     -0.0201
     43  CD1       29.7010  -20.5590   35.6300 C.ar  252  TYR252     -0.0009
     44  CD2       28.7520  -21.5910   33.6960 C.ar  252  TYR252     -0.0009
     45  CE1       29.2570  -21.6060   36.4220 C.ar  252  TYR252      0.0417
     46  CE2       28.2920  -22.6540   34.4880 C.ar  252  TYR252      0.0417
     47  CZ        28.5430  -22.6500   35.8520 C.ar  252  TYR252      0.1957
     48  OH        28.0900  -23.6860   36.6560 O.3   252  TYR252     -0.2866
     49  N         33.5530  -22.8950   33.9730 N.3   254  ARG254     -0.1231
     50  CA        33.1120  -24.2940   33.8870 C.3   254  ARG254      0.1694
     51  C         32.5920  -24.6560   32.4950 C.2   254  ARG254      0.2592
     52  O         32.8170  -25.7610   32.0050 O.2   254  ARG254     -0.2718
     53  CB        32.0260  -24.5530   34.9390 C.3   254  ARG254      0.0321
     54  CG        31.4690  -25.9700   34.9630 C.3   254  ARG254      0.0489
     55  CD        30.2320  -26.0540   35.8650 C.3   254  ARG254      0.2205
     56  NE        29.8700  -27.4360   36.1760 N.pl3 254  ARG254     -0.0865
     57  CZ        28.9470  -27.7930   37.0650 C.cat 254  ARG254      0.5346
     58  NH1       28.2960  -26.8670   37.7570 N.pl3 254  ARG254      0.1354
     59  NH2       28.6980  -29.0820   37.2830 N.pl3 254  ARG254      0.1354
     60  N         31.9000  -23.7130   31.8660 N.am  255  PHE255     -0.1976
     61  CA        31.3280  -23.9180   30.5430 C.3   255  PHE255      0.1639
     62  C         32.1460  -23.2460   29.4200 C.2   255  PHE255      0.2290
     63  O         31.7130  -23.1920   28.2610 O.2   255  PHE255     -0.2864
     64  CB        29.8940  -23.3800   30.5590 C.3   255  PHE255      0.0560
     65  CG        28.8830  -24.2850   31.2370 C.ar  255  PHE255     -0.0200
     66  CD1       27.5320  -23.9360   31.2110 C.ar  255  PHE255     -0.0042
     67  CD2       29.2460  -25.4740   31.8710 C.ar  255  PHE255     -0.0042
     68  CE1       26.5650  -24.7440   31.7980 C.ar  255  PHE255     -0.0003
     69  CE2       28.2850  -26.2790   32.4660 C.ar  255  PHE255     -0.0003
     70  CZ        26.9540  -25.9180   32.4410 C.ar  255  PHE255     -0.0000
     71  N         32.6120  -20.1270   29.0500 N.3   257  LEU257     -0.1245
     72  CA        31.8030  -19.0080   28.5570 C.3   257  LEU257      0.1561
     73  C         32.2520  -17.6690   29.1300 C.2   257  LEU257      0.2260
     74  O         32.2720  -17.4910   30.3420 O.2   257  LEU257     -0.2867
     75  CB        30.3170  -19.2020   28.9120 C.3   257  LEU257      0.0270
     76  CG        29.4820  -20.2110   28.1150 C.3   257  LEU257      0.0019
     77  CD1       28.0270  -20.2720   28.6680 C.3   257  LEU257      0.0001
     78  CD2       29.4950  -19.8940   26.6520 C.3   257  LEU257      0.0001
     79  N         30.4580  -11.6510   28.3000 N.3   260  SER260     -0.1202
     80  CA        29.8420  -10.9120   27.2020 C.3   260  SER260      0.2020
     81  C         29.0800  -11.8080   26.1910 C.2   260  SER260      0.2619
     82  O         28.4200  -11.3190   25.2780 O.2   260  SER260     -0.2717
     83  CB        30.9260  -10.0860   26.4850 C.3   260  SER260      0.2103
     84  OG        31.9530  -10.9230   25.9620 O.3   260  SER260     -0.2182
     85  N         29.1950  -13.1220   26.3370 N.am  261  ALA261     -0.1965
     86  CA        28.4580  -14.0420   25.4800 C.3   261  ALA261      0.1728
     87  C         26.9820  -13.9380   25.8630 C.2   261  ALA261      0.2616
     88  O         26.6510  -13.8250   27.0340 O.2   261  ALA261     -0.2715
     89  CB        28.9610  -15.4870   25.6840 C.3   261  ALA261      0.0334
     90  N         26.0960  -13.9990   24.8690 N.am  262  VAL262     -0.1963
     91  CA        24.6500  -13.9660   25.1110 C.3   262  VAL262      0.1727
     92  C         24.1930  -15.3210   25.7190 C.2   262  VAL262      0.2616
     93  O         24.4860  -16.3850   25.1820 O.2   262  VAL262     -0.2715
     94  CB        23.8910  -13.6490   23.7710 C.3   262  VAL262      0.0290
     95  CG1       22.3720  -13.6430   23.9680 C.3   262  VAL262      0.0023
     96  CG2       24.3500  -12.3130   23.1940 C.3   262  VAL262      0.0023
     97  N         23.4990  -15.2810   26.8450 N.am  263  ALA263     -0.1963
     98  CA        22.9140  -16.4900   27.4240 C.3   263  ALA263      0.1728
     99  C         21.5770  -16.7840   26.7660 C.2   263  ALA263      0.2616
    100  O         21.2750  -17.9140   26.4630 O.2   263  ALA263     -0.2715
    101  CB        22.7290  -16.3460   28.9320 C.3   263  ALA263      0.0334
    102  N         20.7630  -15.7540   26.5760 N.am  264  SER264     -0.1950
    103  CA        19.4140  -15.9450   26.0420 C.3   264  SER264      0.1924
    104  C         19.0140  -14.7110   25.2490 C.2   264  SER264      0.2314
    105  O         18.8130  -13.6240   25.8070 O.2   264  SER264     -0.2863
    106  CB        18.4250  -16.2160   27.1820 C.3   264  SER264      0.2116
    107  OG        17.0990  -15.9800   26.7640 O.3   264  SER264     -0.2180
    108  N         24.6870  -13.9260   14.8030 N.3   293  ASN293     -0.1240
    109  CA        25.3880  -14.8180   15.7150 C.3   293  ASN293      0.1653
    110  C         24.9890  -16.2520   15.4550 C.2   293  ASN293      0.2266
    111  O         25.7870  -17.1510   15.6000 O.2   293  ASN293     -0.2867
    112  CB        25.0790  -14.4950   17.1850 C.3   293  ASN293      0.1155
    113  CG        25.9770  -13.4040   17.7650 C.2   293  ASN293      0.2627
    114  OD1       27.0080  -13.0490   17.1990 O.2   293  ASN293     -0.2716
    115  ND2       25.5920  -12.8950   18.9290 N.am  293  ASN293     -0.0877
    116  N         32.4700  -10.9290   13.3190 N.3   330  TYR330     -0.1227
    117  CA        32.6020  -11.1470   14.7690 C.3   330  TYR330      0.1736
    118  C         32.1290  -12.5580   15.1680 C.2   330  TYR330      0.2595
    119  O         32.7910  -13.2620   15.9430 O.2   330  TYR330     -0.2718
    120  CB        31.8130  -10.1140   15.5440 C.3   330  TYR330      0.0548
    121  CG        31.7630  -10.4250   17.0200 C.ar  330  TYR330     -0.0200
    122  CD1       32.9220  -10.3640   17.7940 C.ar  330  TYR330     -0.0009
    123  CD2       30.5650  -10.8070   17.6450 C.ar  330  TYR330     -0.0009
    124  CE1       32.8990  -10.6540   19.1560 C.ar  330  TYR330      0.0417
    125  CE2       30.5360  -11.1030   19.0110 C.ar  330  TYR330      0.0417
    126  CZ        31.7140  -11.0220   19.7550 C.ar  330  TYR330      0.1957
    127  OH        31.7300  -11.3080   21.1040 O.3   330  TYR330     -0.2866
    128  N         30.9840  -12.9500   14.6350 N.am  331  ALA331     -0.1980
    129  CA        30.3800  -14.2460   14.9870 C.3   331  ALA331      0.1597
    130  C         31.2790  -15.3810   14.5760 C.2   331  ALA331      0.2287
    131  O         31.4700  -16.3370   15.3330 O.2   331  ALA331     -0.2864
    132  CB        28.9920  -14.3800   14.3520 C.3   331  ALA331      0.0319
    133  N         34.1340  -15.5450   16.9130 N.3   334  PHE334     -0.1227
    134  CA        33.6650  -16.0590   18.2130 C.3   334  PHE334      0.1736
    135  C         33.5200  -17.5930   18.2550 C.2   334  PHE334      0.2595
    136  O         34.1280  -18.2700   19.0930 O.2   334  PHE334     -0.2718
    137  CB        32.3160  -15.4340   18.5920 C.3   334  PHE334      0.0547
    138  CG        31.7660  -15.9470   19.8850 C.ar  334  PHE334     -0.0202
    139  CD1       32.1880  -15.4070   21.0970 C.ar  334  PHE334     -0.0042
    140  CD2       30.8240  -16.9790   19.8940 C.ar  334  PHE334     -0.0042
    141  CE1       31.6890  -15.8940   22.3150 C.ar  334  PHE334     -0.0003
    142  CE2       30.3070  -17.4540   21.0790 C.ar  334  PHE334     -0.0003
    143  CZ        30.7490  -16.9260   22.3040 C.ar  334  PHE334     -0.0000
    144  N         32.6810  -18.1240   17.3620 N.am  335  TRP335     -0.1976
    145  CA        32.3650  -19.5390   17.3500 C.3   335  TRP335      0.1640
    146  C         33.5930  -20.3880   17.0400 C.2   335  TRP335      0.2290
    147  O         33.7250  -21.5110   17.5530 O.2   335  TRP335     -0.2864
    148  CB        31.2100  -19.8170   16.3530 C.3   335  TRP335      0.0576
    149  CG        29.8910  -19.2780   16.8320 C.ar  335  TRP335      0.0006
    150  CD1       29.2260  -18.1760   16.3670 C.ar  335  TRP335      0.0946
    151  CD2       29.1010  -19.8020   17.8960 C.ar  335  TRP335      0.0152
    152  NE1       28.0510  -17.9930   17.0690 N.ar  335  TRP335     -0.2442
    153  CE2       27.9490  -18.9820   18.0090 C.ar  335  TRP335      0.0810
    154  CE3       29.2280  -20.9100   18.7460 C.ar  335  TRP335      0.0012
    155  CZ2       26.9490  -19.2190   18.9500 C.ar  335  TRP335      0.0191
    156  CZ3       28.2260  -21.1410   19.6770 C.ar  335  TRP335      0.0001
    157  CH2       27.1110  -20.2860   19.7750 C.ar  335  TRP335      0.0015
@<TRIPOS>BOND
     1   116   117    1
     2   132   129    1
     3   130   129    1
     4   130   131    2
     5   128   129    1
     6   128   118   am
     7   117   118    1
     8   117   120    1
     9   108   109    1
    10   118   119    2
    11   110   111    2
    12   110   109    1
    13   120   121    1
    14   109   112    1
    15   148   149    1
    16   148   145    1
    17   150   149   ar
    18   150   152   ar
    19   149   151   ar
    20   133   134    1
    21   121   123   ar
    22   121   122   ar
    23   146   145    1
    24   146   147    2
    25   152   153   ar
    26   112   113    1
    27   114   113    2
    28   145   144    1
    29   144   135   am
    30   123   125   ar
    31   113   115   am
    32   122   124   ar
    33   151   153   ar
    34   151   154   ar
    35   153   155   ar
    36   134   135    1
    37   134   137    1
    38   135   136    2
    39   137   138    1
    40   154   156   ar
    41   155   157   ar
    42   125   126   ar
    43   124   126   ar
    44   156   157   ar
    45   126   127    1
    46   138   140   ar
    47   138   139   ar
    48   140   142   ar
    49   142   143   ar
    50   139   141   ar
    51   143   141   ar
    52    96    94    1
    53    94    95    1
    54    94    91    1
    55    90    91    1
    56    90    87   am
    57    91    92    1
    58    93    92    2
    59   104   105    2
    60   104   103    1
    61    82    81    2
    62    86    89    1
    63    86    87    1
    64    86    85    1
    65    92    97   am
    66    87    88    2
    67    84    83    1
    68   103   102    1
    69   103   106    1
    70    81    85   am
    71    81    80    1
    72   100    99    2
    73    83    80    1
    74   102    99   am
    75    78    76    1
    76   107   106    1
    77    99    98    1
    78    97    98    1
    79    80    79    1
    80    98   101    1
    81     1     2    1
    82     4     3    2
    83    76    77    1
    84    76    75    1
    85    63    62    2
    86     3     2    1
    87    72    75    1
    88    72    71    1
    89    72    73    1
    90     2     5    1
    91    16    14    1
    92    73    74    2
    93    62    61    1
    94     5     6    1
    95    10    11    1
    96    14    11    1
    97    14    15    1
    98    61    64    1
    99    61    60    1
   100    64    65    1
   101    11    12    1
   102     6     7    1
   103    66    65   ar
   104    66    68   ar
   105    65    67   ar
   106    68    70   ar
   107     7     8    1
   108    60    51   am
   109    67    69   ar
   110    52    51    2
   111    12    13    2
   112    40    39    2
   113    24    22    1
   114    70    69   ar
   115    51    50    1
   116    37    38    1
   117    39    38    1
   118     8     9    1
   119    41    38    1
   120    41    42    1
   121    22    21    1
   122    34    32   ar
   123    34    35   ar
   124    44    42   ar
   125    44    46   ar
   126    36    35    1
   127    50    49    1
   128    50    53    1
   129    32    30   ar
   130    42    43   ar
   131    35    33   ar
   132    21    23    1
   133    21    18    1
   134    46    47   ar
   135    17    18    1
   136    53    54    1
   137    54    55    1
   138    18    19    1
   139    30    29    1
   140    30    31   ar
   141    43    45   ar
   142    33    31   ar
   143    47    45   ar
   144    47    48    1
   145    55    56    1
   146    25    19   am
   147    25    26    1
   148    29    26    1
   149    56    57    2
   150    19    20    2
   151    26    27    1
   152    57    59    1
   153    57    58    1
   154    27    28    2
