@<TRIPOS>MOLECULE
tmp/3smpB01.pdb
 127 117 0 0 0
SMALL
GASTEIGER

@<TRIPOS>ATOM
      1  N         20.6540  -10.8990  -14.2670 N.3    11  ASP11      -0.1239
      2  CA        20.0720  -11.3280  -12.9870 C.3    11  ASP11       0.1674
      3  C         18.9380  -10.3460  -12.6290 C.2    11  ASP11       0.2266
      4  O         19.1900   -9.2020  -12.2900 O.2    11  ASP11      -0.2867
      5  CB        21.1670  -11.3400  -11.9140 C.3    11  ASP11       0.1410
      6  CG        20.6870  -11.9500  -10.5720 C.2    11  ASP11       0.3668
      7  OD1       19.4910  -12.1770  -10.4150 O.co2  11  ASP11      -0.2456
      8  OD2       21.5060  -12.1780   -9.6800 O.co2  11  ASP11      -0.2456
      9  N         16.2010   -9.2100  -10.3780 N.3    13  GLY13      -0.1210
     10  CA        15.6820   -9.3630   -9.0240 C.3    13  GLY13       0.1956
     11  C         14.2810   -8.8210   -8.9100 C.2    13  GLY13       0.2612
     12  O         13.7450   -8.2450   -9.8670 O.2    13  GLY13      -0.2717
     13  N         13.6940   -9.0030   -7.7170 N.am   14  GLY14      -0.1942
     14  CA        12.4230   -8.4080   -7.3830 C.3    14  GLY14       0.2014
     15  C         12.4880   -6.8970   -7.4830 C.2    14  GLY14       0.2639
     16  O         11.5690   -6.2760   -7.9980 O.2    14  GLY14      -0.2714
     17  N         13.5790   -6.3040   -7.0000 N.am   15  THR15      -0.1950
     18  CA        13.7450   -4.8460   -7.0400 C.3    15  THR15       0.1897
     19  C         14.9640   -4.3610   -7.8560 C.2    15  THR15       0.2313
     20  O         14.9390   -3.2360   -8.3700 O.2    15  THR15      -0.2863
     21  CB        13.8520   -4.2710   -5.6040 C.3    15  THR15       0.1794
     22  OG1       14.7760   -5.0820   -4.8560 O.3    15  THR15      -0.2208
     23  CG2       12.4820   -4.2960   -4.8980 C.3    15  THR15       0.0378
     24  N         17.3270  -14.9880  -11.3970 N.3   109  GLY109     -0.1210
     25  CA        16.6970  -13.9850  -10.5350 C.3   109  GLY109      0.1956
     26  C         15.2170  -14.2100  -10.3300 C.2   109  GLY109      0.2612
     27  O         14.5050  -14.7170  -11.2150 O.2   109  GLY109     -0.2717
     28  N         14.7540  -13.8390   -9.1400 N.am  110  GLY110     -0.1956
     29  CA        13.3730  -14.0870   -8.7270 C.3   110  GLY110      0.1869
     30  C         12.3920  -13.1890   -9.4600 C.2   110  GLY110      0.2309
     31  O         11.1970  -13.4310   -9.4430 O.2   110  GLY110     -0.2863
     32  N         19.3360  -19.8070   -9.6150 N.3   132  GLU132     -0.1231
     33  CA        20.0520  -18.7070   -8.9340 C.3   132  GLU132      0.1699
     34  C         21.3460  -19.1900   -8.2970 C.2   132  GLU132      0.2592
     35  O         22.3560  -18.5270   -8.3610 O.2   132  GLU132     -0.2718
     36  CB        19.2160  -18.0920   -7.8050 C.3   132  GLU132      0.0402
     37  CG        18.0160  -17.2650   -8.2240 C.3   132  GLU132      0.1161
     38  CD        16.8690  -18.0690   -8.8410 C.2   132  GLU132      0.3649
     39  OE1       16.7300  -19.3390   -8.6240 O.co2 132  GLU132     -0.2457
     40  OE2       16.0990  -17.3750   -9.5560 O.co2 132  GLU132     -0.2457
     41  N         21.2910  -20.3420   -7.6320 N.am  133  LEU133     -0.1980
     42  CA        22.4340  -20.8620   -6.9000 C.3   133  LEU133      0.1596
     43  C         23.5270  -21.3830   -7.8550 C.2   133  LEU133      0.2287
     44  O         24.6950  -21.1280   -7.6060 O.2   133  LEU133     -0.2864
     45  CB        22.0300  -21.9560   -5.8690 C.3   133  LEU133      0.0297
     46  CG        21.2730  -21.4220   -4.6120 C.3   133  LEU133      0.0022
     47  CD1       20.9380  -22.5400   -3.6240 C.3   133  LEU133      0.0001
     48  CD2       22.0690  -20.3400   -3.8900 C.3   133  LEU133      0.0001
     49  N         25.1350  -18.3490    1.5490 N.3   183  ASN183     -0.1240
     50  CA        24.2640  -17.4660    0.7420 C.3   183  ASN183      0.1653
     51  C         23.0460  -16.9960    1.5470 C.2   183  ASN183      0.2266
     52  O         22.1480  -17.7690    1.8710 O.2   183  ASN183     -0.2867
     53  CB        23.7850  -18.2150   -0.5060 C.3   183  ASN183      0.1155
     54  CG        23.0700  -17.3140   -1.4850 C.2   183  ASN183      0.2627
     55  OD1       23.3870  -16.1480   -1.5880 O.2   183  ASN183     -0.2716
     56  ND2       22.1240  -17.8660   -2.2260 N.am  183  ASN183     -0.0877
     57  N         19.9380  -14.6510    1.7000 N.3   185  GLY185     -0.1210
     58  CA        18.8450  -13.8350    1.1990 C.3   185  GLY185      0.1956
     59  C         17.7860  -13.7370    2.2950 C.2   185  GLY185      0.2613
     60  O         18.1140  -13.4380    3.4590 O.2   185  GLY185     -0.2717
     61  N         16.5340  -14.0260    1.9560 N.am  186  SER186     -0.1938
     62  CA        15.4820  -14.0940    2.9720 C.3   186  SER186      0.2055
     63  C         15.7510  -15.2880    3.9250 C.2   186  SER186      0.2644
     64  O         15.5710  -15.1650    5.1270 O.2   186  SER186     -0.2714
     65  CB        14.0820  -14.1720    2.3470 C.3   186  SER186      0.2130
     66  OG        13.8230  -15.4450    1.7930 O.3   186  SER186     -0.2179
     67  N         16.1790  -16.4080    3.3730 N.am  187  GLY187     -0.1939
     68  CA        16.6470  -17.5850    4.1320 C.3   187  GLY187      0.2014
     69  C         18.1400  -17.8100    3.8420 C.2   187  GLY187      0.2639
     70  O         18.7770  -17.0090    3.1740 O.2   187  GLY187     -0.2714
     71  N         18.7100  -18.9120    4.2800 N.am  188  VAL188     -0.1963
     72  CA        20.1530  -19.0980    4.1300 C.3   188  VAL188      0.1727
     73  C         20.3950  -20.4640    3.6320 C.2   188  VAL188      0.2616
     74  O         19.9000  -21.4160    4.2280 O.2   188  VAL188     -0.2715
     75  CB        20.9490  -18.9800    5.4680 C.3   188  VAL188      0.0290
     76  CG1       22.4680  -19.1030    5.2280 C.3   188  VAL188      0.0023
     77  CG2       20.6520  -17.7050    6.1970 C.3   188  VAL188      0.0023
     78  N         21.1600  -20.5530    2.5480 N.am  189  SER189     -0.1950
     79  CA        21.6880  -21.8090    2.0130 C.3   189  SER189      0.1924
     80  C         23.2050  -21.9000    2.2020 C.2   189  SER189      0.2314
     81  O         23.9300  -20.9400    2.0040 O.2   189  SER189     -0.2863
     82  CB        21.3850  -21.9500    0.5030 C.3   189  SER189      0.2116
     83  OG        20.1340  -22.5460    0.2490 O.3   189  SER189     -0.2180
     84  N         24.5110  -28.4730   -1.7800 N.3   201  ARG201     -0.1245
     85  CA        23.9730  -27.7140   -0.6670 C.3   201  ARG201      0.1563
     86  C         24.0490  -28.6700    0.5040 C.2   201  ARG201      0.2260
     87  O         23.4690  -29.7270    0.4540 O.2   201  ARG201     -0.2867
     88  CB        22.5210  -27.3290   -0.9230 C.3   201  ARG201      0.0307
     89  CG        21.9080  -26.4670    0.1390 C.3   201  ARG201      0.0489
     90  CD        20.4770  -26.1510   -0.2690 C.3   201  ARG201      0.2205
     91  NE        19.8600  -25.2870    0.7170 N.pl3 201  ARG201     -0.0865
     92  CZ        19.3520  -25.7190    1.8730 C.cat 201  ARG201      0.5346
     93  NH1       19.3490  -27.0160    2.1860 N.pl3 201  ARG201      0.1354
     94  NH2       18.7970  -24.8700    2.7010 N.pl3 201  ARG201      0.1354
     95  N         21.1270  -25.4480    5.5100 N.3   204  GLY204     -0.1210
     96  CA        20.7670  -24.0150    5.5060 C.3   204  GLY204      0.1956
     97  C         20.0620  -23.6280    6.7860 C.2   204  GLY204      0.2613
     98  O         19.9630  -24.4190    7.6900 O.2   204  GLY204     -0.2717
     99  N         19.6450  -22.3830    6.9020 N.am  205  THR205     -0.1938
    100  CA        18.7900  -21.9550    8.0110 C.3   205  THR205      0.2028
    101  C         17.6900  -21.0720    7.5100 C.2   205  THR205      0.2642
    102  O         17.9260  -20.1970    6.6560 O.2   205  THR205     -0.2714
    103  CB        19.5940  -21.2430    9.1680 C.3   205  THR205      0.1808
    104  OG1       18.7230  -20.7710   10.2070 O.3   205  THR205     -0.2208
    105  CG2       20.5070  -20.1490    8.7040 C.3   205  THR205      0.0379
    106  N         16.4890  -21.2840    8.0570 N.am  206  SER206     -0.1949
    107  CA        15.3740  -20.4100    7.7710 C.3   206  SER206      0.1924
    108  C         15.5020  -19.0730    8.4840 C.2   206  SER206      0.2314
    109  O         14.6790  -18.1530    8.2420 O.2   206  SER206     -0.2863
    110  CB        14.0340  -21.0310    8.0910 C.3   206  SER206      0.2116
    111  OG        13.7750  -21.1630    9.4920 O.3   206  SER206     -0.2180
    112  N         13.9710   -8.7680    8.7220 N.3   213  LEU213     -0.1245
    113  CA        13.0190   -7.7590    8.2850 C.3   213  LEU213      0.1561
    114  C         11.6220   -8.0490    8.8380 C.2   213  LEU213      0.2260
    115  O         11.0180   -7.1670    9.3950 O.2   213  LEU213     -0.2867
    116  CB        13.0040   -7.6120    6.7460 C.3   213  LEU213      0.0270
    117  CG        12.0140   -6.6160    6.1220 C.3   213  LEU213      0.0019
    118  CD1       12.1700   -5.2560    6.7120 C.3   213  LEU213      0.0001
    119  CD2       12.1280   -6.5430    4.6000 C.3   213  LEU213      0.0001
    120  N         21.9200  -10.9750   -0.5690 N.3   316  ASN316     -0.1240
    121  CA        21.1360   -9.7410   -0.3410 C.3   316  ASN316      0.1653
    122  C         21.2800   -9.1870    1.0740 C.2   316  ASN316      0.2266
    123  O         21.2970   -7.9590    1.3050 O.2   316  ASN316     -0.2867
    124  CB        19.6370  -10.0070   -0.5820 C.3   316  ASN316      0.1155
    125  CG        19.3250  -10.4080   -2.0140 C.2   316  ASN316      0.2627
    126  OD1       20.2130  -10.4510   -2.8750 O.2   316  ASN316     -0.2716
    127  ND2       18.0570  -10.7110   -2.2770 N.am  316  ASN316     -0.0877
@<TRIPOS>BOND
     1     1     2    1
     2     2     3    1
     3     2     5    1
     4     3     4    2
     5     5     6    1
     6    24    25    1
     7    27    26    2
     8     6     7   ar
     9     6     8   ar
    10    25    26    1
    11     9    10    1
    12    26    28   am
    13    12    11    2
    14    32    33    1
    15    40    38   ar
    16    30    31    2
    17    30    29    1
    18    28    29    1
    19    10    11    1
    20    33    34    1
    21    33    36    1
    22    11    13   am
    23    38    39   ar
    24    38    37    1
    25    20    19    2
    26    35    34    2
    27    34    41   am
    28    37    36    1
    29    16    15    2
    30    19    18    1
    31    43    44    2
    32    43    42    1
    33    13    14    1
    34    41    42    1
    35    15    14    1
    36    15    17   am
    37    18    17    1
    38    18    21    1
    39    42    45    1
    40    45    46    1
    41    21    23    1
    42    21    22    1
    43    46    48    1
    44    46    47    1
    45   126   125    2
    46   127   125   am
    47    56    54   am
    48   125   124    1
    49    84    85    1
    50    55    54    2
    51    54    53    1
    52    88    85    1
    53    88    89    1
    54    85    86    1
    55   124   121    1
    56   120   121    1
    57    53    50    1
    58   121   122    1
    59    90    89    1
    60    90    91    1
    61    83    82    1
    62    87    86    2
    63    82    79    1
    64    91    92    2
    65    50    51    1
    66    50    49    1
    67   122   123    2
    68    58    57    1
    69    58    59    1
    70    51    52    2
    71    66    65    1
    72    92    93    1
    73    92    94    1
    74    61    59   am
    75    61    62    1
    76    81    80    2
    77    79    80    1
    78    79    78    1
    79    59    60    2
    80    65    62    1
    81    78    73   am
    82    62    63    1
    83    70    69    2
    84    67    63   am
    85    67    68    1
    86    73    72    1
    87    73    74    2
    88    69    68    1
    89    69    71   am
    90    63    64    2
    91    72    71    1
    92    72    75    1
    93   119   117    1
    94    76    75    1
    95    75    77    1
    96    96    95    1
    97    96    97    1
    98   117   118    1
    99   117   116    1
   100   102   101    2
   101   116   113    1
   102    97    99   am
   103    97    98    2
   104    99   100    1
   105   101   100    1
   106   101   106   am
   107   107   106    1
   108   107   110    1
   109   107   108    1
   110   100   103    1
   111   110   111    1
   112   109   108    2
   113   113   112    1
   114   113   114    1
   115   105   103    1
   116   114   115    2
   117   103   104    1
