@<TRIPOS>MOLECULE
tmp/3smqA00.pdb
 96 87 0 0 0
SMALL
GASTEIGER

@<TRIPOS>ATOM
      1  N         -4.3580   -3.6680   21.7720 N.3   145  VAL145     -0.1245
      2  CA        -4.5190   -4.6300   20.7010 C.3   145  VAL145      0.1561
      3  C         -3.9460   -5.9800   21.1380 C.2   145  VAL145      0.2260
      4  O         -2.9050   -6.0280   21.8040 O.2   145  VAL145     -0.2867
      5  CB        -3.7670   -4.1420   19.4150 C.3   145  VAL145      0.0252
      6  CG1       -3.9010   -5.1360   18.2660 C.3   145  VAL145      0.0019
      7  CG2       -4.2600   -2.7510   18.9730 C.3   145  VAL145      0.0019
      8  N         -2.7590   -9.2720   19.0140 N.3   147  ASP147     -0.1239
      9  CA        -2.5930   -9.9310   17.7230 C.3   147  ASP147      0.1674
     10  C         -1.2770  -10.6730   17.7270 C.2   147  ASP147      0.2266
     11  O         -0.2780  -10.2180   17.1590 O.2   147  ASP147     -0.2867
     12  CB        -2.6920   -8.9380   16.5550 C.3   147  ASP147      0.1410
     13  CG        -3.0790   -9.6150   15.2500 C.2   147  ASP147      0.3668
     14  OD1       -2.6770  -10.7820   15.0350 O.co2 147  ASP147     -0.2456
     15  OD2       -3.7880   -8.9760   14.4390 O.co2 147  ASP147     -0.2456
     16  N          0.2230  -11.5430   14.1860 N.3   150  LYS150     -0.1231
     17  CA         0.9130  -10.4010   13.5790 C.3   150  LYS150      0.1693
     18  C          2.1970  -10.0200   14.3110 C.2   150  LYS150      0.2592
     19  O          3.1890   -9.6470   13.6780 O.2   150  LYS150     -0.2718
     20  CB         0.0060   -9.1810   13.4640 C.3   150  LYS150      0.0285
     21  CG        -0.8740   -9.2240   12.2420 C.3   150  LYS150      0.0035
     22  CD        -1.7190   -7.9780   12.1230 C.3   150  LYS150      0.0206
     23  CE        -2.7050   -8.1170   10.9830 C.3   150  LYS150      0.1093
     24  NZ        -1.9980   -7.9570    9.6860 N.3   150  LYS150     -0.1314
     25  N          2.1730  -10.0780   15.6350 N.am  151  HIS151     -0.1976
     26  CA         3.3880   -9.8250   16.4050 C.3   151  HIS151      0.1656
     27  C          4.4780  -10.8400   16.0250 C.2   151  HIS151      0.2291
     28  O          5.6200  -10.4640   15.7600 O.2   151  HIS151     -0.2864
     29  CB         3.1030   -9.8420   17.9090 C.3   151  HIS151      0.0771
     30  CG         4.2280   -9.3110   18.7320 C.ar  151  HIS151      0.0820
     31  ND1        5.3040  -10.0880   19.1030 N.ar  151  HIS151     -0.2267
     32  CD2        4.4600   -8.0750   19.2390 C.ar  151  HIS151      0.1154
     33  CE1        6.1440   -9.3610   19.8170 C.ar  151  HIS151      0.1986
     34  NE2        5.6560   -8.1350   19.9130 N.ar  151  HIS151     -0.2212
     35  N          6.1210   -9.9510   12.7990 N.3   154  ARG154     -0.1245
     36  CA         7.0230   -8.7890   12.8340 C.3   154  ARG154      0.1563
     37  C          8.2580   -9.0050   13.6920 C.2   154  ARG154      0.2260
     38  O          9.2970   -8.4010   13.4350 O.2   154  ARG154     -0.2867
     39  CB         6.3050   -7.5410   13.3750 C.3   154  ARG154      0.0307
     40  CG         5.0620   -7.1080   12.6120 C.3   154  ARG154      0.0489
     41  CD         5.3400   -6.7920   11.1180 C.3   154  ARG154      0.2205
     42  NE         6.6140   -6.1020   10.8500 N.pl3 154  ARG154     -0.0865
     43  CZ         6.9090   -4.8470   11.1870 C.cat 154  ARG154      0.5346
     44  NH1        6.0350   -4.0910   11.8540 N.pl3 154  ARG154      0.1354
     45  NH2        8.0990   -4.3470   10.8630 N.pl3 154  ARG154      0.1354
     46  N          3.5430    1.8960   12.8440 N.3   178  VAL178     -0.1245
     47  CA         3.0000    1.3190   11.6240 C.3   178  VAL178      0.1561
     48  C          1.6610    1.9800   11.3230 C.2   178  VAL178      0.2260
     49  O          0.8850    2.2300   12.2380 O.2   178  VAL178     -0.2867
     50  CB         2.8440   -0.2110   11.7980 C.3   178  VAL178      0.0252
     51  CG1        1.9260   -0.8160   10.7430 C.3   178  VAL178      0.0019
     52  CG2        4.2120   -0.8780   11.7700 C.3   178  VAL178      0.0019
     53  N         -1.7560    1.3530    9.4870 N.3   180  GLU180     -0.1245
     54  CA        -2.4230    0.1630    8.9740 C.3   180  GLU180      0.1567
     55  C         -3.8550    0.1170    9.4820 C.2   180  GLU180      0.2260
     56  O         -4.1340    0.5710   10.5960 O.2   180  GLU180     -0.2867
     57  CB        -1.6430   -1.0920    9.4260 C.3   180  GLU180      0.0388
     58  CG        -2.2700   -2.4320    9.0830 C.3   180  GLU180      0.1160
     59  CD        -1.3200   -3.5930    9.3250 C.2   180  GLU180      0.3649
     60  OE1       -1.5130   -4.3310   10.3250 O.co2 180  GLU180     -0.2457
     61  OE2       -0.3690   -3.7570    8.5220 O.co2 180  GLU180     -0.2457
     62  N         -6.6930   -1.7790   11.1560 N.3   182  LEU182     -0.1245
     63  CA        -6.7600   -2.9090   12.0650 C.3   182  LEU182      0.1561
     64  C         -8.1070   -3.6100   12.0120 C.2   182  LEU182      0.2260
     65  O         -9.1440   -2.9660   11.8810 O.2   182  LEU182     -0.2867
     66  CB        -6.5230   -2.4410   13.4920 C.3   182  LEU182      0.0270
     67  CG        -5.1660   -1.8120   13.7750 C.3   182  LEU182      0.0019
     68  CD1       -5.2140   -1.1840   15.1480 C.3   182  LEU182      0.0001
     69  CD2       -4.0530   -2.8510   13.6870 C.3   182  LEU182      0.0001
     70  N         -0.3140   -7.0370   22.5980 N.3   224  THR224     -0.1203
     71  CA         0.8660   -7.0840   21.7320 C.3   224  THR224      0.1994
     72  C          1.2060   -5.7340   21.1070 C.2   224  THR224      0.2617
     73  O          2.2980   -5.5550   20.5740 O.2   224  THR224     -0.2717
     74  CB         0.6660   -8.0660   20.5780 C.3   224  THR224      0.1784
     75  OG1       -0.4720   -7.6500   19.8190 O.3   224  THR224     -0.2211
     76  CG2        0.4680   -9.4900   21.0850 C.3   224  THR224      0.0376
     77  N          0.2540   -4.7980   21.1600 N.am  225  ALA225     -0.1979
     78  CA         0.4380   -3.4570   20.6040 C.3   225  ALA225      0.1597
     79  C         -0.5550   -2.4740   21.2040 C.2   225  ALA225      0.2287
     80  O         -1.5760   -2.8620   21.7900 O.2   225  ALA225     -0.2864
     81  CB         0.2850   -3.4780   19.0690 C.3   225  ALA225      0.0319
     82  N         -0.0260    2.1770   14.7750 N.3   259  VAL259     -0.1245
     83  CA         0.2200    1.0200   15.6490 C.3   259  VAL259      0.1561
     84  C          1.6290    1.0870   16.2260 C.2   259  VAL259      0.2260
     85  O          2.6070    1.2580   15.4830 O.2   259  VAL259     -0.2867
     86  CB         0.0260   -0.3400   14.8980 C.3   259  VAL259      0.0252
     87  CG1       -0.0210   -1.5140   15.8950 C.3   259  VAL259      0.0019
     88  CG2       -1.2530   -0.3250   14.0550 C.3   259  VAL259      0.0019
     89  N          4.0790   -1.2000   18.2510 N.3   261  LEU261     -0.1245
     90  CA         4.2910   -2.5840   18.6630 C.3   261  LEU261      0.1561
     91  C          5.0140   -2.6400   19.9910 C.2   261  LEU261      0.2260
     92  O          5.9370   -1.8680   20.2300 O.2   261  LEU261     -0.2867
     93  CB         5.0960   -3.3440   17.6130 C.3   261  LEU261      0.0270
     94  CG         4.3390   -3.8440   16.3770 C.3   261  LEU261      0.0019
     95  CD1        4.0070   -2.7060   15.4090 C.3   261  LEU261      0.0001
     96  CD2        5.2000   -4.8710   15.6710 C.3   261  LEU261      0.0001
@<TRIPOS>BOND
     1    61    59   ar
     2    54    57    1
     3    54    55    1
     4    54    53    1
     5    58    59    1
     6    58    57    1
     7    59    60   ar
     8    55    56    2
     9    24    23    1
    10    51    50    1
    11    42    41    1
    12    42    43    2
    13    45    43    1
    14    23    22    1
    15    41    40    1
    16    62    63    1
    17    43    44    1
    18    48    47    1
    19    48    49    2
    20    47    50    1
    21    47    46    1
    22    52    50    1
    23    65    64    2
    24    64    63    1
    25    63    66    1
    26    22    21    1
    27    21    20    1
    28    40    39    1
    29    35    36    1
    30    36    39    1
    31    36    37    1
    32    38    37    2
    33    20    17    1
    34    66    67    1
    35    17    16    1
    36    17    18    1
    37    19    18    2
    38    69    67    1
    39    67    68    1
    40    88    86    1
    41    18    25   am
    42    15    13   ar
    43    82    83    1
    44    86    83    1
    45    86    87    1
    46    14    13   ar
    47    13    12    1
    48    95    94    1
    49    85    84    2
    50    25    26    1
    51    83    84    1
    52    96    94    1
    53    28    27    2
    54    27    26    1
    55    94    93    1
    56    26    29    1
    57    12     9    1
    58    11    10    2
    59    93    90    1
    60     9    10    1
    61     9     8    1
    62    29    30    1
    63    89    90    1
    64     6     5    1
    65    90    91    1
    66    30    31   ar
    67    30    32   ar
    68     7     5    1
    69    81    78    1
    70    31    33   ar
    71    32    34   ar
    72     5     2    1
    73    33    34   ar
    74    75    74    1
    75    91    92    2
    76    73    72    2
    77    74    76    1
    78    74    71    1
    79    78    77    1
    80    78    79    1
    81     2     3    1
    82     2     1    1
    83    72    77   am
    84    72    71    1
    85     3     4    2
    86    79    80    2
    87    71    70    1
