@<TRIPOS>MOLECULE
tmp/3smrC00.pdb
 160 152 0 0 0
SMALL
GASTEIGER

@<TRIPOS>ATOM
      1  N        104.0310    9.7990   67.9760 N.3    17  ALA17      -0.1245
      2  CA       103.3700   10.7840   67.1110 C.3    17  ALA17       0.1562
      3  C        104.3590   11.4360   66.1500 C.2    17  ALA17       0.2260
      4  O        105.4730   11.7940   66.5460 O.2    17  ALA17      -0.2867
      5  CB       102.6890   11.8480   67.9520 C.3    17  ALA17       0.0290
      6  N        105.0310   14.7260   64.1910 N.3    19  SER19      -0.1202
      7  CA       104.5880   16.1030   64.4330 C.3    19  SER19       0.2020
      8  C        104.5500   17.0090   63.1980 C.2    19  SER19       0.2619
      9  O        103.7490   17.9480   63.1300 O.2    19  SER19      -0.2717
     10  CB       105.4690   16.7490   65.5040 C.3    19  SER19       0.2103
     11  OG       106.8300   16.7040   65.1250 O.3    19  SER19      -0.2182
     12  N        105.4120   16.7320   62.2240 N.am   20  SER20      -0.1951
     13  CA       105.6220   17.6640   61.1160 C.3    20  SER20       0.1924
     14  C        106.2170   16.9210   59.9420 C.2    20  SER20       0.2314
     15  O        107.1310   16.1210   60.1260 O.2    20  SER20      -0.2863
     16  CB       106.5780   18.7870   61.5420 C.3    20  SER20       0.2116
     17  OG       106.4680   19.9100   60.6840 O.3    20  SER20      -0.2180
     18  N        107.6520   12.9490   68.1330 N.3    35  ALA35      -0.1245
     19  CA       107.7990   12.8910   69.5730 C.3    35  ALA35       0.1562
     20  C        108.8450   11.8480   69.9820 C.2    35  ALA35       0.2260
     21  O        109.2840   11.8430   71.1240 O.2    35  ALA35      -0.2867
     22  CB       106.4500   12.6000   70.2420 C.3    35  ALA35       0.0290
     23  N        111.2740   15.1410   72.5130 N.3    59  GLY59      -0.1210
     24  CA       110.4750   15.1580   71.2870 C.3    59  GLY59       0.1956
     25  C        110.6340   16.4020   70.4330 C.2    59  GLY59       0.2612
     26  O        110.9120   17.4950   70.9460 O.2    59  GLY59      -0.2717
     27  N        110.4500   16.2250   69.1270 N.am   60  ILE60      -0.1965
     28  CA       110.5780   17.3150   68.1540 C.3    60  ILE60       0.1727
     29  C        109.2060   17.7170   67.6270 C.2    60  ILE60       0.2617
     30  O        108.4360   16.8720   67.1570 O.2    60  ILE60      -0.2715
     31  CB       111.4940   16.9250   66.9760 C.3    60  ILE60       0.0290
     32  CG1      112.8530   16.4400   67.4990 C.3    60  ILE60       0.0022
     33  CG2      111.6620   18.1120   66.0050 C.3    60  ILE60       0.0023
     34  CD1      113.7090   15.7590   66.4410 C.3    60  ILE60       0.0001
     35  N        108.9240   19.0160   67.6890 N.am   61  SER61      -0.1936
     36  CA       107.6450   19.5700   67.2670 C.3    61  SER61       0.2055
     37  C        107.6160   19.9890   65.7940 C.2    61  SER61       0.2643
     38  O        106.5710   19.9180   65.1490 O.2    61  SER61      -0.2714
     39  CB       107.3040   20.7710   68.1550 C.3    61  SER61       0.2130
     40  OG       106.0120   21.2800   67.8990 O.3    61  SER61      -0.2179
     41  N        108.7520   20.4200   65.2570 N.am   62  ASP62      -0.1971
     42  CA       108.7640   20.9900   63.9030 C.3    62  ASP62       0.1709
     43  C        110.1260   20.8200   63.2510 C.2    62  ASP62       0.2293
     44  O        111.1360   20.6460   63.9330 O.2    62  ASP62      -0.2864
     45  CB       108.3860   22.4830   63.9520 C.3    62  ASP62       0.1436
     46  CG       107.7540   23.0030   62.6450 C.2    62  ASP62       0.3671
     47  OD1      107.4810   22.2240   61.6930 O.co2  62  ASP62      -0.2456
     48  OD2      107.5320   24.2360   62.5830 O.co2  62  ASP62      -0.2456
     49  N        111.1390   19.9920   72.3440 N.3    77  ASP77      -0.1239
     50  CA       110.7490   20.1290   73.7460 C.3    77  ASP77       0.1674
     51  C        111.9560   20.3400   74.6570 C.2    77  ASP77       0.2266
     52  O        111.8030   20.7870   75.7930 O.2    77  ASP77      -0.2867
     53  CB       109.9690   18.8900   74.2120 C.3    77  ASP77       0.1410
     54  CG       108.4960   18.9250   73.8150 C.2    77  ASP77       0.3668
     55  OD1      108.0550   19.8740   73.1320 O.co2  77  ASP77      -0.2456
     56  OD2      107.7640   17.9880   74.1920 O.co2  77  ASP77      -0.2456
     57  N        108.1260   25.1660   69.6860 N.3   103  PHE103     -0.1227
     58  CA       107.0330   24.5270   68.9600 C.3   103  PHE103      0.1736
     59  C        107.1150   24.6180   67.4380 C.2   103  PHE103      0.2595
     60  O        106.5920   23.7510   66.7430 O.2   103  PHE103     -0.2718
     61  CB       105.6860   25.0940   69.4150 C.3   103  PHE103      0.0547
     62  CG       105.2650   24.6490   70.7900 C.ar  103  PHE103     -0.0202
     63  CD1      105.5690   23.3650   71.2600 C.ar  103  PHE103     -0.0042
     64  CD2      104.5410   25.5080   71.6090 C.ar  103  PHE103     -0.0042
     65  CE1      105.1590   22.9500   72.5350 C.ar  103  PHE103     -0.0003
     66  CE2      104.1280   25.1030   72.8830 C.ar  103  PHE103     -0.0003
     67  CZ       104.4380   23.8230   73.3450 C.ar  103  PHE103     -0.0000
     68  N        107.7450   25.6720   66.9320 N.am  104  CYS104     -0.1970
     69  CA       107.7180   25.9760   65.5080 C.3   104  CYS104      0.1712
     70  C        108.9940   26.6590   65.0190 C.2   104  CYS104      0.2296
     71  O        109.6660   27.3770   65.7740 O.2   104  CYS104     -0.2864
     72  CB       106.4960   26.8450   65.1860 C.3   104  CYS104      0.0983
     73  SG       106.2500   28.2230   66.3510 S.3   104  CYS104     -0.0798
     74  N        106.5530   27.8340   73.6710 N.3   119  PHE119     -0.1241
     75  CA       105.6730   27.8260   74.8450 C.3   119  PHE119      0.1605
     76  C        105.9760   29.0120   75.7710 C.2   119  PHE119      0.2264
     77  O        105.0760   29.5230   76.4440 O.2   119  PHE119     -0.2867
     78  CB       105.8380   26.5010   75.6040 C.3   119  PHE119      0.0534
     79  CG       104.9060   26.3330   76.7820 C.ar  119  PHE119     -0.0203
     80  CD1      103.7400   25.5780   76.6600 C.ar  119  PHE119     -0.0042
     81  CD2      105.2110   26.9030   78.0240 C.ar  119  PHE119     -0.0042
     82  CE1      102.8810   25.3990   77.7540 C.ar  119  PHE119     -0.0003
     83  CE2      104.3560   26.7380   79.1280 C.ar  119  PHE119     -0.0003
     84  CZ       103.1890   25.9810   78.9900 C.ar  119  PHE119     -0.0000
     85  N        101.3840   30.4480   74.7210 N.3   143  PRO143     -0.2116
     86  CA       102.2940   29.6870   73.8400 C.3   143  PRO143      0.1372
     87  C        102.1430   30.0310   72.3580 C.2   143  PRO143      0.2244
     88  O        101.0240   30.2400   71.8830 O.2   143  PRO143     -0.2868
     89  CB       101.8860   28.2320   74.0870 C.3   143  PRO143      0.0268
     90  CG       101.3940   28.2330   75.4960 C.3   143  PRO143      0.0207
     91  CD       100.7710   29.5790   75.7470 C.3   143  PRO143      0.0892
     92  N        102.1560   29.1060   68.5440 N.3   145  SER145     -0.1217
     93  CA       101.8310   27.8890   67.7910 C.3   145  SER145      0.1889
     94  C        102.4960   27.7780   66.4090 C.2   145  SER145      0.2288
     95  O        102.7500   26.6660   65.9410 O.2   145  SER145     -0.2866
     96  CB       100.3170   27.7530   67.6480 C.3   145  SER145      0.2089
     97  OG        99.7650   28.9210   67.0600 O.3   145  SER145     -0.2183
     98  N         98.0560   30.8830   71.2880 N.3   161  TYR161     -0.1241
     99  CA        96.9050   30.5340   72.1110 C.3   161  TYR161      0.1605
    100  C         96.1870   31.7390   72.7300 C.2   161  TYR161      0.2264
    101  O         95.0520   31.6090   73.2000 O.2   161  TYR161     -0.2867
    102  CB        97.3340   29.5580   73.2010 C.3   161  TYR161      0.0534
    103  CG        97.2560   28.1150   72.7640 C.ar  161  TYR161     -0.0201
    104  CD1       98.1480   27.5980   71.8170 C.ar  161  TYR161     -0.0009
    105  CD2       96.2780   27.2710   73.2850 C.ar  161  TYR161     -0.0009
    106  CE1       98.0660   26.2680   71.4090 C.ar  161  TYR161      0.0417
    107  CE2       96.1890   25.9420   72.8870 C.ar  161  TYR161      0.0417
    108  CZ        97.0860   25.4480   71.9500 C.ar  161  TYR161      0.1957
    109  OH        96.9940   24.1350   71.5600 O.3   161  TYR161     -0.2866
    110  N         94.2970   20.1920   68.7620 N.3   229  TYR229     -0.1227
    111  CA        95.6940   20.1480   68.3240 C.3   229  TYR229      0.1736
    112  C         96.0400   21.2630   67.3520 C.2   229  TYR229      0.2595
    113  O         95.1990   21.6990   66.5670 O.2   229  TYR229     -0.2718
    114  CB        96.0360   18.7770   67.7120 C.3   229  TYR229      0.0548
    115  CG        95.9350   17.6680   68.7200 C.ar  229  TYR229     -0.0200
    116  CD1       97.0150   17.3480   69.5410 C.ar  229  TYR229     -0.0009
    117  CD2       94.7430   16.9670   68.8910 C.ar  229  TYR229     -0.0009
    118  CE1       96.9130   16.3500   70.4970 C.ar  229  TYR229      0.0417
    119  CE2       94.6300   15.9720   69.8410 C.ar  229  TYR229      0.0417
    120  CZ        95.7170   15.6600   70.6360 C.ar  229  TYR229      0.1957
    121  OH        95.5930   14.6610   71.5750 O.3   229  TYR229     -0.2866
    122  N         97.2840   21.7230   67.4120 N.am  230  CYS230     -0.1970
    123  CA        97.7670   22.6750   66.4300 C.3   230  CYS230      0.1712
    124  C         98.0810   21.9540   65.1270 C.2   230  CYS230      0.2296
    125  O         99.1290   21.3170   64.9760 O.2   230  CYS230     -0.2864
    126  CB        98.9510   23.4620   66.9730 C.3   230  CYS230      0.0983
    127  SG        98.4680   24.4550   68.4150 S.3   230  CYS230     -0.0798
    128  N         98.6670   21.8230   61.1050 N.3   232  PHE232     -0.1241
    129  CA        99.2680   22.5990   60.0280 C.3   232  PHE232      0.1605
    130  C         98.3130   22.6730   58.8470 C.2   232  PHE232      0.2264
    131  O         97.5140   21.7590   58.6350 O.2   232  PHE232     -0.2867
    132  CB       100.5780   21.9390   59.5950 C.3   232  PHE232      0.0534
    133  CG       101.6360   22.9060   59.1520 C.ar  232  PHE232     -0.0203
    134  CD1      101.7920   23.2160   57.8070 C.ar  232  PHE232     -0.0042
    135  CD2      102.5020   23.4870   60.0840 C.ar  232  PHE232     -0.0042
    136  CE1      102.7830   24.1080   57.3860 C.ar  232  PHE232     -0.0003
    137  CE2      103.5020   24.3780   59.6780 C.ar  232  PHE232     -0.0003
    138  CZ       103.6400   24.6900   58.3250 C.ar  232  PHE232     -0.0000
    139  N         97.9410   15.7100   62.1350 N.3   274  ILE274     -0.1231
    140  CA        98.4340   16.9700   62.6810 C.3   274  ILE274      0.1692
    141  C         99.2580   17.7910   61.6840 C.2   274  ILE274      0.2592
    142  O         99.4060   19.0070   61.8380 O.2   274  ILE274     -0.2718
    143  CB        99.2210   16.7580   64.0090 C.3   274  ILE274      0.0266
    144  CG1       99.3350   18.0880   64.7720 C.3   274  ILE274      0.0019
    145  CG2      100.5910   16.1550   63.7340 C.3   274  ILE274      0.0020
    146  CD1       99.7790   17.9680   66.2310 C.3   274  ILE274      0.0001
    147  N         99.7850   17.1310   60.6560 N.am  275  SER275     -0.1952
    148  CA       100.6510   17.8050   59.7060 C.3   275  SER275      0.1924
    149  C        100.3330   17.3730   58.2840 C.2   275  SER275      0.2314
    150  O        100.1740   16.1880   58.0220 O.2   275  SER275     -0.2863
    151  CB       102.1180   17.5120   60.0190 C.3   275  SER275      0.2116
    152  OG       102.9760   18.3040   59.2090 O.3   275  SER275     -0.2180
    153  N         99.0740   11.2920   64.6800 N.3   290  LEU290     -0.1245
    154  CA        99.4960   11.1620   66.0730 C.3   290  LEU290      0.1561
    155  C         99.6940    9.6960   66.4830 C.2   290  LEU290      0.2260
    156  O         99.7340    8.8100   65.6260 O.2   290  LEU290     -0.2867
    157  CB        98.5450   11.9340   66.9990 C.3   290  LEU290      0.0270
    158  CG        98.4270   13.4520   66.7730 C.3   290  LEU290      0.0019
    159  CD1       97.5300   14.0850   67.8450 C.3   290  LEU290      0.0001
    160  CD2       99.7930   14.1490   66.7590 C.3   290  LEU290      0.0001
@<TRIPOS>BOND
     1   136   134   ar
     2   136   138   ar
     3   134   133   ar
     4   150   149    2
     5   149   148    1
     6   138   137   ar
     7   131   130    2
     8   130   129    1
     9   133   132    1
    10   133   135   ar
    11   152   151    1
    12   132   129    1
    13   137   135   ar
    14   148   151    1
    15   148   147    1
    16    14    15    2
    17    14    13    1
    18   129   128    1
    19   147   141   am
    20    17    16    1
    21    13    16    1
    22    13    12    1
    23   141   142    2
    24   141   140    1
    25    47    46   ar
    26   139   140    1
    27    12     8   am
    28    48    46   ar
    29    46    45    1
    30   140   143    1
    31     9     8    2
    32     8     7    1
    33    43    42    1
    34    43    44    2
    35   145   143    1
    36    42    45    1
    37    42    41    1
    38   143   144    1
    39     6     7    1
    40     7    10    1
    41   153   154    1
    42   144   146    1
    43   125   124    2
    44    70    69    1
    45    70    71    2
    46    11    10    1
    47   124   123    1
    48    38    37    2
    49    72    69    1
    50    72    73    1
    51    41    37   am
    52    69    68    1
    53   156   155    2
    54    37    36    1
    55    95    94    2
    56    33    31    1
    57   154   155    1
    58   154   157    1
    59     3     4    2
    60     3     2    1
    61    94    93    1
    62   123   126    1
    63   123   122    1
    64    34    32    1
    65   113   112    2
    66    60    59    2
    67   160   158    1
    68   158   157    1
    69   158   159    1
    70    68    59   am
    71   126   127    1
    72    31    32    1
    73    31    28    1
    74    97    96    1
    75     2     5    1
    76     2     1    1
    77    30    29    2
    78    36    35    1
    79    36    39    1
    80   112   122   am
    81   112   111    1
    82    59    58    1
    83    29    35   am
    84    29    28    1
    85    96    93    1
    86   114   111    1
    87   114   115    1
    88    93    92    1
    89    40    39    1
    90    18    19    1
    91    28    27    1
    92   111   110    1
    93   115   117   ar
    94   115   116   ar
    95   117   119   ar
    96    58    61    1
    97    58    57    1
    98    27    25   am
    99    61    62    1
   100   116   118   ar
   101    19    20    1
   102    19    22    1
   103   119   120   ar
   104    20    21    2
   105    25    26    2
   106    25    24    1
   107   118   120   ar
   108   120   121    1
   109    62    63   ar
   110    62    64   ar
   111    63    65   ar
   112    24    23    1
   113    98    99    1
   114   106   104   ar
   115   106   108   ar
   116   109   108    1
   117    64    66   ar
   118   104   103   ar
   119    88    87    2
   120   108   107   ar
   121    99   100    1
   122    99   102    1
   123    49    50    1
   124    87    86    1
   125    65    67   ar
   126   100   101    2
   127   103   102    1
   128   103   105   ar
   129    66    67   ar
   130   107   105   ar
   131    55    54   ar
   132    74    75    1
   133    50    53    1
   134    50    51    1
   135    54    56   ar
   136    54    53    1
   137    86    89    1
   138    86    85    1
   139    89    90    1
   140    51    52    2
   141    85    91    1
   142    75    78    1
   143    75    76    1
   144    90    91    1
   145    78    79    1
   146    76    77    2
   147    80    79   ar
   148    80    82   ar
   149    79    81   ar
   150    82    84   ar
   151    81    83   ar
   152    84    83   ar
