@<TRIPOS>MOLECULE
tmp/3smsA01.pdb
 84 77 0 0 0
SMALL
GASTEIGER

@<TRIPOS>ATOM
      1  N         26.2360   16.6380   -1.5160 N.3    10  GLY10      -0.1225
      2  CA        25.1940   16.4530   -2.4960 C.3    10  GLY10       0.1811
      3  C         23.9030   15.8840   -1.9540 C.2    10  GLY10       0.2280
      4  O         22.8490   16.1160   -2.5510 O.2    10  GLY10      -0.2866
      5  N         30.5440   20.6870   -1.7470 N.3    99  GLY99      -0.1225
      6  CA        30.0560   21.4390   -2.8920 C.3    99  GLY99       0.1811
      7  C         29.1880   22.6320   -2.5590 C.2    99  GLY99       0.2280
      8  O         29.2880   23.6890   -3.2010 O.2    99  GLY99      -0.2866
      9  N         36.8970   19.8590    0.0140 N.3   121  GLU121     -0.1231
     10  CA        36.1420   18.6880    0.4560 C.3   121  GLU121      0.1699
     11  C         37.0250   17.5090    0.8340 C.2   121  GLU121      0.2592
     12  O         36.8020   16.8420    1.8430 O.2   121  GLU121     -0.2718
     13  CB        35.2240   18.2590   -0.6910 C.3   121  GLU121      0.0402
     14  CG        34.4670   16.9950   -0.4620 C.3   121  GLU121      0.1161
     15  CD        33.6000   16.5750   -1.6590 C.2   121  GLU121      0.3649
     16  OE1       33.1970   17.4390   -2.4640 O.co2 121  GLU121     -0.2457
     17  OE2       33.3030   15.3710   -1.7480 O.co2 121  GLU121     -0.2457
     18  N         38.0280   17.2360    0.0080 N.am  122  LEU122     -0.1980
     19  CA        38.8870   16.0990    0.2440 C.3   122  LEU122      0.1596
     20  C         40.0410   16.4500    1.2020 C.2   122  LEU122      0.2287
     21  O         40.4490   15.6100    1.9900 O.2   122  LEU122     -0.2864
     22  CB        39.3470   15.5130   -1.0990 C.3   122  LEU122      0.0297
     23  CG        38.2120   15.0890   -2.0470 C.3   122  LEU122      0.0022
     24  CD1       38.8360   14.6250   -3.3400 C.3   122  LEU122      0.0001
     25  CD2       37.2410   13.9960   -1.4710 C.3   122  LEU122      0.0001
     26  N         35.6460    7.2050   -0.1410 N.3   172  ASN172     -0.1240
     27  CA        34.6130    8.0450    0.4360 C.3   172  ASN172      0.1653
     28  C         33.3220    7.8280   -0.3230 C.2   172  ASN172      0.2266
     29  O         33.1480    8.3750   -1.4100 O.2   172  ASN172     -0.2867
     30  CB        35.0700    9.5150    0.3550 C.3   172  ASN172      0.1155
     31  CG        34.1450   10.4580    1.0610 C.2   172  ASN172      0.2627
     32  OD1       33.4800   10.0860    2.0060 O.2   172  ASN172     -0.2716
     33  ND2       34.1000   11.7010    0.6050 N.am  172  ASN172     -0.0877
     34  N         27.0730   10.4230   -1.9670 N.3   175  SER175     -0.1202
     35  CA        26.2390   10.4530   -3.1590 C.3   175  SER175      0.2020
     36  C         27.0140    9.7620   -4.2600 C.2   175  SER175      0.2619
     37  O         26.5330    8.8030   -4.8690 O.2   175  SER175     -0.2717
     38  CB        25.9170   11.8980   -3.5590 C.3   175  SER175      0.2103
     39  OG        25.1590   12.5480   -2.5380 O.3   175  SER175     -0.2182
     40  N         28.2390   10.2220   -4.4580 N.am  176  GLY176     -0.1942
     41  CA        29.1930    9.5610   -5.3310 C.3   176  GLY176      0.2014
     42  C         30.4090    9.1240   -4.5550 C.2   176  GLY176      0.2639
     43  O         30.3950    9.1940   -3.3250 O.2   176  GLY176     -0.2714
     44  N         31.4660    8.7000   -5.2620 N.am  177  VAL177     -0.1963
     45  CA        32.6310    8.0770   -4.6110 C.3   177  VAL177      0.1727
     46  C         33.9310    8.7200   -5.0830 C.2   177  VAL177      0.2616
     47  O         34.1170    8.8820   -6.2900 O.2   177  VAL177     -0.2715
     48  CB        32.6680    6.5630   -4.8870 C.3   177  VAL177      0.0290
     49  CG1       33.8400    5.8800   -4.1380 C.3   177  VAL177      0.0023
     50  CG2       31.3010    5.9300   -4.5180 C.3   177  VAL177      0.0023
     51  N         34.7810    9.1560   -4.1510 N.am  178  SER178     -0.1950
     52  CA        36.1530    9.5480   -4.4730 C.3   178  SER178      0.1924
     53  C         37.0770    8.5670   -3.7770 C.2   178  SER178      0.2314
     54  O         36.7910    8.1250   -2.6780 O.2   178  SER178     -0.2863
     55  CB        36.4660   10.9750   -3.9950 C.3   178  SER178      0.2116
     56  OG        35.8180   11.9610   -4.8010 O.3   178  SER178     -0.2180
     57  N         43.7420   12.0890   -5.3840 N.3   190  ARG190     -0.1245
     58  CA        42.5170   11.4290   -5.7440 C.3   190  ARG190      0.1563
     59  C         42.8720   10.4590   -6.8890 C.2   190  ARG190      0.2260
     60  O         43.0570   10.8780   -8.0080 O.2   190  ARG190     -0.2867
     61  CB        41.4930   12.4840   -6.1770 C.3   190  ARG190      0.0307
     62  CG        40.1050   11.9480   -6.3350 C.3   190  ARG190      0.0489
     63  CD        39.1350   13.0210   -6.7590 C.3   190  ARG190      0.2205
     64  NE        37.7770   12.4940   -6.9370 N.pl3 190  ARG190     -0.0865
     65  CZ        37.3520   11.8510   -8.0080 C.cat 190  ARG190      0.5346
     66  NH1       38.1690   11.6160   -9.0320 N.pl3 190  ARG190      0.1354
     67  NH2       36.0970   11.4180   -8.0570 N.pl3 190  ARG190      0.1354
     68  N         37.4960    7.7370   -8.9670 N.3   193  GLY193     -0.1210
     69  CA        36.2120    7.8220   -8.3220 C.3   193  GLY193      0.1956
     70  C         35.2290    7.0570   -9.1490 C.2   193  GLY193      0.2613
     71  O         35.5750    6.5370  -10.2140 O.2   193  GLY193     -0.2717
     72  N         34.0090    6.9720   -8.6480 N.am  194  THR194     -0.1938
     73  CA        32.9000    6.3950   -9.3830 C.3   194  THR194      0.2028
     74  C         31.6090    7.1620   -9.0420 C.2   194  THR194      0.2642
     75  O         31.3900    7.5640   -7.8960 O.2   194  THR194     -0.2714
     76  CB        32.7670    4.8350   -9.1350 C.3   194  THR194      0.1808
     77  OG1       31.6690    4.3120   -9.8910 O.3   194  THR194     -0.2208
     78  CG2       32.6010    4.4520   -7.6070 C.3   194  THR194      0.0379
     79  N         30.7780    7.3930  -10.0570 N.am  195  SER195     -0.1949
     80  CA        29.4870    7.9900   -9.8460 C.3   195  SER195      0.1924
     81  C         28.4720    6.9510   -9.3360 C.2   195  SER195      0.2314
     82  O         27.3770    7.3180   -8.9460 O.2   195  SER195     -0.2863
     83  CB        29.0030    8.6790  -11.1230 C.3   195  SER195      0.2116
     84  OG        28.6570    7.7530  -12.1420 O.3   195  SER195     -0.2180
@<TRIPOS>BOND
     1    84    83    1
     2    83    80    1
     3    71    70    2
     4    79    80    1
     5    79    74   am
     6    77    76    1
     7    80    81    1
     8    73    76    1
     9    73    74    1
    10    73    72    1
    11    81    82    2
    12    70    72   am
    13    70    69    1
    14    76    78    1
    15    74    75    2
    16    66    65    1
    17    68    69    1
    18    67    65    1
    19    60    59    2
    20    65    64    2
    21    64    63    1
    22    59    58    1
    23    63    62    1
    24    62    61    1
    25    47    46    2
    26    61    58    1
    27    58    57    1
    28    41    42    1
    29    41    40    1
    30    44    45    1
    31    44    42   am
    32    46    45    1
    33    46    51   am
    34    48    45    1
    35    48    50    1
    36    48    49    1
    37    37    36    2
    38    56    55    1
    39    42    43    2
    40    52    51    1
    41    52    55    1
    42    52    53    1
    43    40    36   am
    44    36    35    1
    45    53    54    2
    46    38    35    1
    47    38    39    1
    48    24    23    1
    49     8     7    2
    50    35    34    1
    51     6     7    1
    52     6     5    1
    53     4     3    2
    54     2     3    1
    55     2     1    1
    56    16    15   ar
    57    23    25    1
    58    23    22    1
    59    17    15   ar
    60    15    14    1
    61    29    28    2
    62    22    19    1
    63    13    14    1
    64    13    10    1
    65    28    27    1
    66    26    27    1
    67    18    19    1
    68    18    11   am
    69     9    10    1
    70    19    20    1
    71    30    27    1
    72    30    31    1
    73    10    11    1
    74    33    31   am
    75    11    12    2
    76    31    32    2
    77    20    21    2
