@<TRIPOS>MOLECULE
tmp/3sn0A00.pdb
 163 155 0 0 0
SMALL
GASTEIGER

@<TRIPOS>ATOM
      1  N         15.9660   50.5790   12.0960 N.3    40  PHE40      -0.1241
      2  CA        17.3810   50.9160   12.2800 C.3    40  PHE40       0.1605
      3  C         17.9040   51.6810   11.0590 C.2    40  PHE40       0.2264
      4  O         18.8390   51.2550   10.3900 O.2    40  PHE40      -0.2867
      5  CB        18.1930   49.6560   12.5750 C.3    40  PHE40       0.0534
      6  CG        19.5300   49.9250   13.2330 C.ar   40  PHE40      -0.0203
      7  CD1       19.6150   50.6900   14.4000 C.ar   40  PHE40      -0.0042
      8  CD2       20.6920   49.3950   12.6990 C.ar   40  PHE40      -0.0042
      9  CE1       20.8380   50.9200   15.0110 C.ar   40  PHE40      -0.0003
     10  CE2       21.9260   49.6150   13.3110 C.ar   40  PHE40      -0.0003
     11  CZ        21.9950   50.3850   14.4690 C.ar   40  PHE40      -0.0000
     12  N         22.2380   44.7080   24.5680 N.3   123  HIS123     -0.1241
     13  CA        21.3760   45.7830   25.0710 C.3   123  HIS123      0.1621
     14  C         21.0570   45.5870   26.5510 C.2   123  HIS123      0.2264
     15  O         19.9090   45.6120   26.9680 O.2   123  HIS123     -0.2867
     16  CB        20.1210   45.8850   24.2080 C.3   123  HIS123      0.0745
     17  CG        20.4450   46.0480   22.7520 C.ar  123  HIS123      0.0817
     18  ND1       20.4310   44.9910   21.8660 N.ar  123  HIS123     -0.2268
     19  CD2       20.8830   47.1200   22.0540 C.ar  123  HIS123      0.1154
     20  CE1       20.8270   45.4170   20.6770 C.ar  123  HIS123      0.1986
     21  NE2       21.1010   46.7070   20.7620 N.ar  123  HIS123     -0.2212
     22  N         20.7800   48.3780   28.3450 N.3   126  THR126     -0.1203
     23  CA        20.2560   49.3600   27.3930 C.3   126  THR126      0.1994
     24  C         18.7280   49.2870   27.1720 C.2   126  THR126      0.2617
     25  O         18.0570   50.3010   27.2180 O.2   126  THR126     -0.2717
     26  CB        20.9820   49.2020   26.0690 C.3   126  THR126      0.1784
     27  OG1       22.3970   49.2210   26.3230 O.3   126  THR126     -0.2211
     28  CG2       20.5870   50.2870   25.0740 C.3   126  THR126      0.0376
     29  N         18.1890   48.0930   26.9550 N.am  127  TRP127     -0.1975
     30  CA        16.7500   47.9580   26.7210 C.3   127  TRP127      0.1640
     31  C         15.9020   48.2820   27.9650 C.2   127  TRP127      0.2290
     32  O         14.8200   48.8610   27.8400 O.2   127  TRP127     -0.2864
     33  CB        16.4000   46.5510   26.2150 C.3   127  TRP127      0.0576
     34  CG        16.5690   46.2330   24.7200 C.ar  127  TRP127      0.0006
     35  CD1       16.3390   45.0080   24.1490 C.ar  127  TRP127      0.0946
     36  CD2       17.0010   47.0910   23.6480 C.ar  127  TRP127      0.0152
     37  NE1       16.5800   45.0540   22.8030 N.ar  127  TRP127     -0.2442
     38  CE2       16.9940   46.3170   22.4700 C.ar  127  TRP127      0.0810
     39  CE3       17.4080   48.4280   23.5670 C.ar  127  TRP127      0.0012
     40  CZ2       17.3700   46.8300   21.2280 C.ar  127  TRP127      0.0191
     41  CZ3       17.7800   48.9370   22.3330 C.ar  127  TRP127      0.0001
     42  CH2       17.7530   48.1410   21.1760 C.ar  127  TRP127      0.0015
     43  N         16.1650   52.2290   28.1420 N.3   130  ASN130     -0.1240
     44  CA        15.6280   52.9990   27.0190 C.3   130  ASN130      0.1653
     45  C         14.1980   52.6520   26.6450 C.2   130  ASN130      0.2266
     46  O         13.4940   53.5170   26.1410 O.2   130  ASN130     -0.2867
     47  CB        16.5360   52.8830   25.7810 C.3   130  ASN130      0.1155
     48  CG        17.8700   53.5620   25.9750 C.2   130  ASN130      0.2627
     49  OD1       18.0520   54.3440   26.9130 O.2   130  ASN130     -0.2716
     50  ND2       18.8070   53.3000   25.0700 N.am  130  ASN130     -0.0877
     51  N         26.4550   43.2820   26.7750 N.3   161  LYS161     -0.1245
     52  CA        26.8440   44.4860   26.0420 C.3   161  LYS161      0.1561
     53  C         25.9920   45.6820   26.4020 C.2   161  LYS161      0.2260
     54  O         24.7480   45.6210   26.3450 O.2   161  LYS161     -0.2867
     55  CB        26.7920   44.2670   24.5300 C.3   161  LYS161      0.0271
     56  CG        27.4680   45.3890   23.7410 C.3   161  LYS161      0.0035
     57  CD        27.6970   45.0320   22.2680 C.3   161  LYS161      0.0206
     58  CE        26.4420   45.1820   21.4260 C.3   161  LYS161      0.1093
     59  NZ        26.6280   44.5810   20.0810 N.3   161  LYS161     -0.1314
     60  N         25.7530   50.2650   26.2060 N.3   163  ASN163     -0.1240
     61  CA        25.9560   51.4280   25.3140 C.3   163  ASN163      0.1653
     62  C         26.3370   52.6200   26.2030 C.2   163  ASN163      0.2266
     63  O         26.9110   52.4030   27.2570 O.2   163  ASN163     -0.2867
     64  CB        24.6850   51.6750   24.4830 C.3   163  ASN163      0.1155
     65  CG        24.3140   50.4910   23.5960 C.2   163  ASN163      0.2627
     66  OD1       23.6830   49.5200   24.0510 O.2   163  ASN163     -0.2716
     67  ND2       24.6780   50.5720   22.2970 N.am  163  ASN163     -0.0877
     68  N         23.2050   59.3740   22.6360 N.3   176  ARG176     -0.1245
     69  CA        23.1270   58.8330   21.2820 C.3   176  ARG176      0.1563
     70  C         23.2090   59.9280   20.2030 C.2   176  ARG176      0.2260
     71  O         22.3930   59.9410   19.2770 O.2   176  ARG176     -0.2867
     72  CB        21.8060   58.0510   21.1190 C.3   176  ARG176      0.0307
     73  CG        21.6400   56.8810   22.1220 C.3   176  ARG176      0.0489
     74  CD        20.1940   56.3710   22.1640 C.3   176  ARG176      0.2205
     75  NE        19.8140   55.8430   20.8660 N.pl3 176  ARG176     -0.0865
     76  CZ        19.0430   56.4630   19.9770 C.cat 176  ARG176      0.5346
     77  NH1       18.8190   55.8780   18.8100 N.pl3 176  ARG176      0.1354
     78  NH2       18.4830   57.6580   20.2360 N.pl3 176  ARG176      0.1354
     79  N         22.8840   59.2830   16.4470 N.3   179  PHE179     -0.1241
     80  CA        21.5180   59.0690   15.9750 C.3   179  PHE179      0.1605
     81  C         20.6010   60.2310   16.3410 C.2   179  PHE179      0.2264
     82  O         19.3650   60.0800   16.3910 O.2   179  PHE179     -0.2867
     83  CB        20.9820   57.7450   16.5430 C.3   179  PHE179      0.0534
     84  CG        21.7700   56.5110   16.1290 C.ar  179  PHE179     -0.0203
     85  CD1       22.3310   56.3810   14.8510 C.ar  179  PHE179     -0.0042
     86  CD2       21.9230   55.4350   17.0280 C.ar  179  PHE179     -0.0042
     87  CE1       23.0290   55.2280   14.4950 C.ar  179  PHE179     -0.0003
     88  CE2       22.6210   54.3050   16.6820 C.ar  179  PHE179     -0.0003
     89  CZ        23.1800   54.1890   15.4000 C.ar  179  PHE179     -0.0000
     90  N         29.4440   49.1450   23.3950 N.3   217  ASP217     -0.1239
     91  CA        29.1140   49.5870   22.0520 C.3   217  ASP217      0.1674
     92  C         28.9800   51.1090   22.0440 C.2   217  ASP217      0.2266
     93  O         28.1210   51.6660   22.7150 O.2   217  ASP217     -0.2867
     94  CB        27.8240   48.9220   21.5730 C.3   217  ASP217      0.1410
     95  CG        27.6620   48.9500   20.0700 C.2   217  ASP217      0.3668
     96  OD1       28.2290   49.8550   19.4200 O.co2 217  ASP217     -0.2456
     97  OD2       26.9360   48.0640   19.5420 O.co2 217  ASP217     -0.2456
     98  N         28.6110   52.6860   19.0190 N.3   219  ASN219     -0.1240
     99  CA        27.9370   52.9510   17.7530 C.3   219  ASN219      0.1653
    100  C         28.6670   54.0440   16.9260 C.2   219  ASN219      0.2266
    101  O         29.8950   53.9790   16.7660 O.2   219  ASN219     -0.2867
    102  CB        26.4460   53.2520   17.9960 C.3   219  ASN219      0.1155
    103  CG        25.7490   52.1500   18.7560 C.2   219  ASN219      0.2627
    104  OD1       25.6530   52.1940   19.9850 O.2   219  ASN219     -0.2716
    105  ND2       25.2690   51.1380   18.0370 N.am  219  ASN219     -0.0877
    106  N         28.6890   57.2480   17.8110 N.3   221  ASN221     -0.1240
    107  CA        28.5100   58.4100   18.7100 C.3   221  ASN221      0.1653
    108  C         29.7060   59.3330   18.9470 C.2   221  ASN221      0.2266
    109  O         29.6580   60.2020   19.8280 O.2   221  ASN221     -0.2867
    110  CB        27.9480   57.9080   20.0550 C.3   221  ASN221      0.1155
    111  CG        26.5280   57.4250   19.9240 C.2   221  ASN221      0.2627
    112  OD1       25.7120   58.0570   19.2470 O.2   221  ASN221     -0.2716
    113  ND2       26.2200   56.2910   20.5480 N.am  221  ASN221     -0.0877
    114  N         28.9400   46.2280   11.4970 N.3   267  GLU267     -0.1245
    115  CA        27.5540   45.7600   11.4960 C.3   267  GLU267      0.1567
    116  C         26.6700   46.3810   10.4220 C.2   267  GLU267      0.2260
    117  O         25.5960   45.8360   10.1270 O.2   267  GLU267     -0.2867
    118  CB        26.8820   45.9590   12.8640 C.3   267  GLU267      0.0388
    119  CG        26.4500   47.3970   13.1560 C.3   267  GLU267      0.1160
    120  CD        25.9970   47.6010   14.5920 C.2   267  GLU267      0.3649
    121  OE1       25.0300   48.3750   14.8180 O.co2 267  GLU267     -0.2457
    122  OE2       26.5940   46.9710   15.4940 O.co2 267  GLU267     -0.2457
    123  N         24.9840   40.0500   13.7310 N.3   315  HIS315     -0.1241
    124  CA        24.2240   41.1460   14.2880 C.3   315  HIS315      0.1621
    125  C         22.8070   40.6180   14.5250 C.2   315  HIS315      0.2264
    126  O         22.1190   40.2520   13.5930 O.2   315  HIS315     -0.2867
    127  CB        24.2100   42.2910   13.2830 C.3   315  HIS315      0.0745
    128  CG        23.8720   43.6260   13.8620 C.ar  315  HIS315      0.0817
    129  ND1       23.4350   44.6740   13.0770 N.ar  315  HIS315     -0.2268
    130  CD2       23.9940   44.1200   15.1170 C.ar  315  HIS315      0.1154
    131  CE1       23.2630   45.7450   13.8300 C.ar  315  HIS315      0.1986
    132  NE2       23.6110   45.4420   15.0710 N.ar  315  HIS315     -0.2212
    133  N         19.4680   41.3580   17.0200 N.3   317  PHE317     -0.1241
    134  CA        18.7800   42.1410   18.0560 C.3   317  PHE317      0.1605
    135  C         17.3290   42.4150   17.6570 C.2   317  PHE317      0.2264
    136  O         16.7800   43.4850   17.9260 O.2   317  PHE317     -0.2867
    137  CB        19.5290   43.4510   18.3470 C.3   317  PHE317      0.0534
    138  CG        19.5630   44.4290   17.1990 C.ar  317  PHE317     -0.0203
    139  CD1       18.9410   45.6690   17.3030 C.ar  317  PHE317     -0.0042
    140  CD2       20.2830   44.1490   16.0480 C.ar  317  PHE317     -0.0042
    141  CE1       18.9830   46.5850   16.2300 C.ar  317  PHE317     -0.0003
    142  CE2       20.3120   45.0460   14.9850 C.ar  317  PHE317     -0.0003
    143  CZ        19.6660   46.2570   15.0750 C.ar  317  PHE317     -0.0000
    144  N         15.0010   54.1700   15.2230 N.3   389  LEU389     -0.1245
    145  CA        15.7190   55.4470   15.3760 C.3   389  LEU389      0.1561
    146  C         14.7900   56.6660   15.3390 C.2   389  LEU389      0.2260
    147  O         15.0910   57.7090   15.9580 O.2   389  LEU389     -0.2867
    148  CB        16.8470   55.5960   14.3460 C.3   389  LEU389      0.0270
    149  CG        17.9080   54.4930   14.3810 C.3   389  LEU389      0.0019
    150  CD1       19.0080   54.7460   13.3220 C.3   389  LEU389      0.0001
    151  CD2       18.5310   54.3130   15.7840 C.3   389  LEU389      0.0001
    152  N         12.9330   57.2760   19.1990 N.3   392  TYR392     -0.1241
    153  CA        13.7570   57.9060   20.2490 C.3   392  TYR392      0.1605
    154  C         13.6190   59.4220   20.1300 C.2   392  TYR392      0.2264
    155  O         13.5600   60.1380   21.1280 O.2   392  TYR392     -0.2867
    156  CB        15.2450   57.5730   20.0990 C.3   392  TYR392      0.0534
    157  CG        15.6420   56.1360   20.3610 C.ar  392  TYR392     -0.0201
    158  CD1       15.9880   55.7050   21.6420 C.ar  392  TYR392     -0.0009
    159  CD2       15.7140   55.2190   19.3190 C.ar  392  TYR392     -0.0009
    160  CE1       16.3770   54.3860   21.8800 C.ar  392  TYR392      0.0417
    161  CE2       16.0930   53.9060   19.5440 C.ar  392  TYR392      0.0417
    162  CZ        16.4220   53.4930   20.8250 C.ar  392  TYR392      0.1957
    163  OH        16.7980   52.2000   21.0350 O.3   392  TYR392     -0.2866
@<TRIPOS>BOND
     1   117   116    2
     2     4     3    2
     3   116   115    1
     4     3     2    1
     5   115   114    1
     6   115   118    1
     7     1     2    1
     8     2     5    1
     9     5     6    1
    10     8     6   ar
    11     8    10   ar
    12   118   119    1
    13   129   131   ar
    14   129   128   ar
    15   119   120    1
    16     6     7   ar
    17   127   128    1
    18   127   124    1
    19    10    11   ar
    20   150   149    1
    21   126   125    2
    22   123   124    1
    23   131   132   ar
    24   128   130   ar
    25   124   125    1
    26   148   149    1
    27   148   145    1
    28   149   151    1
    29     7     9   ar
    30    11     9   ar
    31    87    85   ar
    32    87    89   ar
    33   120   121   ar
    34   120   122   ar
    35    85    84   ar
    36   142   143   ar
    37   142   140   ar
    38   132   130   ar
    39   143   141   ar
    40   144   145    1
    41   146   145    1
    42   146   147    2
    43    89    88   ar
    44    80    81    1
    45    80    79    1
    46    80    83    1
    47   140   138   ar
    48    84    83    1
    49    84    86   ar
    50   141   139   ar
    51    81    82    2
    52    88    86   ar
    53   101   100    2
    54   100    99    1
    55   133   134    1
    56   138   139   ar
    57   138   137    1
    58   135   136    2
    59   135   134    1
    60    99   102    1
    61    99    98    1
    62   106   107    1
    63   102   103    1
    64   105   103   am
    65   134   137    1
    66   107   108    1
    67   107   110    1
    68   103   104    2
    69    77    76    1
    70   108   109    2
    71   152   153    1
    72   112   111    2
    73    71    70    2
    74   159   161   ar
    75   159   157   ar
    76    96    95   ar
    77    97    95   ar
    78   161   162   ar
    79   111   110    1
    80   111   113   am
    81    76    78    1
    82    76    75    2
    83    95    94    1
    84    59    58    1
    85   156   153    1
    86   156   157    1
    87   154   153    1
    88   154   155    2
    89    70    69    1
    90   157   158   ar
    91    20    21   ar
    92    20    18   ar
    93    21    19   ar
    94   162   163    1
    95   162   160   ar
    96    75    74    1
    97    72    69    1
    98    72    73    1
    99    42    40   ar
   100    42    41   ar
   101    40    38   ar
   102    69    68    1
   103    58    57    1
   104    94    91    1
   105   158   160   ar
   106    18    17   ar
   107    92    91    1
   108    92    93    2
   109    91    90    1
   110    19    17   ar
   111    73    74    1
   112    57    56    1
   113    67    65   am
   114    41    39   ar
   115    38    37   ar
   116    38    36   ar
   117    17    16    1
   118    37    35   ar
   119    39    36   ar
   120    65    66    2
   121    65    64    1
   122    36    34   ar
   123    56    55    1
   124    35    34   ar
   125    16    13    1
   126    64    61    1
   127    55    52    1
   128    12    13    1
   129    34    33    1
   130    50    48   am
   131    13    14    1
   132    28    26    1
   133    61    62    1
   134    61    60    1
   135    47    48    1
   136    47    44    1
   137    48    49    2
   138    52    53    1
   139    52    51    1
   140    26    27    1
   141    26    23    1
   142    46    45    2
   143    62    63    2
   144    33    30    1
   145    54    53    2
   146    14    15    2
   147    45    44    1
   148    30    29    1
   149    30    31    1
   150    29    24   am
   151    44    43    1
   152    24    25    2
   153    24    23    1
   154    23    22    1
   155    32    31    2
