@<TRIPOS>MOLECULE
tmp/3sn1A00.pdb
 146 138 0 0 0
SMALL
GASTEIGER

@<TRIPOS>ATOM
      1  N         15.9630   50.6750   12.0150 N.3    40  PHE40      -0.1241
      2  CA        17.3830   50.9870   12.1510 C.3    40  PHE40       0.1605
      3  C         17.8520   51.7550   10.9190 C.2    40  PHE40       0.2264
      4  O         18.6710   51.2840   10.1250 O.2    40  PHE40      -0.2867
      5  CB        18.1820   49.7270   12.4090 C.3    40  PHE40       0.0534
      6  CG        19.5850   49.9780   12.9200 C.ar   40  PHE40      -0.0203
      7  CD1       19.8190   50.8960   13.9470 C.ar   40  PHE40      -0.0042
      8  CD2       20.6540   49.2860   12.4030 C.ar   40  PHE40      -0.0042
      9  CE1       21.1000   51.1310   14.4140 C.ar   40  PHE40      -0.0003
     10  CE2       21.9580   49.5050   12.8860 C.ar   40  PHE40      -0.0003
     11  CZ        22.1670   50.4420   13.8930 C.ar   40  PHE40      -0.0000
     12  N         22.3330   44.7610   24.6570 N.3   123  HIS123     -0.1241
     13  CA        21.4550   45.8170   25.1600 C.3   123  HIS123      0.1621
     14  C         21.1380   45.6250   26.6250 C.2   123  HIS123      0.2264
     15  O         19.9870   45.6350   27.0260 O.2   123  HIS123     -0.2867
     16  CB        20.1960   45.8910   24.3100 C.3   123  HIS123      0.0745
     17  CG        20.5050   46.2220   22.8860 C.ar  123  HIS123      0.0817
     18  ND1       20.6050   45.2620   21.9040 N.ar  123  HIS123     -0.2268
     19  CD2       20.8460   47.3960   22.3050 C.ar  123  HIS123      0.1154
     20  CE1       20.9490   45.8420   20.7660 C.ar  123  HIS123      0.1986
     21  NE2       21.0890   47.1380   20.9800 N.ar  123  HIS123     -0.2212
     22  N         18.1780   48.0800   27.0900 N.3   127  TRP127     -0.1241
     23  CA        16.7440   47.9300   26.8400 C.3   127  TRP127      0.1605
     24  C         15.9020   48.3060   28.0610 C.2   127  TRP127      0.2264
     25  O         14.8420   48.9070   27.9290 O.2   127  TRP127     -0.2867
     26  CB        16.4250   46.4900   26.4000 C.3   127  TRP127      0.0550
     27  CG        16.5330   46.1220   24.8960 C.ar  127  TRP127      0.0003
     28  CD1       16.2320   44.9020   24.3610 C.ar  127  TRP127      0.0946
     29  CD2       16.9340   46.9490   23.7850 C.ar  127  TRP127      0.0152
     30  NE1       16.4340   44.9080   22.9950 N.ar  127  TRP127     -0.2442
     31  CE2       16.8590   46.1490   22.6200 C.ar  127  TRP127      0.0810
     32  CE3       17.3680   48.2680   23.6640 C.ar  127  TRP127      0.0012
     33  CZ2       17.1980   46.6280   21.3520 C.ar  127  TRP127      0.0191
     34  CZ3       17.6950   48.7460   22.4080 C.ar  127  TRP127      0.0001
     35  CH2       17.6140   47.9230   21.2690 C.ar  127  TRP127      0.0015
     36  N         26.5810   43.2960   26.9660 N.3   161  LYS161     -0.1245
     37  CA        26.9740   44.5000   26.2320 C.3   161  LYS161      0.1561
     38  C         26.1130   45.7020   26.5220 C.2   161  LYS161      0.2260
     39  O         24.8780   45.6330   26.3980 O.2   161  LYS161     -0.2867
     40  CB        26.9480   44.2410   24.7330 C.3   161  LYS161      0.0271
     41  CG        27.5260   45.3890   23.9070 C.3   161  LYS161      0.0035
     42  CD        27.8100   45.0150   22.4410 C.3   161  LYS161      0.0206
     43  CE        26.5980   45.2040   21.5200 C.3   161  LYS161      0.1093
     44  NZ        26.8460   44.6440   20.1470 N.3   161  LYS161     -0.1314
     45  N         25.8770   50.3090   26.3380 N.3   163  ASN163     -0.1240
     46  CA        26.0600   51.4660   25.4510 C.3   163  ASN163      0.1653
     47  C         26.4830   52.6600   26.3190 C.2   163  ASN163      0.2266
     48  O         27.1310   52.4520   27.3260 O.2   163  ASN163     -0.2867
     49  CB        24.7640   51.7180   24.6580 C.3   163  ASN163      0.1155
     50  CG        24.3790   50.5360   23.7800 C.2   163  ASN163      0.2627
     51  OD1       23.7470   49.5620   24.2410 O.2   163  ASN163     -0.2716
     52  ND2       24.7510   50.6050   22.4950 N.am  163  ASN163     -0.0877
     53  N         23.2330   59.2880   22.5570 N.3   176  ARG176     -0.1245
     54  CA        23.2130   58.7380   21.2060 C.3   176  ARG176      0.1563
     55  C         23.2840   59.8550   20.1430 C.2   176  ARG176      0.2260
     56  O         22.4810   59.8710   19.2100 O.2   176  ARG176     -0.2867
     57  CB        21.9370   57.8910   20.9850 C.3   176  ARG176      0.0307
     58  CG        21.7260   56.7630   22.0190 C.3   176  ARG176      0.0489
     59  CD        20.6210   55.7480   21.6460 C.3   176  ARG176      0.2205
     60  NE        19.4860   56.3540   20.9620 N.pl3 176  ARG176     -0.0865
     61  CZ        18.9070   55.8780   19.8560 C.cat 176  ARG176      0.5346
     62  NH1       17.8920   56.5490   19.3220 N.pl3 176  ARG176      0.1354
     63  NH2       19.3070   54.7300   19.2840 N.pl3 176  ARG176      0.1354
     64  N         22.9440   59.3000   16.3870 N.3   179  PHE179     -0.1241
     65  CA        21.5780   59.1040   15.8730 C.3   179  PHE179      0.1605
     66  C         20.6570   60.2640   16.2550 C.2   179  PHE179      0.2264
     67  O         19.4090   60.1250   16.2830 O.2   179  PHE179     -0.2867
     68  CB        21.0180   57.7610   16.3760 C.3   179  PHE179      0.0534
     69  CG        21.8300   56.5430   15.9910 C.ar  179  PHE179     -0.0203
     70  CD1       22.5150   56.4550   14.7720 C.ar  179  PHE179     -0.0042
     71  CD2       21.8610   55.4320   16.8410 C.ar  179  PHE179     -0.0042
     72  CE1       23.2310   55.3200   14.4340 C.ar  179  PHE179     -0.0003
     73  CE2       22.5730   54.2940   16.5100 C.ar  179  PHE179     -0.0003
     74  CZ        23.2770   54.2320   15.3020 C.ar  179  PHE179     -0.0000
     75  N         29.4990   49.1350   23.4340 N.3   217  ASP217     -0.1239
     76  CA        29.1450   49.5840   22.0900 C.3   217  ASP217      0.1674
     77  C         29.0220   51.1040   22.0690 C.2   217  ASP217      0.2266
     78  O         28.1470   51.6800   22.7310 O.2   217  ASP217     -0.2867
     79  CB        27.8190   48.9490   21.6350 C.3   217  ASP217      0.1410
     80  CG        27.6310   48.9980   20.1210 C.2   217  ASP217      0.3668
     81  OD1       28.2970   49.8300   19.4540 O.co2 217  ASP217     -0.2456
     82  OD2       26.8330   48.1810   19.5880 O.co2 217  ASP217     -0.2456
     83  N         28.6670   52.6880   19.0310 N.3   219  ASN219     -0.1240
     84  CA        27.9500   52.9590   17.7910 C.3   219  ASN219      0.1653
     85  C         28.6890   54.0350   16.9600 C.2   219  ASN219      0.2266
     86  O         29.9130   53.9460   16.8140 O.2   219  ASN219     -0.2867
     87  CB        26.4770   53.2830   18.0800 C.3   219  ASN219      0.1155
     88  CG        25.7460   52.1480   18.7360 C.2   219  ASN219      0.2627
     89  OD1       25.7060   52.0480   19.9670 O.2   219  ASN219     -0.2716
     90  ND2       25.1360   51.2810   17.9220 N.am  219  ASN219     -0.0877
     91  N         33.0900   48.5000   20.5620 N.3   243  GLU243     -0.1245
     92  CA        32.4690   48.4300   19.2620 C.3   243  GLU243      0.1567
     93  C         32.2920   49.8420   18.7580 C.2   243  GLU243      0.2260
     94  O         31.7050   50.6960   19.4420 O.2   243  GLU243     -0.2867
     95  CB        31.1240   47.7180   19.4210 C.3   243  GLU243      0.0388
     96  CG        30.3590   47.3430   18.1750 C.3   243  GLU243      0.1160
     97  CD        29.1920   46.3820   18.4900 C.2   243  GLU243      0.3649
     98  OE1       28.2270   46.3710   17.7080 O.co2 243  GLU243     -0.2457
     99  OE2       29.2510   45.6270   19.4980 O.co2 243  GLU243     -0.2457
    100  N         28.9600   46.3530   11.5650 N.3   267  GLU267     -0.1245
    101  CA        27.5740   45.8510   11.5730 C.3   267  GLU267      0.1567
    102  C         26.7040   46.4270   10.4760 C.2   267  GLU267      0.2260
    103  O         25.6480   45.8480   10.1720 O.2   267  GLU267     -0.2867
    104  CB        26.8700   46.0540   12.9320 C.3   267  GLU267      0.0388
    105  CG        26.4520   47.4930   13.2160 C.3   267  GLU267      0.1160
    106  CD        25.9750   47.6890   14.6510 C.2   267  GLU267      0.3649
    107  OE1       25.0980   48.5640   14.8770 O.co2 267  GLU267     -0.2457
    108  OE2       26.4780   46.9650   15.5450 O.co2 267  GLU267     -0.2457
    109  N         25.2280   40.2570   13.7940 N.3   315  HIS315     -0.1241
    110  CA        24.5100   41.4000   14.3290 C.3   315  HIS315      0.1621
    111  C         23.0700   40.9190   14.5070 C.2   315  HIS315      0.2264
    112  O         22.4020   40.5990   13.5420 O.2   315  HIS315     -0.2867
    113  CB        24.5730   42.5380   13.3250 C.3   315  HIS315      0.0745
    114  CG        23.9910   43.8270   13.8090 C.ar  315  HIS315      0.0817
    115  ND1       23.3410   44.6930   12.9610 N.ar  315  HIS315     -0.2268
    116  CD2       24.0270   44.4380   15.0170 C.ar  315  HIS315      0.1154
    117  CE1       22.9540   45.7600   13.6330 C.ar  315  HIS315      0.1986
    118  NE2       23.3610   45.6350   14.8840 N.ar  315  HIS315     -0.2212
    119  N         19.6990   41.7080   16.9550 N.3   317  PHE317     -0.1241
    120  CA        18.9750   42.4540   17.9830 C.3   317  PHE317      0.1605
    121  C         17.5150   42.7060   17.5960 C.2   317  PHE317      0.2264
    122  O         16.9530   43.7560   17.8740 O.2   317  PHE317     -0.2867
    123  CB        19.7160   43.7600   18.3420 C.3   317  PHE317      0.0534
    124  CG        19.5360   44.9000   17.3640 C.ar  317  PHE317     -0.0203
    125  CD1       18.8810   46.0760   17.7630 C.ar  317  PHE317     -0.0042
    126  CD2       20.0730   44.8490   16.0910 C.ar  317  PHE317     -0.0042
    127  CE1       18.7290   47.1490   16.8760 C.ar  317  PHE317     -0.0003
    128  CE2       19.9060   45.9210   15.1980 C.ar  317  PHE317     -0.0003
    129  CZ        19.2460   47.0590   15.5900 C.ar  317  PHE317     -0.0000
    130  N         25.5850   37.5790   19.2290 N.3   338  GLU338     -0.1245
    131  CA        24.7810   38.5810   19.9070 C.3   338  GLU338      0.1567
    132  C         23.3570   38.0860   20.0360 C.2   338  GLU338      0.2260
    133  O         22.8120   37.4860   19.1140 O.2   338  GLU338     -0.2867
    134  CB        24.7660   39.8450   19.0670 C.3   338  GLU338      0.0388
    135  CG        23.9530   40.9560   19.6870 C.3   338  GLU338      0.1160
    136  CD        24.0000   42.2640   18.9320 C.2   338  GLU338      0.3649
    137  OE1       24.2440   42.2610   17.7100 O.co2 338  GLU338     -0.2457
    138  OE2       23.7580   43.2990   19.5770 O.co2 338  GLU338     -0.2457
    139  N         15.1570   54.2980   15.1110 N.3   389  LEU389     -0.1245
    140  CA        15.8410   55.5940   15.0660 C.3   389  LEU389      0.1561
    141  C         14.9480   56.7200   14.5890 C.2   389  LEU389      0.2260
    142  O         15.2550   57.8840   14.8340 O.2   389  LEU389     -0.2867
    143  CB        17.0610   55.5530   14.1400 C.3   389  LEU389      0.0270
    144  CG        18.1220   54.5000   14.4070 C.3   389  LEU389      0.0019
    145  CD1       19.3220   54.7630   13.4740 C.3   389  LEU389      0.0001
    146  CD2       18.5610   54.4680   15.8580 C.3   389  LEU389      0.0001
@<TRIPOS>BOND
     1     4     3    2
     2   103   102    2
     3   102   101    1
     4     3     2    1
     5   100   101    1
     6   101   104    1
     7     1     2    1
     8     2     5    1
     9     8    10   ar
    10     8     6   ar
    11     5     6    1
    12    10    11   ar
    13     6     7   ar
    14   104   105    1
    15   115   117   ar
    16   115   114   ar
    17   105   106    1
    18   113   114    1
    19   113   110    1
    20   145   144    1
    21   112   111    2
    22   117   118   ar
    23   109   110    1
    24   114   116   ar
    25    11     9   ar
    26     7     9   ar
    27   143   144    1
    28   143   140    1
    29   110   111    1
    30   144   146    1
    31    72    70   ar
    32    72    74   ar
    33   141   142    2
    34   141   140    1
    35   106   107   ar
    36   106   108   ar
    37    70    69   ar
    38   118   116   ar
    39   140   139    1
    40   128   129   ar
    41   128   126   ar
    42    74    73   ar
    43   129   127   ar
    44    65    66    1
    45    65    68    1
    46    65    64    1
    47    69    68    1
    48    69    71   ar
    49   126   124   ar
    50    66    67    2
    51    73    71   ar
    52    86    85    2
    53   127   125   ar
    54   119   120    1
    55    85    84    1
    56   124   125   ar
    57   124   123    1
    58   121   122    2
    59   121   120    1
    60    98    97   ar
    61   137   136   ar
    62    84    87    1
    63    84    83    1
    64    90    88   am
    65   120   123    1
    66    87    88    1
    67    96    97    1
    68    96    95    1
    69    97    99   ar
    70    88    89    2
    71    93    92    1
    72    93    94    2
    73   136   138   ar
    74   136   135    1
    75   134   135    1
    76   134   131    1
    77   133   132    2
    78    56    55    2
    79   130   131    1
    80    92    95    1
    81    92    91    1
    82    63    61    1
    83    62    61    1
    84    81    80   ar
    85    82    80   ar
    86    61    60    2
    87   131   132    1
    88    80    79    1
    89    55    54    1
    90    44    43    1
    91    20    21   ar
    92    20    18   ar
    93    60    59    1
    94    21    19   ar
    95    57    54    1
    96    57    58    1
    97    54    53    1
    98    35    33   ar
    99    35    34   ar
   100    33    31   ar
   101    43    42    1
   102    79    76    1
   103    59    58    1
   104    18    17   ar
   105    77    76    1
   106    77    78    2
   107    76    75    1
   108    19    17   ar
   109    34    32   ar
   110    42    41    1
   111    52    50   am
   112    31    30   ar
   113    31    29   ar
   114    17    16    1
   115    30    28   ar
   116    32    29   ar
   117    50    51    2
   118    50    49    1
   119    29    27   ar
   120    41    40    1
   121    16    13    1
   122    28    27   ar
   123    12    13    1
   124    49    46    1
   125    40    37    1
   126    27    26    1
   127    13    14    1
   128    46    47    1
   129    46    45    1
   130    37    38    1
   131    37    36    1
   132    47    48    2
   133    39    38    2
   134    26    23    1
   135    14    15    2
   136    23    22    1
   137    23    24    1
   138    25    24    2
