@<TRIPOS>MOLECULE
tmp/3sn4A00.pdb
 153 145 0 0 0
SMALL
GASTEIGER

@<TRIPOS>ATOM
      1  N         15.9640   50.7150   12.0320 N.3    40  PHE40      -0.1241
      2  CA        17.3940   51.0200   12.1800 C.3    40  PHE40       0.1605
      3  C         17.9050   51.7840   10.9660 C.2    40  PHE40       0.2264
      4  O         18.6700   51.2660   10.1360 O.2    40  PHE40      -0.2867
      5  CB        18.2050   49.7590   12.4280 C.3    40  PHE40       0.0534
      6  CG        19.6050   50.0220   12.9640 C.ar   40  PHE40      -0.0203
      7  CD1       19.8060   50.9190   14.0140 C.ar   40  PHE40      -0.0042
      8  CD2       20.7020   49.3590   12.4420 C.ar   40  PHE40      -0.0042
      9  CE1       21.0820   51.1540   14.5060 C.ar   40  PHE40      -0.0003
     10  CE2       21.9880   49.5870   12.9460 C.ar   40  PHE40      -0.0003
     11  CZ        22.1660   50.4960   13.9660 C.ar   40  PHE40      -0.0000
     12  N         22.5060   44.7550   24.7540 N.3   123  HIS123     -0.1241
     13  CA        21.6770   45.8550   25.2640 C.3   123  HIS123      0.1621
     14  C         21.3170   45.6430   26.7280 C.2   123  HIS123      0.2264
     15  O         20.1520   45.7240   27.1160 O.2   123  HIS123     -0.2867
     16  CB        20.4130   45.9950   24.4080 C.3   123  HIS123      0.0745
     17  CG        20.7150   46.3310   22.9930 C.ar  123  HIS123      0.0817
     18  ND1       20.7580   45.3830   21.9960 N.ar  123  HIS123     -0.2268
     19  CD2       21.0750   47.5040   22.4200 C.ar  123  HIS123      0.1154
     20  CE1       21.1050   45.9620   20.8610 C.ar  123  HIS123      0.1986
     21  NE2       21.3000   47.2480   21.0910 N.ar  123  HIS123     -0.2212
     22  N         20.8830   48.4000   28.5300 N.3   126  THR126     -0.1203
     23  CA        20.3620   49.3740   27.5770 C.3   126  THR126      0.1994
     24  C         18.8420   49.3230   27.3460 C.2   126  THR126      0.2617
     25  O         18.1820   50.3600   27.3800 O.2   126  THR126     -0.2717
     26  CB        21.1030   49.2490   26.2340 C.3   126  THR126      0.1784
     27  OG1       22.5190   49.1830   26.5020 O.3   126  THR126     -0.2211
     28  CG2       20.7470   50.4360   25.3080 C.3   126  THR126      0.0376
     29  N         18.2960   48.1320   27.1230 N.am  127  TRP127     -0.1975
     30  CA        16.8650   47.9900   26.8620 C.3   127  TRP127      0.1640
     31  C         16.0260   48.3940   28.1010 C.2   127  TRP127      0.2290
     32  O         14.9730   49.0510   27.9800 O.2   127  TRP127     -0.2864
     33  CB        16.5470   46.5430   26.4550 C.3   127  TRP127      0.0576
     34  CG        16.6310   46.1670   24.9440 C.ar  127  TRP127      0.0006
     35  CD1       16.2630   44.9470   24.3990 C.ar  127  TRP127      0.0946
     36  CD2       17.0590   46.9760   23.8330 C.ar  127  TRP127      0.0152
     37  NE1       16.4440   44.9520   23.0450 N.ar  127  TRP127     -0.2442
     38  CE2       16.9410   46.1700   22.6650 C.ar  127  TRP127      0.0810
     39  CE3       17.5510   48.2830   23.7050 C.ar  127  TRP127      0.0012
     40  CZ2       17.2890   46.6300   21.3890 C.ar  127  TRP127      0.0191
     41  CZ3       17.8960   48.7420   22.4350 C.ar  127  TRP127      0.0001
     42  CH2       17.7740   47.9110   21.2930 C.ar  127  TRP127      0.0015
     43  N         26.6720   43.2660   26.9860 N.3   161  LYS161     -0.1245
     44  CA        27.0500   44.4780   26.2350 C.3   161  LYS161      0.1561
     45  C         26.1800   45.6640   26.6060 C.2   161  LYS161      0.2260
     46  O         24.9470   45.5740   26.5550 O.2   161  LYS161     -0.2867
     47  CB        26.9810   44.2600   24.7220 C.3   161  LYS161      0.0271
     48  CG        27.6900   45.3670   23.9410 C.3   161  LYS161      0.0035
     49  CD        27.9190   45.0490   22.4640 C.3   161  LYS161      0.0206
     50  CE        26.6550   45.3080   21.6160 C.3   161  LYS161      0.1093
     51  NZ        26.7650   44.7270   20.2390 N.3   161  LYS161     -0.1314
     52  N         25.8870   50.2710   26.4400 N.3   163  ASN163     -0.1240
     53  CA        26.0970   51.4330   25.5680 C.3   163  ASN163      0.1653
     54  C         26.5040   52.6440   26.4220 C.2   163  ASN163      0.2266
     55  O         27.1500   52.4500   27.4310 O.2   163  ASN163     -0.2867
     56  CB        24.8520   51.6910   24.7250 C.3   163  ASN163      0.1155
     57  CG        24.4550   50.4890   23.9230 C.2   163  ASN163      0.2627
     58  OD1       23.8410   49.5510   24.4530 O.2   163  ASN163     -0.2716
     59  ND2       24.7810   50.5000   22.6290 N.am  163  ASN163     -0.0877
     60  N         23.2090   59.3110   22.5700 N.3   176  ARG176     -0.1245
     61  CA        23.1750   58.7390   21.2060 C.3   176  ARG176      0.1563
     62  C         23.2300   59.8210   20.1250 C.2   176  ARG176      0.2260
     63  O         22.4110   59.8190   19.2050 O.2   176  ARG176     -0.2867
     64  CB        21.9130   57.8950   21.0300 C.3   176  ARG176      0.0307
     65  CG        21.9440   56.5980   21.8190 C.3   176  ARG176      0.0489
     66  CD        20.5550   56.0580   22.1200 C.3   176  ARG176      0.2205
     67  NE        19.7390   55.8330   20.9270 N.pl3 176  ARG176     -0.0865
     68  CZ        19.9100   54.8300   20.0600 C.cat 176  ARG176      0.5346
     69  NH1       19.0750   54.7230   19.0220 N.pl3 176  ARG176      0.1354
     70  NH2       20.9080   53.9270   20.2090 N.pl3 176  ARG176      0.1354
     71  N         22.9060   59.3020   16.3820 N.3   179  PHE179     -0.1241
     72  CA        21.5490   59.1080   15.8900 C.3   179  PHE179      0.1605
     73  C         20.6330   60.3050   16.2460 C.2   179  PHE179      0.2264
     74  O         19.3850   60.1970   16.2900 O.2   179  PHE179     -0.2867
     75  CB        20.9990   57.7760   16.4510 C.3   179  PHE179      0.0534
     76  CG        21.7980   56.5400   16.0780 C.ar  179  PHE179     -0.0203
     77  CD1       22.4090   56.4140   14.8280 C.ar  179  PHE179     -0.0042
     78  CD2       21.8590   55.4420   16.9590 C.ar  179  PHE179     -0.0042
     79  CE1       23.1100   55.2560   14.4680 C.ar  179  PHE179     -0.0003
     80  CE2       22.5470   54.2760   16.6140 C.ar  179  PHE179     -0.0003
     81  CZ        23.1920   54.1820   15.3560 C.ar  179  PHE179     -0.0000
     82  N         29.5710   49.1270   23.4220 N.3   217  ASP217     -0.1239
     83  CA        29.2260   49.6050   22.0790 C.3   217  ASP217      0.1674
     84  C         29.0910   51.1110   22.1090 C.2   217  ASP217      0.2266
     85  O         28.2840   51.6610   22.8700 O.2   217  ASP217     -0.2867
     86  CB        27.9460   48.9400   21.5880 C.3   217  ASP217      0.1410
     87  CG        27.7160   49.0870   20.0830 C.2   217  ASP217      0.3668
     88  OD1       28.3380   49.9440   19.4010 O.co2 217  ASP217     -0.2456
     89  OD2       26.8570   48.3320   19.5760 O.co2 217  ASP217     -0.2456
     90  N         28.7800   52.6870   19.0120 N.3   219  ASN219     -0.1240
     91  CA        27.9950   52.9190   17.7810 C.3   219  ASN219      0.1653
     92  C         28.6710   54.0230   16.9400 C.2   219  ASN219      0.2266
     93  O         29.8940   53.9840   16.7850 O.2   219  ASN219     -0.2867
     94  CB        26.5330   53.2370   18.1010 C.3   219  ASN219      0.1155
     95  CG        25.8220   52.1140   18.8150 C.2   219  ASN219      0.2627
     96  OD1       25.6880   52.1350   20.0350 O.2   219  ASN219     -0.2716
     97  ND2       25.3520   51.1300   18.0560 N.am  219  ASN219     -0.0877
     98  N         33.1100   48.4750   20.5380 N.3   243  GLU243     -0.1245
     99  CA        32.4720   48.4460   19.2510 C.3   243  GLU243      0.1567
    100  C         32.3030   49.8660   18.7780 C.2   243  GLU243      0.2260
    101  O         31.7840   50.7250   19.5040 O.2   243  GLU243     -0.2867
    102  CB        31.1300   47.7560   19.4020 C.3   243  GLU243      0.0388
    103  CG        30.4200   47.3180   18.1260 C.3   243  GLU243      0.1160
    104  CD        29.2450   46.3810   18.4550 C.2   243  GLU243      0.3649
    105  OE1       28.2720   46.3780   17.7020 O.co2 243  GLU243     -0.2457
    106  OE2       29.2860   45.6620   19.4780 O.co2 243  GLU243     -0.2457
    107  N         29.0510   46.3760   11.4380 N.3   267  GLU267     -0.1245
    108  CA        27.6770   45.8570   11.4650 C.3   267  GLU267      0.1567
    109  C         26.7810   46.4570   10.3960 C.2   267  GLU267      0.2260
    110  O         25.7210   45.9000   10.0670 O.2   267  GLU267     -0.2867
    111  CB        27.0270   46.0420   12.8530 C.3   267  GLU267      0.0388
    112  CG        26.5150   47.4490   13.1560 C.3   267  GLU267      0.1160
    113  CD        26.0660   47.6550   14.6040 C.2   267  GLU267      0.3649
    114  OE1       25.2440   48.5770   14.8260 O.co2 267  GLU267     -0.2457
    115  OE2       26.5230   46.9230   15.5200 O.co2 267  GLU267     -0.2457
    116  N         25.3280   40.2600   13.8170 N.3   315  HIS315     -0.1241
    117  CA        24.5340   41.3440   14.3660 C.3   315  HIS315      0.1621
    118  C         23.1170   40.8430   14.5490 C.2   315  HIS315      0.2264
    119  O         22.4460   40.5060   13.5740 O.2   315  HIS315     -0.2867
    120  CB        24.5360   42.4930   13.3740 C.3   315  HIS315      0.0745
    121  CG        24.0500   43.7780   13.9360 C.ar  315  HIS315      0.0817
    122  ND1       23.5510   44.7850   13.1390 N.ar  315  HIS315     -0.2268
    123  CD2       23.9560   44.2160   15.2160 C.ar  315  HIS315      0.1154
    124  CE1       23.2070   45.8080   13.9040 C.ar  315  HIS315      0.1986
    125  NE2       23.4310   45.4830   15.1690 N.ar  315  HIS315     -0.2212
    126  N         19.8040   41.8130   16.9120 N.3   317  PHE317     -0.1241
    127  CA        19.0820   42.5710   17.9270 C.3   317  PHE317      0.1605
    128  C         17.6160   42.8130   17.5670 C.2   317  PHE317      0.2264
    129  O         17.0330   43.8710   17.8970 O.2   317  PHE317     -0.2867
    130  CB        19.8090   43.8890   18.2730 C.3   317  PHE317      0.0534
    131  CG        19.6420   44.9980   17.2490 C.ar  317  PHE317     -0.0203
    132  CD1       18.9730   46.1710   17.5850 C.ar  317  PHE317     -0.0042
    133  CD2       20.1810   44.8900   15.9740 C.ar  317  PHE317     -0.0042
    134  CE1       18.8090   47.2050   16.6420 C.ar  317  PHE317     -0.0003
    135  CE2       20.0210   45.9300   15.0360 C.ar  317  PHE317     -0.0003
    136  CZ        19.3410   47.0810   15.3810 C.ar  317  PHE317     -0.0000
    137  N         25.5980   37.5420   19.2710 N.3   338  GLU338     -0.1245
    138  CA        24.8120   38.5540   19.9710 C.3   338  GLU338      0.1567
    139  C         23.4000   38.0450   20.1510 C.2   338  GLU338      0.2260
    140  O         22.8170   37.4480   19.2560 O.2   338  GLU338     -0.2867
    141  CB        24.7360   39.8300   19.1530 C.3   338  GLU338      0.0388
    142  CG        23.9400   40.9500   19.8070 C.3   338  GLU338      0.1160
    143  CD        23.9910   42.2600   19.0420 C.2   338  GLU338      0.3649
    144  OE1       24.2600   42.2440   17.8130 O.co2 338  GLU338     -0.2457
    145  OE2       23.7750   43.3140   19.6930 O.co2 338  GLU338     -0.2457
    146  N         15.1770   54.3930   15.1140 N.3   389  LEU389     -0.1245
    147  CA        15.8830   55.6890   14.9910 C.3   389  LEU389      0.1561
    148  C         14.9620   56.8000   14.5290 C.2   389  LEU389      0.2260
    149  O         15.2090   57.9750   14.8200 O.2   389  LEU389     -0.2867
    150  CB        17.0580   55.5950   13.9960 C.3   389  LEU389      0.0270
    151  CG        18.0790   54.5130   14.2740 C.3   389  LEU389      0.0019
    152  CD1       19.2860   54.7140   13.3530 C.3   389  LEU389      0.0001
    153  CD2       18.4670   54.4560   15.7850 C.3   389  LEU389      0.0001
@<TRIPOS>BOND
     1   110   109    2
     2     4     3    2
     3   109   108    1
     4     3     2    1
     5   107   108    1
     6   108   111    1
     7     1     2    1
     8     2     5    1
     9     5     6    1
    10     8    10   ar
    11     8     6   ar
    12   111   112    1
    13    10    11   ar
    14     6     7   ar
    15   122   124   ar
    16   122   121   ar
    17   112   113    1
    18   152   151    1
    19   120   121    1
    20   120   117    1
    21   119   118    2
    22   116   117    1
    23   124   125   ar
    24   121   123   ar
    25    11     9   ar
    26   150   151    1
    27   150   147    1
    28     7     9   ar
    29   151   153    1
    30   117   118    1
    31    79    77   ar
    32    79    81   ar
    33   148   149    2
    34   148   147    1
    35   113   114   ar
    36   113   115   ar
    37    77    76   ar
    38   147   146    1
    39   135   136   ar
    40   135   133   ar
    41   125   123   ar
    42    81    80   ar
    43   136   134   ar
    44    72    73    1
    45    72    71    1
    46    72    75    1
    47   133   131   ar
    48    76    75    1
    49    76    78   ar
    50    73    74    2
    51    80    78   ar
    52   134   132   ar
    53    93    92    2
    54   126   127    1
    55    92    91    1
    56   131   132   ar
    57   131   130    1
    58   128   129    2
    59   128   127    1
    60   105   104   ar
    61    91    94    1
    62    91    90    1
    63   144   143   ar
    64   127   130    1
    65    97    95   am
    66    94    95    1
    67   103   104    1
    68   103   102    1
    69   104   106   ar
    70   100    99    1
    71   100   101    2
    72    95    96    2
    73    69    68    1
    74   143   145   ar
    75   143   142    1
    76   141   142    1
    77   141   138    1
    78    63    62    2
    79    99   102    1
    80    99    98    1
    81   140   139    2
    82   137   138    1
    83    88    87   ar
    84    89    87   ar
    85   138   139    1
    86    68    70    1
    87    68    67    2
    88    87    86    1
    89    62    61    1
    90    51    50    1
    91    20    21   ar
    92    20    18   ar
    93    67    66    1
    94    64    61    1
    95    64    65    1
    96    21    19   ar
    97    61    60    1
    98    42    40   ar
    99    42    41   ar
   100    40    38   ar
   101    86    83    1
   102    50    49    1
   103    65    66    1
   104    18    17   ar
   105    83    84    1
   106    83    82    1
   107    84    85    2
   108    19    17   ar
   109    41    39   ar
   110    49    48    1
   111    59    57   am
   112    38    37   ar
   113    38    36   ar
   114    17    16    1
   115    37    35   ar
   116    39    36   ar
   117    36    34   ar
   118    57    58    2
   119    57    56    1
   120    48    47    1
   121    35    34   ar
   122    16    13    1
   123    47    44    1
   124    56    53    1
   125    12    13    1
   126    34    33    1
   127    13    14    1
   128    28    26    1
   129    53    54    1
   130    53    52    1
   131    26    27    1
   132    26    23    1
   133    44    45    1
   134    44    43    1
   135    54    55    2
   136    33    30    1
   137    46    45    2
   138    14    15    2
   139    30    29    1
   140    30    31    1
   141    29    24   am
   142    24    25    2
   143    24    23    1
   144    23    22    1
   145    32    31    2
