@<TRIPOS>MOLECULE
tmp/3sn7B00.pdb
 134 128 0 0 0
SMALL
GASTEIGER

@<TRIPOS>ATOM
      1  N         17.9220  -47.7400  -16.1140 N.3    78  TYR78      -0.1227
      2  CA        17.0010  -46.6890  -15.6740 C.3    78  TYR78       0.1736
      3  C         15.5170  -47.0630  -15.6810 C.2    78  TYR78       0.2595
      4  O         14.8750  -46.8920  -14.6500 O.2    78  TYR78      -0.2718
      5  CB        17.2450  -45.3680  -16.4360 C.3    78  TYR78       0.0548
      6  CG        16.2960  -44.2580  -16.0340 C.ar   78  TYR78      -0.0200
      7  CD1       16.3690  -43.6720  -14.7680 C.ar   78  TYR78      -0.0009
      8  CD2       15.3020  -43.8130  -16.9040 C.ar   78  TYR78      -0.0009
      9  CE1       15.4830  -42.6650  -14.3840 C.ar   78  TYR78       0.0417
     10  CE2       14.4000  -42.8180  -16.5220 C.ar   78  TYR78       0.0417
     11  CZ        14.5020  -42.2430  -15.2620 C.ar   78  TYR78       0.1957
     12  OH        13.6510  -41.2280  -14.8920 O.3    78  TYR78      -0.2866
     13  N         14.9580  -47.5170  -16.8290 N.am   79  HIS79      -0.1975
     14  CA        13.5380  -47.8750  -16.9240 C.3    79  HIS79       0.1656
     15  C         13.1800  -49.2100  -16.2410 C.2    79  HIS79       0.2291
     16  O         12.5650  -50.1030  -16.8320 O.2    79  HIS79      -0.2864
     17  CB        13.0680  -47.8060  -18.3710 C.3    79  HIS79       0.0771
     18  CG        13.0230  -46.4120  -18.9110 C.ar   79  HIS79       0.0820
     19  ND1       13.9150  -45.9800  -19.8730 N.ar   79  HIS79      -0.2267
     20  CD2       12.2270  -45.3780  -18.5570 C.ar   79  HIS79       0.1154
     21  CE1       13.5910  -44.7240  -20.1300 C.ar   79  HIS79       0.1986
     22  NE2       12.5920  -44.3090  -19.3460 N.ar   79  HIS79      -0.2212
     23  N          2.5180  -40.8250  -20.7150 N.3   174  THR174     -0.1218
     24  CA         3.9570  -40.9240  -20.3920 C.3   174  THR174      0.1862
     25  C          4.8640  -40.8950  -21.6210 C.2   174  THR174      0.2287
     26  O          6.0960  -40.8990  -21.4760 O.2   174  THR174     -0.2866
     27  CB         4.2700  -42.0760  -19.4210 C.3   174  THR174      0.1770
     28  OG1        4.1230  -43.3430  -20.0770 O.3   174  THR174     -0.2211
     29  CG2        3.4240  -42.0220  -18.1550 C.3   174  THR174      0.0375
     30  N          6.5720  -38.8940  -24.0400 N.3   176  LEU176     -0.1245
     31  CA         7.0430  -37.5050  -23.9950 C.3   176  LEU176      0.1561
     32  C          6.6730  -36.6920  -25.2180 C.2   176  LEU176      0.2260
     33  O          6.3970  -35.4980  -25.0740 O.2   176  LEU176     -0.2867
     34  CB         8.5490  -37.4180  -23.6540 C.3   176  LEU176      0.0270
     35  CG         9.0770  -36.0990  -23.0320 C.3   176  LEU176      0.0019
     36  CD1        8.4380  -35.8080  -21.6650 C.3   176  LEU176      0.0001
     37  CD2       10.5740  -36.1530  -22.8700 C.3   176  LEU176      0.0001
     38  N          6.7550  -38.7630  -14.0850 N.3   215  ASP215     -0.1225
     39  CA         7.7390  -39.4800  -14.9090 C.3   215  ASP215      0.1805
     40  C          9.1370  -38.8530  -14.8460 C.2   215  ASP215      0.2597
     41  O         10.1290  -39.5680  -14.7700 O.2   215  ASP215     -0.2718
     42  CB         7.2500  -39.6050  -16.3650 C.3   215  ASP215      0.1424
     43  CG         7.9230  -40.7570  -17.1020 C.2   215  ASP215      0.3668
     44  OD1        8.5080  -41.6380  -16.4310 O.co2 215  ASP215     -0.2456
     45  OD2        7.9020  -40.7570  -18.3260 O.co2 215  ASP215     -0.2456
     46  N          9.2000  -37.5140  -14.7940 N.am  216  LEU216     -0.1979
     47  CA        10.4620  -36.7630  -14.7710 C.3   216  LEU216      0.1596
     48  C         10.9420  -36.3940  -13.3870 C.2   216  LEU216      0.2287
     49  O         11.9200  -35.6480  -13.2950 O.2   216  LEU216     -0.2864
     50  CB        10.2840  -35.4430  -15.5620 C.3   216  LEU216      0.0297
     51  CG         9.8800  -35.5060  -17.0390 C.3   216  LEU216      0.0022
     52  CD1        9.8460  -34.1130  -17.6170 C.3   216  LEU216      0.0001
     53  CD2       10.8430  -36.3740  -17.8510 C.3   216  LEU216      0.0001
     54  N         12.7960  -37.3030  -11.0820 N.3   218  SER218     -0.1202
     55  CA        14.2070  -37.4320  -10.7020 C.3   218  SER218      0.2020
     56  C         14.9460  -36.0920  -10.8430 C.2   218  SER218      0.2618
     57  O         16.0430  -35.9570  -10.3160 O.2   218  SER218     -0.2717
     58  CB        14.8850  -38.5100  -11.5290 C.3   218  SER218      0.2103
     59  OG        14.5060  -39.7720  -11.0010 O.3   218  SER218     -0.2182
     60  N         14.3340  -35.0990  -11.5260 N.am  219  VAL219     -0.1979
     61  CA        14.9130  -33.7480  -11.6350 C.3   219  VAL219      0.1595
     62  C         14.4850  -32.8590  -10.4280 C.2   219  VAL219      0.2287
     63  O         14.9180  -31.7040  -10.3260 O.2   219  VAL219     -0.2864
     64  CB        14.6060  -33.0730  -13.0010 C.3   219  VAL219      0.0276
     65  CG1       15.0010  -33.9900  -14.1550 C.3   219  VAL219      0.0022
     66  CG2       13.1390  -32.6350  -13.1070 C.3   219  VAL219      0.0022
     67  N         20.9500  -39.0860  -12.9680 N.3   230  ALA230     -0.1245
     68  CA        21.3640  -38.6470  -14.3130 C.3   230  ALA230      0.1562
     69  C         22.3480  -39.6750  -14.9630 C.2   230  ALA230      0.2260
     70  O         22.1860  -40.0130  -16.1270 O.2   230  ALA230     -0.2867
     71  CB        21.9790  -37.2560  -14.2520 C.3   230  ALA230      0.0290
     72  N         20.3030  -42.7110  -16.1900 N.3   233  ILE233     -0.1231
     73  CA        19.6100  -42.3200  -17.4240 C.3   233  ILE233      0.1692
     74  C         20.5960  -42.4300  -18.6010 C.2   233  ILE233      0.2592
     75  O         20.2790  -43.0690  -19.6110 O.2   233  ILE233     -0.2718
     76  CB        19.0050  -40.8870  -17.2990 C.3   233  ILE233      0.0266
     77  CG1       17.8740  -40.8530  -16.2460 C.3   233  ILE233      0.0019
     78  CG2       18.5030  -40.3730  -18.6610 C.3   233  ILE233      0.0020
     79  CD1       17.5560  -39.4810  -15.6500 C.3   233  ILE233      0.0001
     80  N         21.7920  -41.8300  -18.4500 N.am  234  TYR234     -0.1976
     81  CA        22.8240  -41.8800  -19.4830 C.3   234  TYR234      0.1639
     82  C         23.3950  -43.2790  -19.6980 C.2   234  TYR234      0.2290
     83  O         23.6570  -43.6390  -20.8530 O.2   234  TYR234     -0.2864
     84  CB        23.9010  -40.8060  -19.2680 C.3   234  TYR234      0.0560
     85  CG        23.4140  -39.4410  -19.7070 C.ar  234  TYR234     -0.0198
     86  CD1       22.7980  -38.5780  -18.8080 C.ar  234  TYR234     -0.0009
     87  CD2       23.4700  -39.0550  -21.0460 C.ar  234  TYR234     -0.0009
     88  CE1       22.3180  -37.3330  -19.2120 C.ar  234  TYR234      0.0417
     89  CE2       23.0100  -37.8070  -21.4580 C.ar  234  TYR234      0.0417
     90  CZ        22.4380  -36.9490  -20.5380 C.ar  234  TYR234      0.1957
     91  OH        21.9350  -35.7390  -20.9410 O.3   234  TYR234     -0.2866
     92  N         21.1920  -44.6990  -22.1440 N.3   237  PHE237     -0.1241
     93  CA        21.3790  -44.0750  -23.4590 C.3   237  PHE237      0.1605
     94  C         22.6310  -44.6420  -24.1500 C.2   237  PHE237      0.2264
     95  O         22.5700  -45.0210  -25.3220 O.2   237  PHE237     -0.2867
     96  CB        21.4930  -42.5380  -23.3220 C.3   237  PHE237      0.0534
     97  CG        20.2580  -41.7460  -22.9250 C.ar  237  PHE237     -0.0203
     98  CD1       18.9910  -42.3170  -22.9870 C.ar  237  PHE237     -0.0042
     99  CD2       20.3590  -40.4030  -22.5720 C.ar  237  PHE237     -0.0042
    100  CE1       17.8520  -41.5640  -22.6810 C.ar  237  PHE237     -0.0003
    101  CE2       19.2250  -39.6600  -22.2460 C.ar  237  PHE237     -0.0003
    102  CZ        17.9770  -40.2430  -22.3170 C.ar  237  PHE237     -0.0000
    103  N         24.1670  -37.8590  -27.3630 N.3   254  MET254     -0.1245
    104  CA        23.4130  -38.1530  -26.1330 C.3   254  MET254      0.1570
    105  C         23.4950  -39.6610  -25.7890 C.2   254  MET254      0.2261
    106  O         23.4500  -40.0430  -24.6120 O.2   254  MET254     -0.2867
    107  CB        21.9410  -37.7390  -26.3440 C.3   254  MET254      0.0387
    108  CG        21.0940  -37.7340  -25.0800 C.3   254  MET254      0.0595
    109  SD        19.3360  -37.5580  -25.4520 S.3   254  MET254     -0.1393
    110  CE        18.9170  -39.2210  -25.9210 C.3   254  MET254      0.0692
    111  N         23.7740  -31.0590  -21.8270 N.3   266  GLY266     -0.1210
    112  CA        22.6000  -31.8340  -22.2090 C.3   266  GLY266      0.1956
    113  C         21.4930  -31.6660  -21.1800 C.2   266  GLY266      0.2611
    114  O         20.3480  -31.3730  -21.5340 O.2   266  GLY266     -0.2717
    115  N         21.8500  -31.7780  -19.8890 N.am  267  GLN267     -0.1979
    116  CA        20.9150  -31.6400  -18.7820 C.3   267  GLN267      0.1601
    117  C         20.3180  -30.2320  -18.6940 C.2   267  GLN267      0.2287
    118  O         19.0940  -30.1020  -18.5970 O.2   267  GLN267     -0.2864
    119  CB        21.5520  -32.1090  -17.4600 C.3   267  GLN267      0.0394
    120  CG        21.6960  -33.6470  -17.3750 C.3   267  GLN267      0.0908
    121  CD        20.3470  -34.3340  -17.4050 C.2   267  GLN267      0.2608
    122  OE1       19.5250  -34.1880  -16.4870 O.2   267  GLN267     -0.2717
    123  NE2       20.0270  -34.9790  -18.5190 N.am  267  GLN267     -0.0878
    124  N         17.6710  -29.8290  -21.3640 N.3   270  PHE270     -0.1241
    125  CA        16.5060  -30.6520  -21.0530 C.3   270  PHE270      0.1605
    126  C         15.6320  -29.9730  -20.0010 C.2   270  PHE270      0.2264
    127  O         14.4010  -29.9860  -20.1150 O.2   270  PHE270     -0.2867
    128  CB        16.9330  -32.0710  -20.6120 C.3   270  PHE270      0.0534
    129  CG        15.7590  -32.9580  -20.2930 C.ar  270  PHE270     -0.0203
    130  CD1       15.0140  -33.5410  -21.3130 C.ar  270  PHE270     -0.0042
    131  CD2       15.3330  -33.1290  -18.9770 C.ar  270  PHE270     -0.0042
    132  CE1       13.9020  -34.3160  -21.0240 C.ar  270  PHE270     -0.0003
    133  CE2       14.2190  -33.9100  -18.6880 C.ar  270  PHE270     -0.0003
    134  CZ        13.5080  -34.4960  -19.7120 C.ar  270  PHE270     -0.0000
@<TRIPOS>BOND
     1   103   104    1
     2   107   104    1
     3   107   108    1
     4   104   105    1
     5   110   109    1
     6   105   106    2
     7   109   108    1
     8    95    94    2
     9    32    33    2
    10    32    31    1
    11    94    93    1
    12    30    31    1
    13    31    34    1
    14    34    35    1
    15    93    96    1
    16    93    92    1
    17    96    97    1
    18    35    37    1
    19    35    36    1
    20    98    97   ar
    21    98   100   ar
    22    97    99   ar
    23   100   102   ar
    24    99   101   ar
    25   102   101   ar
    26   112   111    1
    27   112   113    1
    28    25    26    2
    29    25    24    1
    30   114   113    2
    31    89    87   ar
    32    89    90   ar
    33   124   125    1
    34   130   132   ar
    35   130   129   ar
    36   113   115   am
    37   125   128    1
    38   125   126    1
    39    87    85   ar
    40   132   134   ar
    41    91    90    1
    42    83    82    2
    43    23    24    1
    44   128   129    1
    45    90    88   ar
    46    24    27    1
    47   129   131   ar
    48    21    19   ar
    49    21    22   ar
    50   127   126    2
    51    28    27    1
    52   115   116    1
    53    19    18   ar
    54   134   133   ar
    55    85    84    1
    56    85    86   ar
    57    82    81    1
    58    75    74    2
    59    81    84    1
    60    81    80    1
    61    27    29    1
    62    22    20   ar
    63    88    86   ar
    64   131   133   ar
    65    18    20   ar
    66    18    17    1
    67   116   117    1
    68   116   119    1
    69   117   118    2
    70    78    76    1
    71    74    80   am
    72    74    73    1
    73   123   121   am
    74    17    14    1
    75    45    43   ar
    76    53    51    1
    77    52    51    1
    78   119   120    1
    79    73    76    1
    80    73    72    1
    81   121   120    1
    82   121   122    2
    83    76    77    1
    84    43    44   ar
    85    43    42    1
    86    51    50    1
    87    14    13    1
    88    14    15    1
    89     8    10   ar
    90     8     6   ar
    91    16    15    2
    92    13     3   am
    93    10    11   ar
    94     5     6    1
    95     5     2    1
    96    42    39    1
    97    77    79    1
    98    70    69    2
    99     1     2    1
   100     6     7   ar
   101     3     2    1
   102     3     4    2
   103    50    47    1
   104    11    12    1
   105    11     9   ar
   106    69    68    1
   107    39    40    1
   108    39    38    1
   109    40    46   am
   110    40    41    2
   111    46    47    1
   112    47    48    1
   113     7     9   ar
   114    68    71    1
   115    68    67    1
   116    65    64    1
   117    48    49    2
   118    66    64    1
   119    64    61    1
   120    61    60    1
   121    61    62    1
   122    58    59    1
   123    58    55    1
   124    60    56   am
   125    54    55    1
   126    56    55    1
   127    56    57    2
   128    62    63    2
