@<TRIPOS>MOLECULE
tmp/3sn8A00.pdb
 165 163 0 0 0
SMALL
GASTEIGER

@<TRIPOS>ATOM
      1  N         17.6580  -10.5820   27.3660 N.3    26  THR26      -0.1203
      2  CA        16.3230  -11.1520   27.2800 C.3    26  THR26       0.1994
      3  C         15.3430  -10.1920   26.5670 C.2    26  THR26       0.2617
      4  O         15.3850   -8.9890   26.7950 O.2    26  THR26      -0.2717
      5  CB        15.7940  -11.5610   28.6590 C.3    26  THR26       0.1784
      6  OG1       16.7570  -12.4300   29.2660 O.3    26  THR26      -0.2211
      7  CG2       14.5560  -12.3690   28.4950 C.3    26  THR26       0.0376
      8  N         14.4580  -10.7770   25.7620 N.am   27  LEU27      -0.1979
      9  CA        13.3780  -10.0580   25.0990 C.3    27  LEU27       0.1596
     10  C         12.1830  -10.9890   24.8690 C.2    27  LEU27       0.2287
     11  O         12.1280  -12.0930   25.4100 O.2    27  LEU27      -0.2864
     12  CB        13.8570   -9.4740   23.7690 C.3    27  LEU27       0.0297
     13  CG        14.7600  -10.3720   22.9200 C.3    27  LEU27       0.0022
     14  CD1       13.9340  -11.3970   22.1580 C.3    27  LEU27       0.0001
     15  CD2       15.6010   -9.5380   21.9650 C.3    27  LEU27       0.0001
     16  N         18.4770   -7.9980   16.9650 N.3    41  HIS41      -0.1241
     17  CA        19.3740   -7.3800   17.9290 C.3    41  HIS41       0.1621
     18  C         19.5240   -8.1240   19.2720 C.2    41  HIS41       0.2264
     19  O         20.3470   -7.7400   20.1190 O.2    41  HIS41      -0.2867
     20  CB        19.1160   -5.8760   18.1240 C.3    41  HIS41       0.0745
     21  CG        17.9160   -5.5400   18.9830 C.ar   41  HIS41       0.0817
     22  ND1       16.8640   -4.7620   18.5170 N.ar   41  HIS41      -0.2268
     23  CD2       17.6460   -5.7900   20.2890 C.ar   41  HIS41       0.1154
     24  CE1       15.9750   -4.6000   19.4850 C.ar   41  HIS41       0.1986
     25  NE2       16.4370   -5.1880   20.5810 N.ar   41  HIS41      -0.2212
     26  N         26.4730   -2.8250   19.1630 N.3    49  MET49      -0.1245
     27  CA        25.4500   -1.9300   18.5920 C.3    49  MET49       0.1570
     28  C         25.9990   -0.7250   17.8340 C.2    49  MET49       0.2261
     29  O         25.3570   -0.2440   16.8970 O.2    49  MET49      -0.2867
     30  CB        24.4000   -1.5240   19.6320 C.3    49  MET49       0.0387
     31  CG        23.5070   -2.6820   20.0740 C.3    49  MET49       0.0595
     32  SD        22.7230   -3.5600   18.6950 S.3    49  MET49      -0.1393
     33  CE        21.2000   -2.6430   18.4450 C.3    49  MET49       0.0692
     34  N          6.7000    1.9670   26.5370 N.3   140  PHE140     -0.1227
     35  CA         7.6200    0.8290   26.5370 C.3   140  PHE140      0.1736
     36  C          8.8070    1.1220   27.4820 C.2   140  PHE140      0.2595
     37  O          9.3480    2.2550   27.5390 O.2   140  PHE140     -0.2718
     38  CB         8.2240    0.5560   25.1500 C.3   140  PHE140      0.0547
     39  CG         7.2580   -0.0230   24.0990 C.ar  140  PHE140     -0.0202
     40  CD1        6.8970    0.7190   22.9620 C.ar  140  PHE140     -0.0042
     41  CD2        6.7400   -1.2940   24.2220 C.ar  140  PHE140     -0.0042
     42  CE1        6.0540    0.2010   21.9870 C.ar  140  PHE140     -0.0003
     43  CE2        5.8710   -1.8360   23.2040 C.ar  140  PHE140     -0.0003
     44  CZ         5.5570   -1.0780   22.0930 C.ar  140  PHE140     -0.0000
     45  N          9.2360    0.0910   28.1950 N.am  141  LEU141     -0.1966
     46  CA        10.4450    0.2040   28.9890 C.3   141  LEU141      0.1728
     47  C         11.4260   -0.8340   28.4580 C.2   141  LEU141      0.2616
     48  O         11.0850   -1.6090   27.5920 O.2   141  LEU141     -0.2715
     49  CB        10.1460   -0.0350   30.4780 C.3   141  LEU141      0.0311
     50  CG         9.1270    0.9060   31.1420 C.3   141  LEU141      0.0022
     51  CD1        8.7780    0.3720   32.5070 C.3   141  LEU141      0.0001
     52  CD2        9.6940    2.3210   31.2160 C.3   141  LEU141      0.0001
     53  N         12.6310   -0.8790   29.0190 N.am  142  ASN142     -0.1958
     54  CA        13.6180   -1.9010   28.6180 C.3   142  ASN142      0.1819
     55  C         13.0760   -3.2890   28.9100 C.2   142  ASN142      0.2622
     56  O         12.4910   -3.5160   29.9660 O.2   142  ASN142     -0.2715
     57  CB        14.9420   -1.5910   29.3180 C.3   142  ASN142      0.1195
     58  CG        16.0810   -2.4420   28.8310 C.2   142  ASN142      0.2630
     59  OD1       17.0190   -2.7100   29.5980 O.2   142  ASN142     -0.2716
     60  ND2       16.0240   -2.8780   27.5720 N.am  142  ASN142     -0.0877
     61  N         13.1980   -4.2020   27.9500 N.am  143  GLY143     -0.1940
     62  CA        12.6070   -5.5370   28.0530 C.3   143  GLY143      0.2014
     63  C         11.3980   -5.7090   27.1600 C.2   143  GLY143      0.2640
     64  O         10.9040   -6.8110   26.9720 O.2   143  GLY143     -0.2714
     65  N         10.9260   -4.6020   26.5920 N.am  144  SER144     -0.1935
     66  CA         9.7100   -4.6890   25.7710 C.3   144  SER144      0.2055
     67  C          9.9590   -5.0720   24.3270 C.2   144  SER144      0.2643
     68  O          9.0040   -5.4290   23.6320 O.2   144  SER144     -0.2714
     69  CB         8.8850   -3.3860   25.8600 C.3   144  SER144      0.2130
     70  OG         9.6910   -2.3010   25.5460 O.3   144  SER144     -0.2179
     71  N         11.2250   -5.0030   23.8620 N.am  145  CYS145     -0.1967
     72  CA        11.5100   -5.4500   22.4830 C.3   145  CYS145      0.1712
     73  C         10.8850   -6.7970   22.2130 C.2   145  CYS145      0.2296
     74  O         10.8860   -7.6770   23.0840 O.2   145  CYS145     -0.2864
     75  CB        12.9990   -5.4790   22.1420 C.3   145  CYS145      0.0983
     76  SG        13.7690   -3.8590   22.4000 S.3   145  CYS145     -0.0798
     77  N          8.2780   -4.4770   18.0610 N.3   163  HIS163     -0.1226
     78  CA         8.9970   -3.3210   18.6370 C.3   163  HIS163      0.1752
     79  C         10.5040   -3.5740   18.6840 C.2   163  HIS163      0.2596
     80  O         10.9170   -4.6520   19.1450 O.2   163  HIS163     -0.2718
     81  CB         8.4950   -3.1040   20.0640 C.3   163  HIS163      0.0759
     82  CG         9.1280   -1.9200   20.7270 C.ar  163  HIS163      0.0818
     83  ND1        9.1150   -0.6660   20.1520 N.ar  163  HIS163     -0.2268
     84  CD2        9.8120   -1.8010   21.8830 C.ar  163  HIS163      0.1154
     85  CE1        9.7760    0.1760   20.9310 C.ar  163  HIS163      0.1986
     86  NE2       10.2070   -0.4840   21.9910 N.ar  163  HIS163     -0.2212
     87  N         11.3200   -2.5740   18.3060 N.am  164  HIS164     -0.1961
     88  CA        12.7450   -2.7710   18.3040 C.3   164  HIS164      0.1787
     89  C         13.4920   -1.7030   19.0910 C.2   164  HIS164      0.2620
     90  O         14.5680   -1.9920   19.6020 O.2   164  HIS164     -0.2715
     91  CB        13.2990   -2.8040   16.8500 C.3   164  HIS164      0.0785
     92  CG        13.0710   -4.0690   16.0990 C.ar  164  HIS164      0.0821
     93  ND1       14.1120   -4.7770   15.5220 N.ar  164  HIS164     -0.2267
     94  CD2       11.9280   -4.6880   15.6970 C.ar  164  HIS164      0.1154
     95  CE1       13.6240   -5.7780   14.8090 C.ar  164  HIS164      0.1986
     96  NE2       12.3080   -5.7810   14.9360 N.ar  164  HIS164     -0.2212
     97  N         12.9730   -0.4710   19.1940 N.am  165  MET165     -0.1963
     98  CA        13.7640    0.5540   19.8400 C.3   165  MET165      0.1736
     99  C         13.0070    1.8320   20.1610 C.2   165  MET165      0.2616
    100  O         11.9640    2.1200   19.5480 O.2   165  MET165     -0.2715
    101  CB        14.9500    0.9200   18.9490 C.3   165  MET165      0.0427
    102  CG        14.5260    1.7420   17.6960 C.3   165  MET165      0.0599
    103  SD        15.7030    1.5390   16.3520 S.3   165  MET165     -0.1393
    104  CE        15.8630    3.1980   15.7170 C.3   165  MET165      0.0692
    105  N         13.5680    2.6030   21.0890 N.am  166  GLU166     -0.1963
    106  CA        13.0590    3.9190   21.4340 C.3   166  GLU166      0.1733
    107  C         13.9860    5.0090   20.8940 C.2   166  GLU166      0.2616
    108  O         15.2060    4.9270   21.0430 O.2   166  GLU166     -0.2715
    109  CB        12.8780    4.0550   22.9510 C.3   166  GLU166      0.0429
    110  CG        12.3830    5.4550   23.4020 C.3   166  GLU166      0.1163
    111  CD        11.9560    5.4680   24.8480 C.2   166  GLU166      0.3649
    112  OE1       12.5600    6.2500   25.6470 O.co2 166  GLU166     -0.2457
    113  OE2       11.0210    4.6880   25.1910 O.co2 166  GLU166     -0.2457
    114  N         13.3980    6.0030   20.2280 N.am  167  LEU167     -0.1964
    115  CA        14.1520    7.1040   19.6780 C.3   167  LEU167      0.1713
    116  C         14.4120    8.1410   20.7490 C.2   167  LEU167      0.2458
    117  O         13.8120    8.0850   21.8210 O.2   167  LEU167     -0.2730
    118  CB        13.4270    7.7170   18.4520 C.3   167  LEU167      0.0310
    119  CG        13.4690    6.7130   17.2950 C.3   167  LEU167      0.0022
    120  CD1       12.4480    6.9720   16.1700 C.3   167  LEU167      0.0001
    121  CD2       14.9060    6.5260   16.7700 C.3   167  LEU167      0.0001
    122  N         15.3110    9.1020   20.4650 N.am  168  PRO168     -0.2727
    123  CA        15.5980   10.0900   21.5110 C.3   168  PRO168      0.1402
    124  C         14.4040   10.9590   21.9660 C.2   168  PRO168      0.2269
    125  O         14.4120   11.4880   23.0960 O.2   168  PRO168     -0.2865
    126  CB        16.6740   10.9630   20.8640 C.3   168  PRO168      0.0296
    127  CG        17.4510    9.9620   19.9860 C.3   168  PRO168      0.0237
    128  CD        16.3000    9.1550   19.3630 C.3   168  PRO168      0.0939
    129  N         18.4930   -0.9000   12.9630 N.3   187  ASP187     -0.1225
    130  CA        18.8690   -1.5200   14.2870 C.3   187  ASP187      0.1805
    131  C         20.3700   -1.4680   14.5770 C.2   187  ASP187      0.2598
    132  O         21.0460   -2.4980   14.7050 O.2   187  ASP187     -0.2718
    133  CB        18.3080   -2.9460   14.4410 C.3   187  ASP187      0.1424
    134  CG        18.6630   -3.8670   13.2930 C.2   187  ASP187      0.3668
    135  OD1       19.3710   -3.4470   12.3600 O.co2 187  ASP187     -0.2456
    136  OD2       18.2590   -5.0610   13.3290 O.co2 187  ASP187     -0.2456
    137  N         20.8710   -0.2460   14.6600 N.am  188  ARG188     -0.1966
    138  CA        22.2260    0.0570   15.0860 C.3   188  ARG188      0.1729
    139  C         22.2640    1.4010   15.8340 C.2   188  ARG188      0.2616
    140  O         21.4530    2.2970   15.5700 O.2   188  ARG188     -0.2715
    141  CB        23.2230    0.0470   13.8920 C.3   188  ARG188      0.0348
    142  CG        22.5910    0.1700   12.4970 C.3   188  ARG188      0.0492
    143  CD        23.5330   -0.1980   11.3520 C.3   188  ARG188      0.2205
    144  NE        24.1950    1.0050   10.8660 N.pl3 188  ARG188     -0.0865
    145  CZ        25.3870    1.4120   11.2820 C.cat 188  ARG188      0.5346
    146  NH1       26.0530    0.6900   12.1850 N.pl3 188  ARG188      0.1354
    147  NH2       25.9170    2.5320   10.8000 N.pl3 188  ARG188      0.1354
    148  N         23.1960    1.5130   16.7760 N.am  189  GLN189     -0.1977
    149  CA        23.3740    2.7110   17.5970 C.3   189  GLN189      0.1601
    150  C         23.9740    3.8360   16.7540 C.2   189  GLN189      0.2287
    151  O         25.1980    3.9400   16.6480 O.2   189  GLN189     -0.2864
    152  CB        24.2530    2.3590   18.8210 C.3   189  GLN189      0.0394
    153  CG        24.3490    3.4000   19.9360 C.3   189  GLN189      0.0908
    154  CD        23.0250    4.0580   20.2460 C.2   189  GLN189      0.2608
    155  OE1       22.8520    5.2590   20.0070 O.2   189  GLN189     -0.2717
    156  NE2       22.0700    3.2780   20.7580 N.am  189  GLN189     -0.0878
    157  N         20.1510    8.6550   14.7000 N.3   192  GLN192     -0.1245
    158  CA        18.8880    8.7470   13.9710 C.3   192  GLN192      0.1566
    159  C         17.8170    9.4330   14.8540 C.2   192  GLN192      0.2260
    160  O         17.8580    9.3590   16.0980 O.2   192  GLN192     -0.2867
    161  CB        18.4820    7.3650   13.4520 C.3   192  GLN192      0.0367
    162  CG        18.5020    6.3170   14.5360 C.3   192  GLN192      0.0905
    163  CD        18.5170    4.9000   14.0060 C.2   192  GLN192      0.2608
    164  OE1       19.1930    4.0040   14.5680 O.2   192  GLN192     -0.2717
    165  NE2       17.7880    4.6690   12.9600 N.am  192  GLN192     -0.0878
@<TRIPOS>BOND
     1   147   145    1
     2   144   145    2
     3   144   143    1
     4   145   146    1
     5   143   142    1
     6   135   134   ar
     7   142   141    1
     8   165   163   am
     9   129   130    1
    10   134   136   ar
    11   134   133    1
    12   161   158    1
    13   161   162    1
    14   141   138    1
    15   158   157    1
    16   158   159    1
    17   163   162    1
    18   163   164    2
    19   130   133    1
    20   130   131    1
    21   131   137   am
    22   131   132    2
    23   137   138    1
    24    95    96   ar
    25    95    93   ar
    26   159   160    2
    27    96    94   ar
    28   138   139    1
    29    93    92   ar
    30   140   139    2
    31    94    92   ar
    32   104   103    1
    33   139   148   am
    34    92    91    1
    35   120   119    1
    36   103   102    1
    37   151   150    2
    38   150   149    1
    39   121   119    1
    40   148   149    1
    41    91    88    1
    42    29    28    2
    43    16    17    1
    44   119   118    1
    45   149   152    1
    46   102   101    1
    47    28    27    1
    48    17    20    1
    49    17    18    1
    50    77    78    1
    51    20    21    1
    52    88    87    1
    53    88    89    1
    54    87    79   am
    55    33    32    1
    56   118   115    1
    57    22    21   ar
    58    22    24   ar
    59    27    26    1
    60    27    30    1
    61    78    79    1
    62    78    81    1
    63    79    80    2
    64    32    31    1
    65   152   153    1
    66   101    98    1
    67    21    23   ar
    68    89    97   am
    69    89    90    2
    70    97    98    1
    71    18    19    2
    72   128   127    1
    73   128   122    1
    74    24    25   ar
    75   100    99    2
    76    30    31    1
    77   115   114    1
    78   115   116    1
    79    98    99    1
    80   153   154    1
    81   127   126    1
    82   155   154    2
    83    81    82    1
    84    83    82   ar
    85    83    85   ar
    86    99   105   am
    87   114   107   am
    88   154   156   am
    89    23    25   ar
    90   122   116   am
    91   122   123    1
    92    82    84   ar
    93   116   117    2
    94   126   123    1
    95   107   108    2
    96   107   106    1
    97    85    86   ar
    98   105   106    1
    99   106   109    1
   100   123   124    1
   101    84    86   ar
   102    15    13    1
   103   124   125    2
   104    42    44   ar
   105    42    40   ar
   106    44    43   ar
   107    75    76    1
   108    75    72    1
   109    14    13    1
   110    73    72    1
   111    73    74    2
   112    72    71    1
   113    13    12    1
   114   109   110    1
   115    40    39   ar
   116    43    41   ar
   117   110   111    1
   118    68    67    2
   119    12     9    1
   120    71    67   am
   121    39    41   ar
   122    39    38    1
   123    67    66    1
   124   111   113   ar
   125   111   112   ar
   126    10     9    1
   127    10    11    2
   128     9     8    1
   129    38    35    1
   130    70    69    1
   131     8     3   am
   132    66    69    1
   133    66    65    1
   134    35    34    1
   135    35    36    1
   136     3     4    2
   137     3     2    1
   138    65    63   am
   139    64    63    2
   140    63    62    1
   141     2     1    1
   142     2     5    1
   143    36    37    2
   144    36    45   am
   145    60    58   am
   146    48    47    2
   147    61    62    1
   148    61    55   am
   149    45    46    1
   150    47    46    1
   151    47    53   am
   152     7     5    1
   153    54    55    1
   154    54    53    1
   155    54    57    1
   156     5     6    1
   157    58    57    1
   158    58    59    2
   159    55    56    2
   160    46    49    1
   161    49    50    1
   162    50    52    1
   163    50    51    1
