@<TRIPOS>MOLECULE
tmp/3sn9N00.pdb
 201 193 0 0 0
SMALL
GASTEIGER

@<TRIPOS>ATOM
      1  N         60.4880   32.5910   64.4060 N.3     3  ASP3       -0.1239
      2  CA        61.8270   32.1920   63.9400 C.3     3  ASP3        0.1674
      3  C         62.8560   33.2380   64.2820 C.2     3  ASP3        0.2266
      4  O         63.9280   32.9240   64.7880 O.2     3  ASP3       -0.2867
      5  CB        61.8670   31.9440   62.4220 C.3     3  ASP3        0.1410
      6  CG        62.2860   30.5180   62.0680 C.2     3  ASP3        0.3668
      7  OD1       63.1360   29.9350   62.7830 O.co2   3  ASP3       -0.2456
      8  OD2       61.7750   29.9830   61.0610 O.co2   3  ASP3       -0.2456
      9  N         56.4680   30.2980   72.6000 N.3    42  TYR42      -0.1241
     10  CA        55.6170   29.1150   72.7330 C.3    42  TYR42       0.1605
     11  C         55.1950   29.0140   74.1830 C.2    42  TYR42       0.2264
     12  O         56.0410   29.0920   75.0760 O.2    42  TYR42      -0.2867
     13  CB        56.3760   27.8380   72.3810 C.3    42  TYR42       0.0534
     14  CG        56.7780   27.6960   70.9330 C.ar   42  TYR42      -0.0201
     15  CD1       55.8450   27.8430   69.9140 C.ar   42  TYR42      -0.0009
     16  CD2       58.0930   27.3770   70.5870 C.ar   42  TYR42      -0.0009
     17  CE1       56.2140   27.6990   68.5840 C.ar   42  TYR42       0.0417
     18  CE2       58.4720   27.2330   69.2670 C.ar   42  TYR42       0.0417
     19  CZ        57.5290   27.3910   68.2670 C.ar   42  TYR42       0.1957
     20  OH        57.8990   27.2440   66.9500 O.3    42  TYR42      -0.2866
     21  N         54.2230   13.1230   68.1150 N.3    53  ILE53      -0.1245
     22  CA        54.5780   13.8640   66.9000 C.3    53  ILE53       0.1561
     23  C         55.4430   13.0090   65.9630 C.2    53  ILE53       0.2260
     24  O         56.1840   12.1190   66.4070 O.2    53  ILE53      -0.2867
     25  CB        55.3080   15.2110   67.2180 C.3    53  ILE53       0.0252
     26  CG1       56.5250   14.9870   68.1190 C.3    53  ILE53       0.0019
     27  CG2       54.3560   16.1990   67.8700 C.3    53  ILE53       0.0019
     28  CD1       57.3660   16.2560   68.3490 C.3    53  ILE53       0.0001
     29  N         57.5830   13.2860   61.8350 N.3    55  LYS55      -0.1231
     30  CA        58.0050   14.1100   60.7150 C.3    55  LYS55       0.1693
     31  C         58.6830   13.2410   59.6710 C.2    55  LYS55       0.2592
     32  O         59.4980   12.3850   60.0170 O.2    55  LYS55      -0.2718
     33  CB        58.9580   15.2070   61.1970 C.3    55  LYS55       0.0285
     34  CG        58.8600   16.4910   60.3890 C.3    55  LYS55       0.0035
     35  CD        59.7910   17.5740   60.9280 C.3    55  LYS55       0.0206
     36  CE        59.2300   18.9850   60.7010 C.3    55  LYS55       0.1093
     37  NZ        60.2440   20.0560   60.9610 N.3    55  LYS55      -0.1314
     38  N         58.3380   13.4590   58.4010 N.am   56  GLY56      -0.1957
     39  CA        59.0050   12.7810   57.2940 C.3    56  GLY56       0.1869
     40  C         59.1300   11.2830   57.4800 C.2    56  GLY56       0.2309
     41  O         60.2120   10.7130   57.2900 O.2    56  GLY56      -0.2863
     42  N         59.1730    9.5260   60.1940 N.3    58  PHE58      -0.1241
     43  CA        59.7150    9.0370   61.4610 C.3    58  PHE58       0.1605
     44  C         58.8260    9.4240   62.6280 C.2    58  PHE58       0.2264
     45  O         58.4050   10.5780   62.7160 O.2    58  PHE58      -0.2867
     46  CB        61.1240    9.5730   61.7280 C.3    58  PHE58       0.0534
     47  CG        61.7330    8.9950   62.9600 C.ar   58  PHE58      -0.0203
     48  CD1       61.9590    7.6110   63.0450 C.ar   58  PHE58      -0.0042
     49  CD2       62.0280    9.7900   64.0470 C.ar   58  PHE58      -0.0042
     50  CE1       62.5000    7.0280   64.1990 C.ar   58  PHE58      -0.0003
     51  CE2       62.5760    9.2230   65.2050 C.ar   58  PHE58      -0.0003
     52  CZ        62.8120    7.8320   65.2810 C.ar   58  PHE58      -0.0000
     53  N         58.7140   10.0630   66.5980 N.3    60  PHE60      -0.1241
     54  CA        59.5360   10.3040   67.7640 C.3    60  PHE60       0.1605
     55  C         58.9790    9.5600   68.9750 C.2    60  PHE60       0.2264
     56  O         57.8010    9.1840   68.9970 O.2    60  PHE60      -0.2867
     57  CB        59.6160   11.8060   68.0340 C.3    60  PHE60       0.0534
     58  CG        60.2260   12.5880   66.9030 C.ar   60  PHE60      -0.0203
     59  CD1       61.5960   12.5880   66.7110 C.ar   60  PHE60      -0.0042
     60  CD2       59.4320   13.3030   66.0140 C.ar   60  PHE60      -0.0042
     61  CE1       62.1570   13.2900   65.6590 C.ar   60  PHE60      -0.0003
     62  CE2       59.9920   14.0010   64.9610 C.ar   60  PHE60      -0.0003
     63  CZ        61.3490   13.9990   64.7870 C.ar   60  PHE60      -0.0000
     64  N         73.4750   12.5310   71.2390 N.3    88  TYR88      -0.1241
     65  CA        72.7210   13.5260   70.4710 C.3    88  TYR88       0.1605
     66  C         71.6440   12.8570   69.6270 C.2    88  TYR88       0.2264
     67  O         70.5070   13.3260   69.5690 O.2    88  TYR88      -0.2867
     68  CB        73.6470   14.3290   69.5590 C.3    88  TYR88       0.0534
     69  CG        72.9190   15.3410   68.7160 C.ar   88  TYR88      -0.0201
     70  CD1       72.1230   16.3160   69.2920 C.ar   88  TYR88      -0.0009
     71  CD2       73.0220   15.3250   67.3470 C.ar   88  TYR88      -0.0009
     72  CE1       71.4470   17.2630   68.5230 C.ar   88  TYR88       0.0417
     73  CE2       72.3490   16.2610   66.5640 C.ar   88  TYR88       0.0417
     74  CZ        71.5610   17.2350   67.1650 C.ar   88  TYR88       0.1957
     75  OH        70.8790   18.1820   66.4150 O.3    88  TYR88      -0.2866
     76  N         67.5690   13.3320   69.9640 N.3    92  ASN92      -0.1240
     77  CA        66.7660   13.7410   68.8350 C.3    92  ASN92       0.1653
     78  C         65.5480   12.8500   68.6820 C.2    92  ASN92       0.2266
     79  O         64.4460   13.3460   68.4630 O.2    92  ASN92      -0.2867
     80  CB        67.5690   13.7060   67.5510 C.3    92  ASN92       0.1155
     81  CG        66.7440   14.0920   66.3600 C.2    92  ASN92       0.2627
     82  OD1       66.0770   15.1250   66.3630 O.2    92  ASN92      -0.2716
     83  ND2       66.7650   13.2580   65.3380 N.am   92  ASN92      -0.0877
     84  N         63.0590   13.8920   71.2030 N.3    95  HIS95      -0.1241
     85  CA        62.3460   15.0360   70.6500 C.3    95  HIS95       0.1621
     86  C         61.3360   15.5960   71.6460 C.2    95  HIS95       0.2264
     87  O         60.1490   15.7250   71.3360 O.2    95  HIS95      -0.2867
     88  CB        61.6320   14.6080   69.3740 C.3    95  HIS95       0.0745
     89  CG        61.8690   15.5210   68.2180 C.ar   95  HIS95       0.0817
     90  ND1       63.1020   15.6310   67.6120 N.ar   95  HIS95      -0.2268
     91  CD2       61.0310   16.3410   67.5360 C.ar   95  HIS95       0.1154
     92  CE1       63.0140   16.4820   66.6060 C.ar   95  HIS95       0.1986
     93  NE2       61.7700   16.9290   66.5370 N.ar   95  HIS95      -0.2212
     94  N         57.1190   19.9600   71.6810 N.3    98  LEU98      -0.1231
     95  CA        56.2020   20.0010   70.5470 C.3    98  LEU98       0.1693
     96  C         56.8910   20.6480   69.3630 C.2    98  LEU98       0.2592
     97  O         56.7470   20.1700   68.2450 O.2    98  LEU98      -0.2718
     98  CB        54.9170   20.7610   70.8830 C.3    98  LEU98       0.0284
     99  CG        53.8260   20.0220   71.6670 C.3    98  LEU98       0.0019
    100  CD1       52.7010   20.9740   72.0760 C.3    98  LEU98       0.0001
    101  CD2       53.2680   18.8860   70.8620 C.3    98  LEU98       0.0001
    102  N         57.6350   21.7300   69.6150 N.am   99  GLU99      -0.1966
    103  CA        58.3960   22.4370   68.5750 C.3    99  GLU99       0.1733
    104  C         59.6710   23.0440   69.1320 C.2    99  GLU99       0.2617
    105  O         59.7920   23.2470   70.3360 O.2    99  GLU99      -0.2715
    106  CB        57.5550   23.5480   67.9500 C.3    99  GLU99       0.0429
    107  CG        56.2440   23.0620   67.3830 C.3    99  GLU99       0.1163
    108  CD        55.7650   23.8800   66.2190 C.2    99  GLU99       0.3649
    109  OE1       56.3430   23.7420   65.1190 O.co2  99  GLU99      -0.2457
    110  OE2       54.8020   24.6460   66.4010 O.co2  99  GLU99      -0.2457
    111  N         60.6180   23.3400   68.2500 N.am  100  GLY100     -0.1940
    112  CA        61.8650   23.9750   68.6560 C.3   100  GLY100      0.2014
    113  C         62.9250   23.0150   69.1620 C.2   100  GLY100      0.2639
    114  O         63.8750   23.4260   69.8290 O.2   100  GLY100     -0.2714
    115  N         62.7730   21.7370   68.8410 N.am  101  ASN101     -0.1958
    116  CA        63.7440   20.7270   69.2520 C.3   101  ASN101      0.1819
    117  C         65.0940   20.9250   68.5890 C.2   101  ASN101      0.2622
    118  O         66.1310   20.6910   69.2070 O.2   101  ASN101     -0.2715
    119  CB        63.2320   19.3280   68.9360 C.3   101  ASN101      0.1195
    120  CG        62.0160   18.9670   69.7580 C.2   101  ASN101      0.2630
    121  OD1       62.1190   18.3270   70.8100 O.2   101  ASN101     -0.2716
    122  ND2       60.8540   19.4070   69.3020 N.am  101  ASN101     -0.0877
    123  N         65.0720   21.3680   67.3330 N.am  102  GLY102     -0.1940
    124  CA        66.2840   21.4770   66.5200 C.3   102  GLY102      0.2014
    125  C         67.2810   22.4870   67.0490 C.2   102  GLY102      0.2638
    126  O         68.3930   22.1320   67.4430 O.2   102  GLY102     -0.2714
    127  N         66.8780   23.7510   67.0670 N.am  103  ARG103     -0.1977
    128  CA        67.7330   24.8170   67.5830 C.3   103  ARG103      0.1597
    129  C         68.2200   24.5060   68.9910 C.2   103  ARG103      0.2287
    130  O         69.4000   24.6920   69.2920 O.2   103  ARG103     -0.2864
    131  CB        66.9930   26.1630   67.5700 C.3   103  ARG103      0.0334
    132  CG        66.8960   26.7880   66.1700 C.3   103  ARG103      0.0492
    133  CD        65.7090   27.7520   66.0080 C.3   103  ARG103      0.2205
    134  NE        64.4130   27.0580   66.0820 N.pl3 103  ARG103     -0.0865
    135  CZ        63.2260   27.6400   65.8900 C.cat 103  ARG103      0.5346
    136  NH1       63.1450   28.9390   65.6000 N.pl3 103  ARG103      0.1354
    137  NH2       62.1090   26.9200   65.9880 N.pl3 103  ARG103      0.1354
    138  N         70.7070   21.3940   69.3100 N.3   106  ARG106     -0.1245
    139  CA        72.0090   21.7060   68.7090 C.3   106  ARG106      0.1563
    140  C         72.8830   22.4870   69.6960 C.2   106  ARG106      0.2260
    141  O         74.0680   22.1960   69.8780 O.2   106  ARG106     -0.2867
    142  CB        71.8410   22.4820   67.3920 C.3   106  ARG106      0.0307
    143  CG        71.5300   21.6000   66.2070 C.3   106  ARG106      0.0489
    144  CD        71.6890   22.3410   64.8810 C.3   106  ARG106      0.2205
    145  NE        70.6840   23.3870   64.6880 N.pl3 106  ARG106     -0.0865
    146  CZ        69.3970   23.1720   64.3890 C.cat 106  ARG106      0.5346
    147  NH1       68.9100   21.9320   64.2530 N.pl3 106  ARG106      0.1354
    148  NH2       68.5800   24.2100   64.2360 N.pl3 106  ARG106      0.1354
    149  N         72.5820   22.7770   55.4610 N.3   128  LYS128     -0.1245
    150  CA        71.3050   22.5000   56.1300 C.3   128  LYS128      0.1561
    151  C         70.6300   21.2660   55.5300 C.2   128  LYS128      0.2260
    152  O         70.0580   20.4420   56.2460 O.2   128  LYS128     -0.2867
    153  CB        70.3760   23.7180   56.0250 C.3   128  LYS128      0.0271
    154  CG        69.0220   23.5730   56.7350 C.3   128  LYS128      0.0035
    155  CD        69.1680   23.4280   58.2640 C.3   128  LYS128      0.0206
    156  CE        67.8090   23.3270   58.9580 C.3   128  LYS128      0.1093
    157  NZ        66.9650   24.5420   58.7310 N.3   128  LYS128     -0.1314
    158  N         72.6080   18.1170   56.5910 N.3   131  TYR131     -0.1227
    159  CA        72.4030   17.9010   58.0220 C.3   131  TYR131      0.1736
    160  C         71.0760   17.1940   58.2360 C.2   131  TYR131      0.2595
    161  O         71.0030   16.1770   58.9200 O.2   131  TYR131     -0.2718
    162  CB        72.4220   19.2260   58.7960 C.3   131  TYR131      0.0548
    163  CG        71.8240   19.1250   60.1900 C.ar  131  TYR131     -0.0200
    164  CD1       72.5410   18.5690   61.2360 C.ar  131  TYR131     -0.0009
    165  CD2       70.5320   19.5770   60.4530 C.ar  131  TYR131     -0.0009
    166  CE1       71.9890   18.4660   62.5200 C.ar  131  TYR131      0.0417
    167  CE2       69.9750   19.4850   61.7280 C.ar  131  TYR131      0.0417
    168  CZ        70.7060   18.9310   62.7590 C.ar  131  TYR131      0.1957
    169  OH        70.1500   18.8420   64.0190 O.3   131  TYR131     -0.2866
    170  N         70.0320   17.7430   57.6290 N.am  132  LEU132     -0.1980
    171  CA        68.6900   17.2220   57.8010 C.3   132  LEU132      0.1596
    172  C         68.6250   15.7560   57.3350 C.2   132  LEU132      0.2287
    173  O         68.0430   14.9060   58.0110 O.2   132  LEU132     -0.2864
    174  CB        67.7060   18.1160   57.0420 C.3   132  LEU132      0.0297
    175  CG        66.2160   18.0040   57.3660 C.3   132  LEU132      0.0022
    176  CD1       65.9560   18.2870   58.8300 C.3   132  LEU132      0.0001
    177  CD2       65.4130   18.9730   56.4830 C.3   132  LEU132      0.0001
    178  N         70.4510   13.5400   59.8870 N.3   135  MET135     -0.1230
    179  CA        69.6200   13.3760   61.0680 C.3   135  MET135      0.1702
    180  C         68.5000   12.3790   60.7940 C.2   135  MET135      0.2592
    181  O         68.2640   11.4530   61.5930 O.2   135  MET135     -0.2718
    182  CB        69.0250   14.7180   61.4940 C.3   135  MET135      0.0401
    183  CG        70.0430   15.6940   62.0650 C.3   135  MET135      0.0596
    184  SD        70.8870   15.0420   63.5240 S.3   135  MET135     -0.1393
    185  CE        69.5210   15.0040   64.6890 C.3   135  MET135      0.0692
    186  N         67.8300   12.5560   59.6500 N.am  136  GLU136     -0.1979
    187  CA        66.7310   11.6650   59.2420 C.3   136  GLU136      0.1602
    188  C         67.1400   10.1970   59.2710 C.2   136  GLU136      0.2287
    189  O         66.3610    9.3560   59.6870 O.2   136  GLU136     -0.2864
    190  CB        66.2140   12.0500   57.8530 C.3   136  GLU136      0.0415
    191  CG        65.4470   13.3840   57.8390 C.3   136  GLU136      0.1163
    192  CD        65.1250   13.9010   56.4450 C.2   136  GLU136      0.3649
    193  OE1       65.7540   13.4440   55.4560 O.co2 136  GLU136     -0.2457
    194  OE2       64.2260   14.7670   56.3490 O.co2 136  GLU136     -0.2457
    195  N         68.8650    7.5160   63.3490 N.3   139  PRO139     -0.2116
    196  CA        68.4560    6.4110   64.2400 C.3   139  PRO139      0.1372
    197  C         68.9080    5.0400   63.7370 C.2   139  PRO139      0.2244
    198  O         69.3500    4.2220   64.5410 O.2   139  PRO139     -0.2868
    199  CB        66.9260    6.5100   64.2470 C.3   139  PRO139      0.0268
    200  CG        66.6140    7.9310   63.7870 C.3   139  PRO139      0.0207
    201  CD        67.7010    8.2490   62.8010 C.3   139  PRO139      0.0892
@<TRIPOS>BOND
     1   193   192   ar
     2   149   150    1
     3   151   150    1
     4   151   152    2
     5   153   150    1
     6   153   154    1
     7   194   192   ar
     8   192   191    1
     9   177   175    1
    10   158   159    1
    11   154   155    1
    12   174   175    1
    13   174   171    1
    14    41    40    2
    15    39    40    1
    16    39    38    1
    17   172   171    1
    18   172   173    2
    19   175   176    1
    20   170   171    1
    21   170   160   am
    22   191   190    1
    23   190   187    1
    24   159   160    1
    25   159   162    1
    26   160   161    2
    27   155   156    1
    28    38    31   am
    29   157   156    1
    30   162   163    1
    31   187   188    1
    32   187   186    1
    33   188   189    2
    34   186   180   am
    35    31    32    2
    36    31    30    1
    37   178   179    1
    38   163   165   ar
    39   163   164   ar
    40    42    43    1
    41    34    35    1
    42    34    33    1
    43   165   167   ar
    44    36    35    1
    45    36    37    1
    46    30    33    1
    47    30    29    1
    48   180   179    1
    49   180   181    2
    50     8     6   ar
    51   179   182    1
    52   164   166   ar
    53    43    46    1
    54    43    44    1
    55   182   183    1
    56    46    47    1
    57   167   168   ar
    58   183   184    1
    59     6     5    1
    60     6     7   ar
    61     5     2    1
    62   166   168   ar
    63    44    45    2
    64   168   169    1
    65   201   195    1
    66   201   200    1
    67    47    48   ar
    68    47    49   ar
    69    48    50   ar
    70   195   196    1
    71   184   185    1
    72   197   196    1
    73   197   198    2
    74   200   199    1
    75     2     3    1
    76     2     1    1
    77    49    51   ar
    78    50    52   ar
    79   148   146    1
    80   196   199    1
    81   147   146    1
    82     3     4    2
    83   146   145    2
    84   145   144    1
    85    63    62   ar
    86    63    61   ar
    87   144   143    1
    88    62    60   ar
    89   109   108   ar
    90    51    52   ar
    91    83    81   am
    92   136   135    1
    93    61    59   ar
    94   135   137    1
    95   135   134    2
    96    23    24    2
    97    23    22    1
    98   133   134    1
    99   133   132    1
   100    60    58   ar
   101   132   131    1
   102   143   142    1
   103   108   110   ar
   104   108   107    1
   105    81    82    2
   106    81    80    1
   107    75    74    1
   108   124   125    1
   109   124   123    1
   110    93    92   ar
   111    93    91   ar
   112    73    74   ar
   113    73    71   ar
   114    53    54    1
   115    92    90   ar
   116    59    58   ar
   117    22    25    1
   118    22    21    1
   119    58    57    1
   120    20    19    1
   121   125   127   am
   122   125   126    2
   123   127   128    1
   124    74    72   ar
   125    25    27    1
   126    25    26    1
   127   123   117   am
   128    71    69   ar
   129   107   106    1
   130   142   139    1
   131    91    89   ar
   132    80    77    1
   133   131   128    1
   134   128   129    1
   135    90    89   ar
   136    54    57    1
   137    54    55    1
   138   106   103    1
   139    26    28    1
   140    89    88    1
   141    97    96    2
   142   111   112    1
   143   111   104   am
   144    19    17   ar
   145    19    18   ar
   146    79    78    2
   147    72    70   ar
   148   103   104    1
   149   103   102    1
   150    17    15   ar
   151   117   118    2
   152   117   116    1
   153   112   113    1
   154    78    77    1
   155   139   138    1
   156   139   140    1
   157    69    70   ar
   158    69    68    1
   159    77    76    1
   160   115   113   am
   161   115   116    1
   162   119   116    1
   163   119   120    1
   164    55    56    2
   165   129   130    2
   166   104   105    2
   167   113   114    2
   168    18    16   ar
   169   122   120   am
   170    96   102   am
   171    96    95    1
   172    88    85    1
   173    68    65    1
   174    67    66    2
   175    66    65    1
   176   140   141    2
   177   120   121    2
   178    15    14   ar
   179    65    64    1
   180    95    98    1
   181    95    94    1
   182    16    14   ar
   183    85    84    1
   184    85    86    1
   185   101    99    1
   186    98    99    1
   187    14    13    1
   188    87    86    2
   189    99   100    1
   190    13    10    1
   191     9    10    1
   192    10    11    1
   193    11    12    2
