@<TRIPOS>MOLECULE
tmp/3snbA00.pdb
 192 191 0 0 0
SMALL
GASTEIGER

@<TRIPOS>ATOM
      1  N         21.3680  -11.3150   26.3920 N.3    25  THR25      -0.1203
      2  CA        20.2650  -10.4210   26.0380 C.3    25  THR25       0.1994
      3  C         18.9670  -11.2060   26.0440 C.2    25  THR25       0.2619
      4  O         18.8330  -12.1950   25.3190 O.2    25  THR25      -0.2717
      5  CB        20.4530   -9.8020   24.6290 C.3    25  THR25       0.1784
      6  OG1       21.7360   -9.1820   24.5300 O.3    25  THR25      -0.2211
      7  CG2       19.3660   -8.7670   24.3200 C.3    25  THR25       0.0376
      8  N         18.0090  -10.7760   26.8570 N.am   26  THR26      -0.1938
      9  CA        16.6850  -11.3660   26.7900 C.3    26  THR26       0.2028
     10  C         15.6650  -10.3980   26.1820 C.2    26  THR26       0.2642
     11  O         15.6330   -9.2010   26.5100 O.2    26  THR26      -0.2714
     12  CB        16.2110  -11.9300   28.1490 C.3    26  THR26       0.1808
     13  OG1       17.1110  -12.9750   28.5680 O.3    26  THR26      -0.2208
     14  CG2       14.8410  -12.5570   27.9920 C.3    26  THR26       0.0379
     15  N         14.8660  -10.9310   25.2620 N.am   27  LEU27      -0.1977
     16  CA        13.7400  -10.1960   24.7030 C.3    27  LEU27       0.1596
     17  C         12.6210  -11.1620   24.2930 C.2    27  LEU27       0.2287
     18  O         12.7600  -12.3860   24.4630 O.2    27  LEU27      -0.2864
     19  CB        14.1920   -9.2800   23.5520 C.3    27  LEU27       0.0297
     20  CG        15.0780   -9.7950   22.4280 C.3    27  LEU27       0.0022
     21  CD1       14.4280  -10.9180   21.6690 C.3    27  LEU27       0.0001
     22  CD2       15.3770   -8.6550   21.5040 C.3    27  LEU27       0.0001
     23  N         18.6090   -8.1730   16.7940 N.3    41  HIS41      -0.1241
     24  CA        19.5730   -7.5340   17.6960 C.3    41  HIS41       0.1621
     25  C         19.7150   -8.2600   19.0400 C.2    41  HIS41       0.2264
     26  O         20.4590   -7.8300   19.9090 O.2    41  HIS41      -0.2867
     27  CB        19.2760   -6.0220   17.8830 C.3    41  HIS41       0.0745
     28  CG        18.1460   -5.7100   18.8230 C.ar   41  HIS41       0.0817
     29  ND1       17.0670   -4.9370   18.4510 N.ar   41  HIS41      -0.2268
     30  CD2       17.9450   -6.0260   20.1250 C.ar   41  HIS41       0.1154
     31  CE1       16.2410   -4.8030   19.4760 C.ar   41  HIS41       0.1986
     32  NE2       16.7500   -5.4560   20.5050 N.ar   41  HIS41      -0.2212
     33  N         26.1810   -3.2570   19.4810 N.3    49  MET49      -0.1230
     34  CA        25.0380   -2.4550   19.0060 C.3    49  MET49       0.1702
     35  C         25.4020   -1.2400   18.1660 C.2    49  MET49       0.2592
     36  O         24.6890   -0.9000   17.2310 O.2    49  MET49      -0.2718
     37  CB        24.0400   -2.1280   20.1250 C.3    49  MET49       0.0401
     38  CG        23.0530   -3.2840   20.3940 C.3    49  MET49       0.0596
     39  SD        21.7980   -3.6610   19.1170 S.3    49  MET49      -0.1393
     40  CE        22.7130   -3.7710   17.5820 C.3    49  MET49       0.0692
     41  N         26.5150   -0.5980   18.4890 N.am   50  LEU50      -0.1980
     42  CA        27.1300    0.3230   17.5520 C.3    50  LEU50       0.1596
     43  C         27.8690   -0.5540   16.5400 C.2    50  LEU50       0.2287
     44  O         28.6480   -1.4340   16.9290 O.2    50  LEU50      -0.2864
     45  CB        28.1370    1.2210   18.2700 C.3    50  LEU50       0.0297
     46  CG        27.8560    1.5930   19.7300 C.3    50  LEU50       0.0022
     47  CD1       29.0230    1.1680   20.6180 C.3    50  LEU50       0.0001
     48  CD2       27.5440    3.0810   19.8700 C.3    50  LEU50       0.0001
     49  N          7.0850    1.8170   26.2770 N.3   140  PHE140     -0.1227
     50  CA         7.9790    0.6650   26.3320 C.3   140  PHE140      0.1736
     51  C          9.1480    0.9460   27.2590 C.2   140  PHE140      0.2595
     52  O          9.7170    2.0470   27.2430 O.2   140  PHE140     -0.2718
     53  CB         8.5520    0.3820   24.9480 C.3   140  PHE140      0.0547
     54  CG         7.5510   -0.1420   23.9500 C.ar  140  PHE140     -0.0202
     55  CD1        7.2060    0.6250   22.8290 C.ar  140  PHE140     -0.0042
     56  CD2        6.9880   -1.4040   24.0960 C.ar  140  PHE140     -0.0042
     57  CE1        6.3120    0.1390   21.8700 C.ar  140  PHE140     -0.0003
     58  CE2        6.0880   -1.9080   23.1270 C.ar  140  PHE140     -0.0003
     59  CZ         5.7480   -1.1320   22.0160 C.ar  140  PHE140     -0.0000
     60  N          9.5070   -0.0510   28.0650 N.am  141  LEU141     -0.1966
     61  CA        10.7340   -0.0060   28.8440 C.3   141  LEU141      0.1728
     62  C         11.6920   -0.9790   28.1790 C.2   141  LEU141      0.2616
     63  O         11.3310   -1.6200   27.1870 O.2   141  LEU141     -0.2715
     64  CB        10.4840   -0.3700   30.3190 C.3   141  LEU141      0.0311
     65  CG         9.4690    0.4650   31.1210 C.3   141  LEU141      0.0022
     66  CD1        9.3150   -0.0530   32.5620 C.3   141  LEU141      0.0001
     67  CD2        9.8040    1.9810   31.1030 C.3   141  LEU141      0.0001
     68  N         12.9100   -1.0590   28.7110 N.am  142  ASN142     -0.1958
     69  CA        13.8900   -2.0730   28.3480 C.3   142  ASN142      0.1819
     70  C         13.3080   -3.4440   28.5510 C.2   142  ASN142      0.2622
     71  O         12.7910   -3.7440   29.6260 O.2   142  ASN142     -0.2715
     72  CB        15.1330   -1.9740   29.2340 C.3   142  ASN142      0.1195
     73  CG        16.1490   -0.9780   28.7150 C.2   142  ASN142      0.2630
     74  OD1       15.8640   -0.1780   27.8160 O.2   142  ASN142     -0.2716
     75  ND2       17.3530   -1.0160   29.2920 N.am  142  ASN142     -0.0877
     76  N         13.4080   -4.2650   27.5100 N.am  143  GLY143     -0.1940
     77  CA        12.9500   -5.6360   27.5470 C.3   143  GLY143      0.2014
     78  C         11.6160   -5.8080   26.8790 C.2   143  GLY143      0.2640
     79  O         11.0260   -6.8520   26.9880 O.2   143  GLY143     -0.2714
     80  N         11.1370   -4.7680   26.2110 N.am  144  SER144     -0.1935
     81  CA         9.8590   -4.8210   25.5050 C.3   144  SER144      0.2055
     82  C         10.0420   -5.1530   24.0280 C.2   144  SER144      0.2643
     83  O          9.0820   -5.4850   23.3280 O.2   144  SER144     -0.2714
     84  CB         9.0900   -3.5020   25.6570 C.3   144  SER144      0.2130
     85  OG         9.8290   -2.4020   25.1490 O.3   144  SER144     -0.2179
     86  N         11.2830   -5.0680   23.5550 N.am  145  CYS145     -0.1967
     87  CA        11.6040   -5.4540   22.1800 C.3   145  CYS145      0.1712
     88  C         11.0080   -6.8140   21.8800 C.2   145  CYS145      0.2296
     89  O         11.0660   -7.7250   22.7290 O.2   145  CYS145     -0.2864
     90  CB        13.1050   -5.4900   21.9680 C.3   145  CYS145      0.0983
     91  SG        13.8970   -3.8630   22.1700 S.3   145  CYS145     -0.0798
     92  N          8.3690   -4.5820   17.7880 N.3   163  HIS163     -0.1226
     93  CA         9.1590   -3.5190   18.3910 C.3   163  HIS163      0.1752
     94  C         10.6610   -3.8480   18.4240 C.2   163  HIS163      0.2596
     95  O         11.0500   -4.9810   18.7110 O.2   163  HIS163     -0.2718
     96  CB         8.6240   -3.2270   19.7970 C.3   163  HIS163      0.0759
     97  CG         9.2970   -2.0710   20.4470 C.ar  163  HIS163      0.0818
     98  ND1        9.3100   -0.8160   19.8850 N.ar  163  HIS163     -0.2268
     99  CD2       10.0130   -1.9830   21.5890 C.ar  163  HIS163      0.1154
    100  CE1       10.0060    0.0000   20.6570 C.ar  163  HIS163      0.1986
    101  NE2       10.4400   -0.6860   21.6970 N.ar  163  HIS163     -0.2212
    102  N         11.4940   -2.8540   18.1110 N.am  164  HIS164     -0.1961
    103  CA        12.9590   -3.0370   18.0180 C.3   164  HIS164      0.1787
    104  C         13.6680   -2.0090   18.8610 C.2   164  HIS164      0.2620
    105  O         14.5950   -2.3460   19.5910 O.2   164  HIS164     -0.2715
    106  CB        13.4860   -2.9350   16.5810 C.3   164  HIS164      0.0785
    107  CG        13.2010   -4.1370   15.7350 C.ar  164  HIS164      0.0821
    108  ND1       14.1970   -4.9680   15.2570 N.ar  164  HIS164     -0.2267
    109  CD2       12.0360   -4.6350   15.2570 C.ar  164  HIS164      0.1154
    110  CE1       13.6540   -5.9430   14.5510 C.ar  164  HIS164      0.1986
    111  NE2       12.3460   -5.7600   14.5250 N.ar  164  HIS164     -0.2212
    112  N         13.2290   -0.7580   18.7980 N.am  165  MET165     -0.1963
    113  CA        13.9860    0.2920   19.4680 C.3   165  MET165      0.1736
    114  C         13.1990    1.5490   19.8130 C.2   165  MET165      0.2616
    115  O         12.0700    1.7370   19.3650 O.2   165  MET165     -0.2715
    116  CB        15.1840    0.6770   18.6040 C.3   165  MET165      0.0427
    117  CG        14.8170    1.5040   17.3830 C.3   165  MET165      0.0599
    118  SD        15.9490    1.2050   16.0150 S.3   165  MET165     -0.1393
    119  CE        16.0690    2.8710   15.3870 C.3   165  MET165      0.0692
    120  N         13.8480    2.4100   20.5870 N.am  166  GLU166     -0.1963
    121  CA        13.3110    3.6870   20.9910 C.3   166  GLU166      0.1733
    122  C         14.2070    4.8180   20.4890 C.2   166  GLU166      0.2616
    123  O         15.4170    4.6610   20.4220 O.2   166  GLU166     -0.2715
    124  CB        13.2100    3.7460   22.5100 C.3   166  GLU166      0.0429
    125  CG        11.9860    4.5350   22.9890 C.3   166  GLU166      0.1163
    126  CD        12.0400    4.9290   24.4640 C.2   166  GLU166      0.3649
    127  OE1       11.1560    4.4860   25.2320 O.co2 166  GLU166     -0.2457
    128  OE2       12.9510    5.7010   24.8440 O.co2 166  GLU166     -0.2457
    129  N         13.6010    5.9570   20.1480 N.am  167  LEU167     -0.1964
    130  CA        14.3180    7.1100   19.6000 C.3   167  LEU167      0.1713
    131  C         14.4590    8.2210   20.6560 C.2   167  LEU167      0.2458
    132  O         13.6950    8.2340   21.6210 O.2   167  LEU167     -0.2730
    133  CB        13.5780    7.6470   18.3640 C.3   167  LEU167      0.0310
    134  CG        13.5530    6.7400   17.1300 C.3   167  LEU167      0.0022
    135  CD1       12.6230    7.3160   16.0390 C.3   167  LEU167      0.0001
    136  CD2       14.9630    6.4680   16.5760 C.3   167  LEU167      0.0001
    137  N         15.3960    9.1770   20.4530 N.am  168  PRO168     -0.2727
    138  CA        15.7050   10.1770   21.4740 C.3   168  PRO168      0.1402
    139  C         14.5130   10.9860   21.9520 C.2   168  PRO168      0.2269
    140  O         14.5030   11.3940   23.1270 O.2   168  PRO168     -0.2865
    141  CB        16.7230   11.0900   20.7850 C.3   168  PRO168      0.0296
    142  CG        17.3720   10.2110   19.7960 C.3   168  PRO168      0.0237
    143  CD        16.2640    9.3440   19.2770 C.3   168  PRO168      0.0939
    144  N         18.8210   -0.9630   12.3350 N.3   187  ASP187     -0.1225
    145  CA        19.0030   -1.9320   13.3960 C.3   187  ASP187      0.1805
    146  C         20.2070   -1.7040   14.3310 C.2   187  ASP187      0.2598
    147  O         20.7760   -2.6760   14.8410 O.2   187  ASP187     -0.2718
    148  CB        19.1910   -3.2890   12.6970 C.3   187  ASP187      0.1424
    149  CG        18.4630   -4.3560   13.3880 C.2   187  ASP187      0.3668
    150  OD1       18.1200   -4.1240   14.5670 O.co2 187  ASP187     -0.2456
    151  OD2       18.2020   -5.3960   12.7830 O.co2 187  ASP187     -0.2456
    152  N         20.5870   -0.4490   14.5470 N.am  188  ARG188     -0.1966
    153  CA        21.8150   -0.1330   15.2790 C.3   188  ARG188      0.1729
    154  C         21.7980    1.2290   15.9760 C.2   188  ARG188      0.2616
    155  O         20.9200    2.0500   15.7430 O.2   188  ARG188     -0.2715
    156  CB        23.0530   -0.2730   14.3780 C.3   188  ARG188      0.0348
    157  CG        23.0600    0.5480   13.1000 C.3   188  ARG188      0.0492
    158  CD        24.4810    0.6810   12.5680 C.3   188  ARG188      0.2205
    159  NE        25.3730    1.2510   13.5730 N.pl3 188  ARG188     -0.0865
    160  CZ        26.5300    1.8500   13.3020 C.cat 188  ARG188      0.5346
    161  NH1       26.9470    1.9600   12.0460 N.pl3 188  ARG188      0.1354
    162  NH2       27.2710    2.3460   14.2890 N.pl3 188  ARG188      0.1354
    163  N         22.7640    1.4420   16.8640 N.am  189  GLN189     -0.1963
    164  CA        22.8030    2.6300   17.7220 C.3   189  GLN189      0.1733
    165  C         23.6440    3.7260   17.0890 C.2   189  GLN189      0.2617
    166  O         24.8720    3.7080   17.1840 O.2   189  GLN189     -0.2715
    167  CB        23.3500    2.2870   19.1340 C.3   189  GLN189      0.0408
    168  CG        23.0490    3.3460   20.2130 C.3   189  GLN189      0.0908
    169  CD        24.0690    3.3960   21.3780 C.2   189  GLN189      0.2608
    170  OE1       24.8920    2.4820   21.5670 O.2   189  GLN189     -0.2717
    171  NE2       24.0100    4.4800   22.1660 N.am  189  GLN189     -0.0878
    172  N         22.9690    4.6630   16.4300 N.am  190  THR190     -0.1937
    173  CA        23.6030    5.8620   15.9110 C.3   190  THR190      0.2028
    174  C         22.7110    7.0660   16.1620 C.2   190  THR190      0.2642
    175  O         21.6200    6.9550   16.7210 O.2   190  THR190     -0.2714
    176  CB        23.8470    5.7900   14.3820 C.3   190  THR190      0.1808
    177  OG1       22.6120    5.5450   13.6950 O.3   190  THR190     -0.2208
    178  CG2       24.8590    4.7140   14.0300 C.3   190  THR190      0.0379
    179  N         23.1880    8.2200   15.7300 N.am  191  ALA191     -0.1963
    180  CA        22.3690    9.4020   15.6530 C.3   191  ALA191      0.1728
    181  C         21.2230    9.0880   14.6890 C.2   191  ALA191      0.2616
    182  O         21.4040    9.0860   13.4570 O.2   191  ALA191     -0.2715
    183  CB        23.2040   10.5990   15.1590 C.3   191  ALA191      0.0334
    184  N         20.0610    8.7820   15.2650 N.am  192  GLN192     -0.1977
    185  CA        18.8120    8.6090   14.5220 C.3   192  GLN192      0.1601
    186  C         17.7720    9.4990   15.1650 C.2   192  GLN192      0.2287
    187  O         17.7050    9.5900   16.3900 O.2   192  GLN192     -0.2864
    188  CB        18.3390    7.1610   14.6030 C.3   192  GLN192      0.0394
    189  CG        18.5410    6.3700   13.3420 C.3   192  GLN192      0.0908
    190  CD        18.2680    4.8970   13.5570 C.2   192  GLN192      0.2608
    191  OE1       17.5650    4.2630   12.7680 O.2   192  GLN192     -0.2717
    192  NE2       18.8190    4.3400   14.6270 N.am  192  GLN192     -0.0878
@<TRIPOS>BOND
     1   161   160    1
     2   144   145    1
     3   158   157    1
     4   158   159    1
     5   148   149    1
     6   148   145    1
     7   191   190    2
     8   151   149   ar
     9   157   156    1
    10   160   159    2
    11   160   162    1
    12   189   190    1
    13   189   188    1
    14   149   150   ar
    15   145   146    1
    16   182   181    2
    17   190   192   am
    18   177   176    1
    19   178   176    1
    20   146   152   am
    21   146   147    2
    22   156   153    1
    23   176   173    1
    24   185   188    1
    25   185   186    1
    26   185   184    1
    27   111   110   ar
    28   111   109   ar
    29   152   153    1
    30   110   108   ar
    31   181   184   am
    32   181   180    1
    33   183   180    1
    34   186   187    2
    35   108   107   ar
    36   109   107   ar
    37   153   154    1
    38   119   118    1
    39   180   179    1
    40   179   174   am
    41   107   106    1
    42   155   154    2
    43   173   174    1
    44   173   172    1
    45   154   163   am
    46   118   117    1
    47   135   134    1
    48   174   175    2
    49   172   165   am
    50    43    44    2
    51    43    42    1
    52   136   134    1
    53   106   103    1
    54    23    24    1
    55   163   164    1
    56   165   166    2
    57   165   164    1
    58   134   133    1
    59    36    35    2
    60   117   116    1
    61    42    45    1
    62    42    41    1
    63    40    39    1
    64    24    27    1
    65    24    25    1
    66   164   167    1
    67    92    93    1
    68    27    28    1
    69   103   102    1
    70   103   104    1
    71   102    94   am
    72    35    41   am
    73    35    34    1
    74    45    46    1
    75   133   130    1
    76    93    94    1
    77    93    96    1
    78    94    95    2
    79    29    28   ar
    80    29    31   ar
    81   116   113    1
    82   112   104   am
    83   112   113    1
    84    28    30   ar
    85   104   105    2
    86    34    33    1
    87    34    37    1
    88    25    26    2
    89    39    38    1
    90   167   168    1
    91   143   142    1
    92   143   137    1
    93   115   114    2
    94   113   114    1
    95    31    32   ar
    96   130   129    1
    97   130   131    1
    98    46    48    1
    99    46    47    1
   100   142   141    1
   101    96    97    1
   102   114   120   am
   103    98    97   ar
   104    98   100   ar
   105    30    32   ar
   106    37    38    1
   107   129   122   am
   108   168   169    1
   109   123   122    2
   110    97    99   ar
   111   137   131   am
   112   137   138    1
   113   122   121    1
   114   120   121    1
   115   131   132    2
   116   100   101   ar
   117   141   138    1
   118   121   124    1
   119   169   170    2
   120   169   171   am
   121   138   139    1
   122    22    20    1
   123    99   101   ar
   124    21    20    1
   125    57    59   ar
   126    57    55   ar
   127    88    87    1
   128    88    89    2
   129   139   140    2
   130    90    91    1
   131    90    87    1
   132    59    58   ar
   133    87    86    1
   134    20    19    1
   135   124   125    1
   136    55    54   ar
   137   125   126    1
   138    58    56   ar
   139    83    82    2
   140    19    16    1
   141    86    82   am
   142    54    56   ar
   143    54    53    1
   144    82    81    1
   145    17    18    2
   146    17    16    1
   147     7     5    1
   148   126   128   ar
   149   126   127   ar
   150     6     5    1
   151     5     2    1
   152    16    15    1
   153    53    50    1
   154    85    84    1
   155    15    10   am
   156     4     3    2
   157    81    84    1
   158    81    80    1
   159     2     3    1
   160     2     1    1
   161     3     8   am
   162    10    11    2
   163    10     9    1
   164    80    78   am
   165    49    50    1
   166    50    51    1
   167     9     8    1
   168     9    12    1
   169    78    79    2
   170    78    77    1
   171    63    62    2
   172    52    51    2
   173    51    60   am
   174    76    77    1
   175    76    70   am
   176    74    73    2
   177    14    12    1
   178    60    61    1
   179    12    13    1
   180    62    68   am
   181    62    61    1
   182    69    70    1
   183    69    68    1
   184    69    72    1
   185    70    71    2
   186    73    72    1
   187    73    75   am
   188    61    64    1
   189    64    65    1
   190    67    65    1
   191    65    66    1
