@<TRIPOS>MOLECULE
tmp/3sncA00.pdb
 188 187 0 0 0
SMALL
GASTEIGER

@<TRIPOS>ATOM
      1  N         21.2880   30.1350   -0.3720 N.3    27  LEU27      -0.1245
      2  CA        20.2050   30.9020   -0.9700 C.3    27  LEU27       0.1561
      3  C         19.0860   29.9430   -1.4040 C.2    27  LEU27       0.2260
      4  O         19.3130   28.7520   -1.5060 O.2    27  LEU27      -0.2867
      5  CB        20.7350   31.7500   -2.1340 C.3    27  LEU27       0.0270
      6  CG        21.6980   31.1780   -3.1980 C.3    27  LEU27       0.0019
      7  CD1       21.1550   29.9520   -3.9780 C.3    27  LEU27       0.0001
      8  CD2       22.0710   32.2720   -4.1500 C.3    27  LEU27       0.0001
      9  N         25.1080   32.7490   -8.9060 N.3    41  HIS41      -0.1241
     10  CA        26.1030   33.3130   -7.9680 C.3    41  HIS41       0.1621
     11  C         26.1860   32.6160   -6.6060 C.2    41  HIS41       0.2264
     12  O         26.8870   33.1030   -5.7110 O.2    41  HIS41      -0.2867
     13  CB        26.0030   34.8390   -7.7970 C.3    41  HIS41       0.0745
     14  CG        24.8980   35.2960   -6.8910 C.ar   41  HIS41       0.0817
     15  ND1       23.8820   36.1310   -7.3170 N.ar   41  HIS41      -0.2268
     16  CD2       24.6550   35.0540   -5.5800 C.ar   41  HIS41       0.1154
     17  CE1       23.0660   36.3850   -6.3110 C.ar   41  HIS41       0.1986
     18  NE2       23.5050   35.7310   -5.2470 N.ar   41  HIS41      -0.2212
     19  N         33.3910   37.8900   -6.1670 N.3    49  MET49      -0.1230
     20  CA        32.2640   38.6970   -6.5820 C.3    49  MET49       0.1702
     21  C         32.6080   39.8820   -7.4480 C.2    49  MET49       0.2592
     22  O         31.8850   40.1930   -8.3540 O.2    49  MET49      -0.2718
     23  CB        31.4420   39.1300   -5.3850 C.3    49  MET49       0.0401
     24  CG        30.1380   38.3550   -5.2240 C.3    49  MET49       0.0596
     25  SD        29.6090   37.4410   -6.6760 S.3    49  MET49      -0.1393
     26  CE        28.1350   38.3200   -7.1170 C.3    49  MET49       0.0692
     27  N         33.7060   40.5580   -7.1920 N.am   50  LEU50      -0.1980
     28  CA        34.0370   41.7160   -8.0510 C.3    50  LEU50       0.1596
     29  C         34.3150   41.3310   -9.5350 C.2    50  LEU50       0.2287
     30  O         33.7090   41.9040  -10.4460 O.2    50  LEU50      -0.2864
     31  CB        35.1580   42.5930   -7.4330 C.3    50  LEU50       0.0297
     32  CG        35.9470   43.6120   -8.2940 C.3    50  LEU50       0.0022
     33  CD1       35.2270   44.9800   -8.5120 C.3    50  LEU50       0.0001
     34  CD2       37.3680   43.8070   -7.7310 C.3    50  LEU50       0.0001
     35  N         13.5560   42.8610    0.3910 N.3   140  PHE140     -0.1227
     36  CA        14.4560   41.7190    0.6040 C.3   140  PHE140      0.1736
     37  C         15.6320   42.0690    1.5590 C.2   140  PHE140      0.2595
     38  O         16.1930   43.1780    1.5000 O.2   140  PHE140     -0.2718
     39  CB        15.0840   41.2640   -0.7050 C.3   140  PHE140      0.0547
     40  CG        14.1090   40.9500   -1.8020 C.ar  140  PHE140     -0.0202
     41  CD1       13.4330   39.7380   -1.8300 C.ar  140  PHE140     -0.0042
     42  CD2       13.9230   41.8500   -2.8680 C.ar  140  PHE140     -0.0042
     43  CE1       12.5520   39.4130   -2.8810 C.ar  140  PHE140     -0.0003
     44  CE2       13.0340   41.5280   -3.9340 C.ar  140  PHE140     -0.0003
     45  CZ        12.3460   40.3020   -3.9330 C.ar  140  PHE140     -0.0000
     46  N         15.9930   41.1200    2.4290 N.am  141  LEU141     -0.1966
     47  CA        17.3170   41.1250    3.0750 C.3   141  LEU141      0.1728
     48  C         18.2260   40.0550    2.4550 C.2   141  LEU141      0.2616
     49  O         17.7830   39.2420    1.6220 O.2   141  LEU141     -0.2715
     50  CB        17.2070   40.9040    4.5820 C.3   141  LEU141      0.0311
     51  CG        16.0920   41.6560    5.3100 C.3   141  LEU141      0.0022
     52  CD1       15.7870   40.9850    6.6510 C.3   141  LEU141      0.0001
     53  CD2       16.3860   43.1680    5.4730 C.3   141  LEU141      0.0001
     54  N         19.5040   40.0930    2.8590 N.am  142  ASN142     -0.1958
     55  CA        20.5040   39.0440    2.5500 C.3   142  ASN142      0.1819
     56  C         19.8860   37.7200    2.8890 C.2   142  ASN142      0.2622
     57  O         19.1960   37.6090    3.9010 O.2   142  ASN142     -0.2715
     58  CB        21.7860   39.2150    3.3710 C.3   142  ASN142      0.1195
     59  CG        22.4390   40.5930    3.1730 C.2   142  ASN142      0.2630
     60  OD1       22.3570   41.2020    2.0780 O.2   142  ASN142     -0.2716
     61  ND2       23.0950   41.0940    4.2360 N.am  142  ASN142     -0.0877
     62  N         20.1180   36.7410    2.0220 N.am  143  GLY143     -0.1940
     63  CA        19.4760   35.4460    2.1370 C.3   143  GLY143      0.2014
     64  C         18.2410   35.2980    1.2860 C.2   143  GLY143      0.2640
     65  O         17.7530   34.1970    1.1320 O.2   143  GLY143     -0.2714
     66  N         17.7500   36.4040    0.7200 N.am  144  SER144     -0.1935
     67  CA        16.4960   36.4130   -0.0580 C.3   144  SER144      0.2055
     68  C         16.6800   35.9110   -1.4980 C.2   144  SER144      0.2643
     69  O         15.6980   35.4990   -2.1690 O.2   144  SER144     -0.2714
     70  CB        15.8280   37.8000   -0.0370 C.3   144  SER144      0.2130
     71  OG        16.6160   38.8050   -0.6710 O.3   144  SER144     -0.2179
     72  N         17.9300   35.9420   -1.9710 N.am  145  CYS145     -0.1967
     73  CA        18.2410   35.4500   -3.3150 C.3   145  CYS145      0.1712
     74  C         17.6200   34.0890   -3.5680 C.2   145  CYS145      0.2296
     75  O         17.5400   33.2440   -2.6580 O.2   145  CYS145     -0.2864
     76  CB        19.7280   35.4450   -3.5740 C.3   145  CYS145      0.0983
     77  SG        20.3240   37.1250   -3.5440 S.3   145  CYS145     -0.0798
     78  N         14.9890   36.3530   -7.7880 N.3   163  HIS163     -0.1226
     79  CA        15.7280   37.4680   -7.2060 C.3   163  HIS163      0.1752
     80  C         17.2160   37.1490   -7.1010 C.2   163  HIS163      0.2596
     81  O         17.5810   36.0300   -6.6750 O.2   163  HIS163     -0.2718
     82  CB        15.1710   37.8190   -5.8450 C.3   163  HIS163      0.0759
     83  CG        15.8940   38.9450   -5.1850 C.ar  163  HIS163      0.0818
     84  ND1       16.0460   40.1740   -5.7830 N.ar  163  HIS163     -0.2268
     85  CD2       16.5030   39.0380   -3.9780 C.ar  163  HIS163      0.1154
     86  CE1       16.7410   40.9710   -4.9860 C.ar  163  HIS163      0.1986
     87  NE2       17.0300   40.3080   -3.8840 N.ar  163  HIS163     -0.2212
     88  N         18.0430   38.1380   -7.4850 N.am  164  HIS164     -0.1961
     89  CA        19.5110   38.0820   -7.4930 C.3   164  HIS164      0.1787
     90  C         20.1850   39.1940   -6.6940 C.2   164  HIS164      0.2620
     91  O         21.1860   38.9060   -6.0500 O.2   164  HIS164     -0.2715
     92  CB        20.0820   38.1670   -8.9010 C.3   164  HIS164      0.0785
     93  CG        19.9490   36.9130   -9.7090 C.ar  164  HIS164      0.0821
     94  ND1       18.7290   36.3650  -10.0450 N.ar  164  HIS164     -0.2267
     95  CD2       20.8800   36.1470  -10.3200 C.ar  164  HIS164      0.1154
     96  CE1       18.9210   35.2900  -10.7930 C.ar  164  HIS164      0.1986
     97  NE2       20.2200   35.1380  -10.9750 N.ar  164  HIS164     -0.2212
     98  N         19.6950   40.4470   -6.7230 N.am  165  MET165     -0.1963
     99  CA        20.4700   41.5280   -6.0900 C.3   165  MET165      0.1736
    100  C         19.7960   42.8600   -5.7110 C.2   165  MET165      0.2616
    101  O         18.7370   43.2100   -6.2160 O.2   165  MET165     -0.2715
    102  CB        21.6950   41.8130   -6.9280 C.3   165  MET165      0.0427
    103  CG        21.3960   42.5700   -8.1740 C.3   165  MET165      0.0599
    104  SD        22.7120   42.3610   -9.3810 S.3   165  MET165     -0.1393
    105  CE        23.8200   43.7090   -8.9090 C.3   165  MET165      0.0692
    106  N         20.4230   43.5990   -4.8060 N.am  166  GLU166     -0.1963
    107  CA        19.9000   44.8870   -4.3940 C.3   166  GLU166      0.1733
    108  C         20.8050   46.0240   -4.8600 C.2   166  GLU166      0.2616
    109  O         21.9950   46.0670   -4.5220 O.2   166  GLU166     -0.2715
    110  CB        19.7070   44.9410   -2.8780 C.3   166  GLU166      0.0429
    111  CG        19.5110   46.3450   -2.3080 C.3   166  GLU166      0.1163
    112  CD        18.8880   46.3170   -0.9080 C.2   166  GLU166      0.3649
    113  OE1       17.9080   45.5690   -0.7020 O.co2 166  GLU166     -0.2457
    114  OE2       19.3600   47.0460   -0.0070 O.co2 166  GLU166     -0.2457
    115  N         20.2210   46.9390   -5.6330 N.am  167  LEU167     -0.1964
    116  CA        20.9470   48.0460   -6.2080 C.3   167  LEU167      0.1713
    117  C         21.2330   49.0840   -5.1340 C.2   167  LEU167      0.2458
    118  O         20.5960   49.0620   -4.0750 O.2   167  LEU167     -0.2730
    119  CB        20.1160   48.6450   -7.3220 C.3   167  LEU167      0.0310
    120  CG        20.1200   47.6920   -8.5010 C.3   167  LEU167      0.0022
    121  CD1       19.1830   48.1350   -9.5750 C.3   167  LEU167      0.0001
    122  CD2       21.5530   47.4980   -9.0450 C.3   167  LEU167      0.0001
    123  N         22.1510   50.0320   -5.4130 N.am  168  PRO168     -0.2727
    124  CA        22.5130   51.0210   -4.3970 C.3   168  PRO168      0.1402
    125  C         21.3350   51.8670   -3.9320 C.2   168  PRO168      0.2269
    126  O         21.3490   52.3660   -2.7950 O.2   168  PRO168     -0.2865
    127  CB        23.5460   51.9130   -5.1010 C.3   168  PRO168      0.0296
    128  CG        23.9950   51.1780   -6.3180 C.3   168  PRO168      0.0237
    129  CD        22.8110   50.3000   -6.7120 C.3   168  PRO168      0.0939
    130  N         15.4660   46.2350   -6.2760 N.3   172  HIS172     -0.1241
    131  CA        15.9630   44.9090   -6.5780 C.3   172  HIS172      0.1621
    132  C         16.0310   44.5680   -8.0560 C.2   172  HIS172      0.2264
    133  O         15.3600   45.1900   -8.8790 O.2   172  HIS172     -0.2867
    134  CB        15.1860   43.9350   -5.7250 C.3   172  HIS172      0.0745
    135  CG        14.9110   44.4860   -4.3600 C.ar  172  HIS172      0.0817
    136  ND1       15.8580   44.5050   -3.3560 N.ar  172  HIS172     -0.2268
    137  CD2       13.8230   45.1260   -3.8610 C.ar  172  HIS172      0.1154
    138  CE1       15.3460   45.0810   -2.2810 C.ar  172  HIS172      0.1986
    139  NE2       14.1080   45.4620   -2.5580 N.ar  172  HIS172     -0.2212
    140  N         25.2870   40.1280  -12.6960 N.3   187  ASP187     -0.1225
    141  CA        25.6170   39.5900  -11.3560 C.3   187  ASP187      0.1805
    142  C         27.1110   39.6460  -11.0510 C.2   187  ASP187      0.2598
    143  O         27.7240   38.6480  -10.7060 O.2   187  ASP187     -0.2718
    144  CB        25.0340   38.1770  -11.1160 C.3   187  ASP187      0.1424
    145  CG        25.2970   37.2300  -12.2530 C.2   187  ASP187      0.3668
    146  OD1       24.6790   36.1590  -12.2960 O.co2 187  ASP187     -0.2456
    147  OD2       26.1080   37.5590  -13.1320 O.co2 187  ASP187     -0.2456
    148  N         27.6780   40.8310  -11.2380 N.am  188  ARG188     -0.1966
    149  CA        29.0430   41.1800  -10.8910 C.3   188  ARG188      0.1729
    150  C         28.8830   42.1810   -9.7350 C.2   188  ARG188      0.2616
    151  O         27.7810   42.3560   -9.2250 O.2   188  ARG188     -0.2715
    152  CB        29.7490   41.8190  -12.1050 C.3   188  ARG188      0.0348
    153  CG        30.2080   40.8430  -13.2400 C.3   188  ARG188      0.0492
    154  CD        30.1220   41.4560  -14.6880 C.3   188  ARG188      0.2205
    155  NE        31.0970   42.5380  -14.9220 N.pl3 188  ARG188     -0.0865
    156  CZ        31.0270   43.4990  -15.8640 C.cat 188  ARG188      0.5346
    157  NH1       30.0090   43.5900  -16.7260 N.pl3 188  ARG188      0.1354
    158  NH2       32.0000   44.4070  -15.9400 N.pl3 188  ARG188      0.1354
    159  N         29.9500   42.8340   -9.2990 N.am  189  GLN189     -0.1963
    160  CA        29.8150   43.8340   -8.2300 C.3   189  GLN189      0.1733
    161  C         30.5670   45.0720   -8.6450 C.2   189  GLN189      0.2617
    162  O         31.7510   45.2210   -8.3640 O.2   189  GLN189     -0.2715
    163  CB        30.3200   43.3220   -6.8780 C.3   189  GLN189      0.0408
    164  CG        29.8710   44.1710   -5.6910 C.3   189  GLN189      0.0908
    165  CD        30.9310   44.2670   -4.5930 C.2   189  GLN189      0.2608
    166  OE1       31.1770   43.3040   -3.8540 O.2   189  GLN189     -0.2717
    167  NE2       31.5560   45.4420   -4.4760 N.am  189  GLN189     -0.0878
    168  N         29.8570   45.9320   -9.3660 N.am  190  THR190     -0.1937
    169  CA        30.4380   47.0980   -9.9660 C.3   190  THR190      0.2028
    170  C         29.5680   48.2750   -9.5920 C.2   190  THR190      0.2642
    171  O         28.5670   48.1170   -8.8960 O.2   190  THR190     -0.2714
    172  CB        30.4380   47.0160  -11.4980 C.3   190  THR190      0.1808
    173  OG1       29.2820   47.7170  -12.0020 O.3   190  THR190     -0.2208
    174  CG2       30.4440   45.5780  -11.9830 C.3   190  THR190      0.0379
    175  N         29.9720   49.4510  -10.0700 N.am  191  ALA191     -0.1963
    176  CA        29.1800   50.6710   -9.9880 C.3   191  ALA191      0.1728
    177  C         28.0130   50.6300  -11.0090 C.2   191  ALA191      0.2616
    178  O         28.0940   51.1980  -12.1180 O.2   191  ALA191     -0.2715
    179  CB        30.0870   51.9420  -10.1830 C.3   191  ALA191      0.0334
    180  N         26.9460   49.9370  -10.6090 N.am  192  GLN192     -0.1977
    181  CA        25.6880   49.8730  -11.3430 C.3   192  GLN192      0.1601
    182  C         24.6440   50.7370  -10.6660 C.2   192  GLN192      0.2287
    183  O         24.5930   50.8170   -9.4370 O.2   192  GLN192     -0.2864
    184  CB        25.1510   48.4660  -11.3130 C.3   192  GLN192      0.0394
    185  CG        25.3770   47.6860  -12.5380 C.3   192  GLN192      0.0908
    186  CD        25.2460   46.2320  -12.2170 C.2   192  GLN192      0.2608
    187  OE1       25.5720   45.8180  -11.1080 O.2   192  GLN192     -0.2717
    188  NE2       24.7550   45.4420  -13.1680 N.am  192  GLN192     -0.0878
@<TRIPOS>BOND
     1   157   156    1
     2   158   156    1
     3   156   155    2
     4   155   154    1
     5   154   153    1
     6   153   152    1
     7   188   186   am
     8   147   145   ar
     9   140   141    1
    10   185   186    1
    11   185   184    1
    12   146   145   ar
    13   145   144    1
    14   186   187    2
    15   178   177    2
    16   152   149    1
    17   173   172    1
    18   174   172    1
    19   172   169    1
    20   141   144    1
    21   141   142    1
    22   181   184    1
    23   181   182    1
    24   181   180    1
    25   148   142   am
    26   148   149    1
    27   142   143    2
    28   177   180   am
    29   177   176    1
    30    97    96   ar
    31    97    95   ar
    32   149   150    1
    33    96    94   ar
    34   182   183    2
    35    30    29    2
    36    95    93   ar
    37   179   176    1
    38   175   176    1
    39   175   170   am
    40    94    93   ar
    41   169   170    1
    42   169   168    1
    43   150   159   am
    44   150   151    2
    45    93    92    1
    46   170   171    2
    47   121   120    1
    48    29    28    1
    49   104   105    1
    50   104   103    1
    51   168   161   am
    52   159   160    1
    53   122   120    1
    54     9    10    1
    55    92    89    1
    56   133   132    2
    57   161   162    2
    58   161   160    1
    59    33    32    1
    60   120   119    1
    61    22    21    2
    62    32    34    1
    63    32    31    1
    64   160   163    1
    65   103   102    1
    66   132   131    1
    67    28    31    1
    68    28    27    1
    69    10    13    1
    70    10    11    1
    71    13    14    1
    72    78    79    1
    73    89    88    1
    74    89    90    1
    75    88    80   am
    76    21    27   am
    77    21    20    1
    78   119   116    1
    79    15    14   ar
    80    15    17   ar
    81    79    80    1
    82    79    82    1
    83    26    25    1
    84    80    81    2
    85   102    99    1
    86    14    16   ar
    87   163   164    1
    88    98    90   am
    89    98    99    1
    90   129   128    1
    91   129   123    1
    92    90    91    2
    93    25    24    1
    94    11    12    2
    95    20    19    1
    96    20    23    1
    97   131   130    1
    98   131   134    1
    99   128   127    1
   100    17    18   ar
   101   101   100    2
   102   116   115    1
   103   116   117    1
   104    99   100    1
   105    82    83    1
   106    84    83   ar
   107    84    86   ar
   108   134   135    1
   109   100   106   am
   110   164   165    1
   111   115   108   am
   112    16    18   ar
   113   123   117   am
   114   123   124    1
   115    23    24    1
   116    83    85   ar
   117   117   118    2
   118   127   124    1
   119    86    87   ar
   120   108   109    2
   121   108   107    1
   122   106   107    1
   123   165   167   am
   124   165   166    2
   125   124   125    1
   126   107   110    1
   127   135   137   ar
   128   135   136   ar
   129     8     6    1
   130    85    87   ar
   131     7     6    1
   132    44    45   ar
   133    44    42   ar
   134    45    43   ar
   135   125   126    2
   136   137   139   ar
   137    76    77    1
   138    76    73    1
   139    74    73    1
   140    74    75    2
   141   136   138   ar
   142    73    72    1
   143     6     5    1
   144    43    41   ar
   145   110   111    1
   146    42    40   ar
   147   139   138   ar
   148   111   112    1
   149    69    68    2
   150     5     2    1
   151    72    68   am
   152    41    40   ar
   153    40    39    1
   154     4     3    2
   155    68    67    1
   156     3     2    1
   157     2     1    1
   158   112   113   ar
   159   112   114   ar
   160    39    36    1
   161    71    70    1
   162    67    70    1
   163    67    66    1
   164    35    36    1
   165    36    37    1
   166    66    64   am
   167    65    64    2
   168    64    63    1
   169    38    37    2
   170    37    46   am
   171    49    48    2
   172    62    63    1
   173    62    56   am
   174    60    59    2
   175    46    47    1
   176    48    54   am
   177    48    47    1
   178    55    54    1
   179    55    56    1
   180    55    58    1
   181    56    57    2
   182    47    50    1
   183    59    58    1
   184    59    61   am
   185    50    51    1
   186    51    53    1
   187    51    52    1
