@<TRIPOS>MOLECULE
tmp/3sndA00.pdb
 162 159 0 0 0
SMALL
GASTEIGER

@<TRIPOS>ATOM
      1  N        -13.7990  -20.8270   11.8470 N.3    27  LEU27      -0.1245
      2  CA       -14.0020  -20.7610   10.4120 C.3    27  LEU27       0.1561
      3  C        -14.0770  -19.2870   10.0370 C.2    27  LEU27       0.2260
      4  O        -13.8810  -18.3910   10.8880 O.2    27  LEU27      -0.2867
      5  CB       -15.2350  -21.6040    9.9550 C.3    27  LEU27       0.0270
      6  CG       -16.5590  -21.6020   10.7800 C.3    27  LEU27       0.0019
      7  CD1      -17.1010  -20.2600   11.0270 C.3    27  LEU27       0.0001
      8  CD2      -17.6850  -22.4620   10.1730 C.3    27  LEU27       0.0001
      9  N        -22.9250  -24.2300   11.3330 N.3    41  HIS41      -0.1241
     10  CA       -22.2580  -25.3790   11.8880 C.3    41  HIS41       0.1621
     11  C        -21.0270  -25.0980   12.7700 C.2    41  HIS41       0.2264
     12  O        -20.4160  -25.9850   13.2570 O.2    41  HIS41      -0.2867
     13  CB       -21.9980  -26.4560   10.8580 C.3    41  HIS41       0.0745
     14  CG       -20.8260  -26.2210    9.9780 C.ar   41  HIS41       0.0817
     15  ND1      -20.9380  -26.1070    8.6190 N.ar   41  HIS41      -0.2268
     16  CD2      -19.5110  -26.1730   10.2450 C.ar   41  HIS41       0.1154
     17  CE1      -19.7450  -25.9580    8.0930 C.ar   41  HIS41       0.1986
     18  NE2      -18.8650  -25.9740    9.0600 N.ar   41  HIS41      -0.2212
     19  N        -21.4050  -26.6200   16.2140 N.3    44  CYS44      -0.1235
     20  CA       -21.5030  -28.0670   16.3950 C.3    44  CYS44       0.1677
     21  C        -20.3590  -28.6520   17.2240 C.2    44  CYS44       0.2270
     22  O        -19.1930  -28.3180   17.0160 O.2    44  CYS44      -0.2867
     23  CB       -21.5750  -28.7700   15.0370 C.3    44  CYS44       0.0956
     24  SG       -23.0970  -28.4560   14.1140 S.3    44  CYS44      -0.0801
     25  N        -22.0530  -33.3730   15.1190 N.3    49  MET49      -0.1245
     26  CA       -21.8210  -33.5480   13.6770 C.3    49  MET49       0.1570
     27  C        -22.8590  -34.4190   12.9380 C.2    49  MET49       0.2261
     28  O        -23.3000  -34.0720   11.8460 O.2    49  MET49      -0.2867
     29  CB       -20.4050  -34.0990   13.4490 C.3    49  MET49       0.0387
     30  CG       -19.3780  -33.0310   13.0500 C.3    49  MET49       0.0595
     31  SD       -18.5830  -32.1620   14.4220 S.3    49  MET49      -0.1393
     32  CE       -17.6720  -30.8860   13.5160 C.3    49  MET49       0.0692
     33  N        -30.1510  -27.6380   15.5390 N.3    54  TYR54      -0.1241
     34  CA       -29.4480  -26.3830   15.6120 C.3    54  TYR54       0.1605
     35  C        -30.1980  -25.4150   16.5120 C.2    54  TYR54       0.2264
     36  O        -29.5450  -24.6740   17.2320 O.2    54  TYR54      -0.2867
     37  CB       -29.1850  -25.8000   14.2080 C.3    54  TYR54       0.0534
     38  CG       -28.0210  -26.4520   13.5020 C.ar   54  TYR54      -0.0201
     39  CD1      -26.6990  -26.1380   13.8370 C.ar   54  TYR54      -0.0009
     40  CD2      -28.2340  -27.4160   12.5030 C.ar   54  TYR54      -0.0009
     41  CE1      -25.6450  -26.7360   13.1690 C.ar   54  TYR54       0.0417
     42  CE2      -27.1660  -28.0340   11.8350 C.ar   54  TYR54       0.0417
     43  CZ       -25.8770  -27.6770   12.1600 C.ar   54  TYR54       0.1957
     44  OH       -24.8070  -28.3010   11.5250 O.3    54  TYR54      -0.2866
     45  N        -10.7360  -26.3180   -1.8450 N.3   140  PHE140     -0.1227
     46  CA       -10.9600  -25.9190   -0.4420 C.3   140  PHE140      0.1736
     47  C        -10.2660  -26.9540    0.5150 C.2   140  PHE140      0.2595
     48  O        -10.3590  -28.1610    0.2720 O.2   140  PHE140     -0.2718
     49  CB       -12.4500  -25.9040   -0.1160 C.3   140  PHE140      0.0547
     50  CG       -13.2640  -24.7600   -0.7390 C.ar  140  PHE140     -0.0202
     51  CD1      -13.0940  -23.4290   -0.3300 C.ar  140  PHE140     -0.0042
     52  CD2      -14.2970  -25.0380   -1.6550 C.ar  140  PHE140     -0.0042
     53  CE1      -13.9150  -22.3920   -0.8910 C.ar  140  PHE140     -0.0003
     54  CE2      -15.0860  -24.0250   -2.2140 C.ar  140  PHE140     -0.0003
     55  CZ       -14.9140  -22.7080   -1.8180 C.ar  140  PHE140     -0.0000
     56  N         -9.5830  -26.4840    1.5600 N.am  141  LEU141     -0.1966
     57  CA        -9.0050  -27.3790    2.6020 C.3   141  LEU141      0.1728
     58  C         -9.8320  -27.2580    3.8990 C.2   141  LEU141      0.2616
     59  O        -10.7210  -26.3860    3.9830 O.2   141  LEU141     -0.2715
     60  CB        -7.5300  -27.0310    2.8530 C.3   141  LEU141      0.0311
     61  CG        -6.6090  -26.9720    1.6140 C.3   141  LEU141      0.0022
     62  CD1       -5.2480  -26.4040    1.9390 C.3   141  LEU141      0.0001
     63  CD2       -6.4450  -28.3700    0.9610 C.3   141  LEU141      0.0001
     64  N         -9.5480  -28.0840    4.9130 N.am  142  ASN142     -0.1958
     65  CA       -10.1990  -27.9290    6.2540 C.3   142  ASN142      0.1819
     66  C        -10.0680  -26.4730    6.7260 C.2   142  ASN142      0.2622
     67  O         -9.0180  -25.8550    6.4920 O.2   142  ASN142     -0.2715
     68  CB        -9.6020  -28.8980    7.3230 C.3   142  ASN142      0.1195
     69  CG       -10.1050  -30.3760    7.1740 C.2   142  ASN142      0.2630
     70  OD1      -10.6930  -30.7630    6.1470 O.2   142  ASN142     -0.2716
     71  ND2       -9.8850  -31.1840    8.2170 N.am  142  ASN142     -0.0877
     72  N        -11.1100  -25.9090    7.3460 N.am  143  GLY143     -0.1940
     73  CA       -11.0900  -24.4750    7.7670 C.3   143  GLY143      0.2014
     74  C        -11.4390  -23.4190    6.6750 C.2   143  GLY143      0.2640
     75  O        -11.5670  -22.2190    6.9710 O.2   143  GLY143     -0.2714
     76  N        -11.5950  -23.8370    5.4130 N.am  144  SER144     -0.1935
     77  CA       -12.0730  -22.8880    4.4020 C.3   144  SER144      0.2055
     78  C        -13.5810  -22.4710    4.5000 C.2   144  SER144      0.2643
     79  O        -14.0330  -21.5490    3.7770 O.2   144  SER144     -0.2714
     80  CB       -11.8120  -23.3910    2.9910 C.3   144  SER144      0.2130
     81  OG       -12.5150  -24.6310    2.7960 O.3   144  SER144     -0.2179
     82  N        -14.3480  -23.1190    5.3910 N.am  145  CYS145     -0.1967
     83  CA       -15.7620  -22.8020    5.5330 C.3   145  CYS145      0.1712
     84  C        -15.9940  -21.3530    5.8180 C.2   145  CYS145      0.2296
     85  O        -15.1850  -20.7160    6.5080 O.2   145  CYS145     -0.2864
     86  CB       -16.4190  -23.6540    6.6270 C.3   145  CYS145      0.0983
     87  SG       -16.6040  -25.3240    6.0850 S.3   145  CYS145     -0.0798
     88  N        -19.3280  -21.0810    1.5270 N.3   163  HIS163     -0.1226
     89  CA       -18.8990  -22.4710    1.5890 C.3   163  HIS163      0.1752
     90  C        -19.2560  -23.1540    2.9120 C.2   163  HIS163      0.2596
     91  O        -18.9130  -22.6890    3.9820 O.2   163  HIS163     -0.2718
     92  CB       -17.3880  -22.5900    1.3150 C.3   163  HIS163      0.0759
     93  CG       -16.9100  -24.0100    1.2370 C.ar  163  HIS163      0.0818
     94  ND1      -17.4840  -24.9470    0.3900 N.ar  163  HIS163     -0.2268
     95  CD2      -15.9530  -24.6610    1.9290 C.ar  163  HIS163      0.1154
     96  CE1      -16.8930  -26.1130    0.5640 C.ar  163  HIS163      0.1986
     97  NE2      -15.9370  -25.9580    1.4770 N.ar  163  HIS163     -0.2212
     98  N        -19.9310  -24.2900    2.8340 N.am  164  HIS164     -0.1961
     99  CA       -20.2160  -25.0460    4.0300 C.3   164  HIS164      0.1787
    100  C        -19.5220  -26.3970    4.1160 C.2   164  HIS164      0.2620
    101  O        -19.1520  -26.7850    5.2180 O.2   164  HIS164     -0.2715
    102  CB       -21.7170  -25.2980    4.1620 C.3   164  HIS164      0.0785
    103  CG       -22.5080  -24.1320    4.6650 C.ar  164  HIS164      0.0821
    104  ND1      -22.7070  -22.9770    3.9280 N.ar  164  HIS164     -0.2267
    105  CD2      -23.2260  -23.9780    5.8020 C.ar  164  HIS164      0.1154
    106  CE1      -23.4930  -22.1620    4.6080 C.ar  164  HIS164      0.1986
    107  NE2      -23.8350  -22.7500    5.7300 N.ar  164  HIS164     -0.2212
    108  N        -19.4320  -27.1650    3.0210 N.am  165  MET165     -0.1963
    109  CA       -18.9590  -28.5790    3.1360 C.3   165  MET165      0.1736
    110  C        -18.3830  -29.2110    1.9010 C.2   165  MET165      0.2616
    111  O        -18.5040  -28.6900    0.7900 O.2   165  MET165     -0.2715
    112  CB       -20.0760  -29.5020    3.7020 C.3   165  MET165      0.0427
    113  CG       -21.2390  -29.6790    2.7920 C.3   165  MET165      0.0599
    114  SD       -22.6600  -30.5540    3.5420 S.3   165  MET165     -0.1393
    115  CE       -21.9670  -32.1520    3.9860 C.3   165  MET165      0.0692
    116  N        -17.7680  -30.3850    2.0880 N.am  166  GLU166     -0.1977
    117  CA       -17.2000  -31.1250    0.9660 C.3   166  GLU166      0.1602
    118  C        -17.8470  -32.5060    0.8770 C.2   166  GLU166      0.2287
    119  O        -18.0760  -33.1410    1.8790 O.2   166  GLU166     -0.2864
    120  CB       -15.6870  -31.2970    1.1840 C.3   166  GLU166      0.0415
    121  CG       -14.9630  -31.8350   -0.0690 C.3   166  GLU166      0.1163
    122  CD       -13.4420  -31.9210    0.0920 C.2   166  GLU166      0.3649
    123  OE1      -12.7960  -30.8340    0.1570 O.co2 166  GLU166     -0.2457
    124  OE2      -12.9160  -33.0790    0.1600 O.co2 166  GLU166     -0.2457
    125  N        -17.7820  -29.5430   -3.8180 N.3   172  HIS172     -0.1241
    126  CA       -18.1640  -28.6820   -2.7200 C.3   172  HIS172      0.1621
    127  C        -19.6110  -28.2210   -2.7720 C.2   172  HIS172      0.2264
    128  O        -20.2090  -28.0800   -3.8750 O.2   172  HIS172     -0.2867
    129  CB       -17.1840  -27.5230   -2.7250 C.3   172  HIS172      0.0745
    130  CG       -15.7790  -27.9920   -2.5500 C.ar  172  HIS172      0.0817
    131  ND1      -14.8890  -28.0940   -3.5990 N.ar  172  HIS172     -0.2268
    132  CD2      -15.1550  -28.5290   -1.4700 C.ar  172  HIS172      0.1154
    133  CE1      -13.7500  -28.5950   -3.1610 C.ar  172  HIS172      0.1986
    134  NE2      -13.8870  -28.8810   -1.8740 N.ar  172  HIS172     -0.2212
    135  N        -26.5710  -29.4390    6.3060 N.3   187  ASP187     -0.1225
    136  CA       -25.3270  -29.2520    7.0450 C.3   187  ASP187      0.1805
    137  C        -25.2030  -30.2160    8.2420 C.2   187  ASP187      0.2598
    138  O        -25.2920  -29.7910    9.4050 O.2   187  ASP187     -0.2718
    139  CB       -25.1280  -27.7830    7.4790 C.3   187  ASP187      0.1424
    140  CG       -26.3450  -27.1800    8.1650 C.2   187  ASP187      0.3668
    141  OD1      -27.4620  -27.7630    8.1930 O.co2 187  ASP187     -0.2456
    142  OD2      -26.2090  -26.0490    8.6610 O.co2 187  ASP187     -0.2456
    143  N        -25.0540  -31.5040    7.9300 N.am  188  ARG188     -0.1966
    144  CA       -24.6800  -32.5490    8.8790 C.3   188  ARG188      0.1729
    145  C        -23.8810  -33.6270    8.1540 C.2   188  ARG188      0.2616
    146  O        -24.0040  -33.7820    6.9200 O.2   188  ARG188     -0.2715
    147  CB       -25.8780  -33.1650    9.6140 C.3   188  ARG188      0.0348
    148  CG       -27.0670  -33.5420    8.7820 C.3   188  ARG188      0.0492
    149  CD       -28.2840  -33.8180    9.6930 C.3   188  ARG188      0.2205
    150  NE       -29.5260  -33.4170    9.0360 N.pl3 188  ARG188     -0.0865
    151  CZ       -30.3360  -34.2490    8.3920 C.cat 188  ARG188      0.5346
    152  NH1      -30.0410  -35.5480    8.3340 N.pl3 188  ARG188      0.1354
    153  NH2      -31.4420  -33.7820    7.8020 N.pl3 188  ARG188      0.1354
    154  N        -23.0460  -34.3570    8.9110 N.am  189  GLN189     -0.1977
    155  CA       -22.2200  -35.4230    8.3350 C.3   189  GLN189      0.1601
    156  C        -23.0630  -36.6500    8.1200 C.2   189  GLN189      0.2287
    157  O        -23.1650  -37.4590    9.0330 O.2   189  GLN189     -0.2864
    158  CB       -21.0740  -35.7850    9.2820 C.3   189  GLN189      0.0394
    159  CG       -19.8170  -34.9880    9.0130 C.3   189  GLN189      0.0908
    160  CD       -18.7680  -35.1340   10.1150 C.2   189  GLN189      0.2608
    161  OE1      -18.7650  -36.1130   10.8970 O.2   189  GLN189     -0.2717
    162  NE2      -17.8740  -34.1430   10.1910 N.am  189  GLN189     -0.0878
@<TRIPOS>BOND
     1   128   127    2
     2   125   126    1
     3   131   133   ar
     4   131   130   ar
     5   133   134   ar
     6   127   126    1
     7   129   126    1
     8   129   130    1
     9   130   132   ar
    10    54    55   ar
    11    54    52   ar
    12   134   132   ar
    13    45    46    1
    14    55    53   ar
    15    52    50   ar
    16    53    51   ar
    17    50    51   ar
    18    50    49    1
    19    46    49    1
    20    46    47    1
    21   121   122    1
    22   121   120    1
    23   122   123   ar
    24   122   124   ar
    25    48    47    2
    26    94    96   ar
    27    94    93   ar
    28    47    56   am
    29    96    97   ar
    30   111   110    2
    31   118   117    1
    32   118   119    2
    33    63    61    1
    34   117   120    1
    35   117   116    1
    36    93    92    1
    37    93    95   ar
    38    92    89    1
    39    97    95   ar
    40    88    89    1
    41    56    57    1
    42    89    90    1
    43    61    62    1
    44    61    60    1
    45   110   116   am
    46   110   109    1
    47    57    60    1
    48    57    58    1
    49   113   114    1
    50   113   112    1
    51    81    80    1
    52    98    90   am
    53    98    99    1
    54    90    91    2
    55    80    77    1
    56   108   109    1
    57   108   100   am
    58   109   112    1
    59   114   115    1
    60    79    78    2
    61    58    59    2
    62    58    64   am
    63   104   106   ar
    64   104   103   ar
    65    99   100    1
    66    99   102    1
    67   100   101    2
    68   102   103    1
    69    77    78    1
    70    77    76    1
    71    78    82   am
    72   106   107   ar
    73   103   105   ar
    74    64    65    1
    75    82    83    1
    76    76    74   am
    77    83    84    1
    78    83    86    1
    79   107   105   ar
    80    84    85    2
    81    87    86    1
    82    70    69    2
    83    65    66    1
    84    65    68    1
    85   135   136    1
    86    67    66    2
    87    74    75    2
    88    74    73    1
    89    66    72   am
    90   146   145    2
    91   136   139    1
    92   136   137    1
    93    69    68    1
    94    69    71   am
    95    72    73    1
    96   139   140    1
    97   153   151    1
    98   143   137   am
    99   143   144    1
   100    17    15   ar
   101    17    18   ar
   102   156   155    1
   103   156   157    2
   104   145   144    1
   105   145   154   am
   106   140   141   ar
   107   140   142   ar
   108   137   138    2
   109   152   151    1
   110   155   154    1
   111   155   158    1
   112   151   150    2
   113    15    14   ar
   114   148   147    1
   115   148   149    1
   116   144   147    1
   117   159   158    1
   118   159   160    1
   119   150   149    1
   120    18    16   ar
   121     5     2    1
   122     5     6    1
   123    14    16   ar
   124    14    13    1
   125     3     2    1
   126     3     4    2
   127   160   162   am
   128   160   161    2
   129     8     6    1
   130     2     1    1
   131     6     7    1
   132    13    10    1
   133     9    10    1
   134    44    43    1
   135    42    43   ar
   136    42    40   ar
   137    28    27    2
   138    10    11    1
   139    43    41   ar
   140    40    38   ar
   141    11    12    2
   142    27    26    1
   143    30    29    1
   144    30    31    1
   145    41    39   ar
   146    29    26    1
   147    38    39   ar
   148    38    37    1
   149    32    31    1
   150    26    25    1
   151    24    23    1
   152    37    34    1
   153    23    20    1
   154    33    34    1
   155    34    35    1
   156    19    20    1
   157    20    21    1
   158    35    36    2
   159    22    21    2
