@<TRIPOS>MOLECULE
tmp/3sndA01.pdb
 94 91 0 0 0
SMALL
GASTEIGER

@<TRIPOS>ATOM
      1  N        -28.1550  -19.1440  -10.5470 N.3   107  GLN107     -0.1231
      2  CA       -28.6860  -20.2710  -11.2270 C.3   107  GLN107      0.1683
      3  C        -27.4960  -21.1710  -11.5600 C.2   107  GLN107      0.2434
      4  O        -26.4120  -20.6610  -11.8880 O.2   107  GLN107     -0.2733
      5  CB       -29.3280  -19.7840  -12.5470 C.3   107  GLN107      0.0380
      6  CG       -30.7150  -19.1600  -12.3370 C.3   107  GLN107      0.0905
      7  CD       -31.6980  -20.2160  -11.8620 C.2   107  GLN107      0.2608
      8  OE1      -32.0160  -20.3170  -10.6500 O.2   107  GLN107     -0.2717
      9  NE2      -32.1180  -21.0760  -12.7890 N.am  107  GLN107     -0.0878
     10  N        -27.7220  -22.4860  -11.5580 N.am  108  PRO108     -0.2718
     11  CA       -26.6890  -23.3710  -12.0680 C.3   108  PRO108      0.1535
     12  C        -26.2320  -22.9650  -13.4910 C.2   108  PRO108      0.2599
     13  O        -27.0650  -22.5310  -14.3000 O.2   108  PRO108     -0.2715
     14  CB       -27.4020  -24.7250  -12.1590 C.3   108  PRO108      0.0310
     15  CG       -28.4450  -24.6370  -10.9020 C.3   108  PRO108      0.0237
     16  CD       -28.9390  -23.2280  -11.0860 C.3   108  PRO108      0.0939
     17  N        -24.9590  -23.1980  -13.7860 N.am  109  GLY109     -0.1941
     18  CA       -24.3040  -22.7210  -15.0460 C.3   109  GLY109      0.2014
     19  C        -23.7070  -21.3040  -14.9820 C.2   109  GLY109      0.2638
     20  O        -22.8320  -20.8960  -15.8070 O.2   109  GLY109     -0.2714
     21  N        -24.1300  -20.5350  -13.9870 N.am  110  GLN110     -0.1977
     22  CA       -23.5170  -19.2190  -13.7650 C.3   110  GLN110      0.1601
     23  C        -22.1360  -19.3190  -13.0830 C.2   110  GLN110      0.2287
     24  O        -21.8460  -20.2610  -12.3510 O.2   110  GLN110     -0.2864
     25  CB       -24.4710  -18.2320  -13.0370 C.3   110  GLN110      0.0394
     26  CG       -23.7740  -17.0120  -12.2890 C.3   110  GLN110      0.0908
     27  CD       -23.3670  -15.6870  -13.1040 C.2   110  GLN110      0.2608
     28  OE1      -22.7740  -15.7280  -14.1570 O.2   110  GLN110     -0.2717
     29  NE2      -23.6220  -14.5200  -12.4810 N.am  110  GLN110     -0.0878
     30  N        -24.4450  -27.7530  -13.1220 N.3   132  PRO132     -0.2116
     31  CA       -25.9460  -27.9260  -13.2050 C.3   132  PRO132      0.1372
     32  C        -26.5180  -28.6630  -11.9670 C.2   132  PRO132      0.2244
     33  O        -27.6820  -28.4490  -11.5610 O.2   132  PRO132     -0.2868
     34  CB       -26.1080  -28.7590  -14.4850 C.3   132  PRO132      0.0268
     35  CG       -25.0600  -28.1590  -15.4150 C.3   132  PRO132      0.0207
     36  CD       -23.7800  -28.0280  -14.4280 C.3   132  PRO132      0.0892
     37  N        -22.3700  -27.7830  -19.3220 N.3   200  ILE200     -0.1231
     38  CA       -23.1250  -26.5360  -19.5320 C.3   200  ILE200      0.1692
     39  C        -23.0280  -26.1050  -20.9990 C.2   200  ILE200      0.2593
     40  O        -22.1150  -25.3640  -21.4500 O.2   200  ILE200     -0.2718
     41  CB       -22.7050  -25.4150  -18.5650 C.3   200  ILE200      0.0266
     42  CG1      -22.5990  -25.9620  -17.1150 C.3   200  ILE200      0.0019
     43  CG2      -23.7210  -24.2580  -18.6580 C.3   200  ILE200      0.0020
     44  CD1      -21.6680  -25.0270  -16.2060 C.3   200  ILE200      0.0001
     45  N        -24.0090  -26.5700  -21.7620 N.am  201  THR201     -0.1939
     46  CA       -24.0430  -26.3400  -23.2230 C.3   201  THR201      0.2028
     47  C        -23.9710  -24.8760  -23.6180 C.2   201  THR201      0.2642
     48  O        -23.2920  -24.4970  -24.5980 O.2   201  THR201     -0.2714
     49  CB       -25.3550  -26.9810  -23.7930 C.3   201  THR201      0.1808
     50  OG1      -25.4740  -28.3370  -23.3250 O.3   201  THR201     -0.2208
     51  CG2      -25.4260  -26.9250  -25.3570 C.3   201  THR201      0.0379
     52  N        -24.7120  -24.0290  -22.8910 N.am  202  LEU202     -0.1963
     53  CA       -24.7330  -22.6170  -23.2370 C.3   202  LEU202      0.1728
     54  C        -23.2880  -22.0690  -23.1650 C.2   202  LEU202      0.2616
     55  O        -22.8910  -21.2010  -23.9830 O.2   202  LEU202     -0.2715
     56  CB       -25.6410  -21.8220  -22.2970 C.3   202  LEU202      0.0311
     57  CG       -25.6770  -20.3100  -22.5320 C.3   202  LEU202      0.0022
     58  CD1      -25.9940  -19.7380  -24.0180 C.3   202  LEU202      0.0001
     59  CD2      -26.6070  -19.6630  -21.4890 C.3   202  LEU202      0.0001
     60  N        -22.5550  -22.4690  -22.1260 N.am  203  ASN203     -0.1972
     61  CA       -21.2090  -21.9140  -21.9230 C.3   203  ASN203      0.1688
     62  C        -20.1890  -22.4560  -22.9510 C.2   203  ASN203      0.2292
     63  O        -19.2960  -21.7210  -23.3870 O.2   203  ASN203     -0.2864
     64  CB       -20.7280  -22.3070  -20.5150 C.3   203  ASN203      0.1181
     65  CG       -21.4550  -21.5210  -19.4130 C.2   203  ASN203      0.2629
     66  OD1      -22.3680  -20.6940  -19.6920 O.2   203  ASN203     -0.2716
     67  ND2      -21.0770  -21.7910  -18.1440 N.am  203  ASN203     -0.0877
     68  N        -26.3370  -30.5900  -21.1890 N.3   240  GLU240     -0.1245
     69  CA       -27.5930  -29.9870  -20.8010 C.3   240  GLU240      0.1567
     70  C        -28.4550  -29.6690  -22.0540 C.2   240  GLU240      0.2260
     71  O        -27.9680  -29.1090  -23.0380 O.2   240  GLU240     -0.2867
     72  CB       -27.2780  -28.6770  -20.0540 C.3   240  GLU240      0.0388
     73  CG       -28.4390  -28.0090  -19.3580 C.3   240  GLU240      0.1160
     74  CD       -29.1860  -28.8520  -18.2960 C.2   240  GLU240      0.3649
     75  OE1      -28.5980  -29.6840  -17.5940 O.co2 240  GLU240     -0.2457
     76  OE2      -30.3970  -28.6380  -18.1690 O.co2 240  GLU240     -0.2457
     77  N        -31.8150  -20.0550  -24.3140 N.3   246  HIS246     -0.1241
     78  CA       -30.3540  -20.0630  -24.3600 C.3   246  HIS246      0.1621
     79  C        -29.8550  -19.6010  -25.7270 C.2   246  HIS246      0.2264
     80  O        -28.8850  -18.8370  -25.7970 O.2   246  HIS246     -0.2867
     81  CB       -29.8080  -21.4540  -24.0470 C.3   246  HIS246      0.0745
     82  CG       -30.2540  -21.9680  -22.7140 C.ar  246  HIS246      0.0817
     83  ND1      -30.2080  -23.3000  -22.3890 N.ar  246  HIS246     -0.2268
     84  CD2      -30.7670  -21.3270  -21.6340 C.ar  246  HIS246      0.1154
     85  CE1      -30.6970  -23.4650  -21.1700 C.ar  246  HIS246      0.1986
     86  NE2      -31.0220  -22.2840  -20.6830 N.ar  246  HIS246     -0.2212
     87  N        -29.9570  -15.8080  -25.6760 N.3   249  ILE249     -0.1245
     88  CA       -28.8450  -15.2440  -24.9200 C.3   249  ILE249      0.1561
     89  C        -27.5830  -15.1140  -25.8160 C.2   249  ILE249      0.2260
     90  O        -26.7800  -14.1640  -25.6700 O.2   249  ILE249     -0.2867
     91  CB       -28.5210  -16.0760  -23.6300 C.3   249  ILE249      0.0252
     92  CG1      -29.7430  -16.0770  -22.6900 C.3   249  ILE249      0.0019
     93  CG2      -27.3080  -15.4770  -22.9160 C.3   249  ILE249      0.0019
     94  CD1      -29.6050  -16.7990  -21.3630 C.3   249  ILE249      0.0001
@<TRIPOS>BOND
     1    89    90    2
     2    89    88    1
     3    80    79    2
     4    79    78    1
     5    87    88    1
     6    51    49    1
     7    88    91    1
     8    48    47    2
     9    78    77    1
    10    78    81    1
    11    81    82    1
    12    58    57    1
    13    55    54    2
    14    49    50    1
    15    49    46    1
    16    91    93    1
    17    91    92    1
    18    47    46    1
    19    47    52   am
    20    63    62    2
    21    53    54    1
    22    53    52    1
    23    53    56    1
    24    46    45    1
    25    54    60   am
    26    71    70    2
    27    62    61    1
    28    82    83   ar
    29    82    84   ar
    30    92    94    1
    31    57    56    1
    32    57    59    1
    33    83    85   ar
    34    60    61    1
    35    70    69    1
    36    61    64    1
    37    45    39   am
    38    84    86   ar
    39    40    39    2
    40    68    69    1
    41    85    86   ar
    42    39    38    1
    43    69    72    1
    44    64    65    1
    45    72    73    1
    46    66    65    2
    47    38    37    1
    48    38    41    1
    49    65    67   am
    50    73    74    1
    51    43    41    1
    52    41    42    1
    53    74    76   ar
    54    74    75   ar
    55    42    44    1
    56    20    19    2
    57    35    34    1
    58    35    36    1
    59    18    19    1
    60    18    17    1
    61    19    21   am
    62    34    31    1
    63    36    30    1
    64    13    12    2
    65    28    27    2
    66    21    22    1
    67    17    12   am
    68    22    23    1
    69    22    25    1
    70    12    11    1
    71    31    30    1
    72    31    32    1
    73    27    29   am
    74    27    26    1
    75    23    24    2
    76    25    26    1
    77     9     7   am
    78     5     6    1
    79     5     2    1
    80     6     7    1
    81    14    11    1
    82    14    15    1
    83    11    10    1
    84    32    33    2
    85     4     3    2
    86     7     8    2
    87     3    10   am
    88     3     2    1
    89    10    16    1
    90     2     1    1
    91    16    15    1
