@<TRIPOS>MOLECULE
tmp/3sneA00.pdb
 195 194 0 0 0
SMALL
GASTEIGER

@<TRIPOS>ATOM
      1  N         24.5930   29.9760    0.8670 N.3    26  THR26      -0.1203
      2  CA        23.2980   29.3370    0.8970 C.3    26  THR26       0.1994
      3  C         22.2200   30.2710    0.3760 C.2    26  THR26       0.2617
      4  O         22.0980   31.4450    0.7850 O.2    26  THR26      -0.2717
      5  CB        22.9480   28.8720    2.3180 C.3    26  THR26       0.1784
      6  OG1       23.8350   27.7990    2.6670 O.3    26  THR26      -0.2211
      7  CG2       21.5310   28.3080    2.3870 C.3    26  THR26       0.0376
      8  N         21.4390   29.7520   -0.5480 N.am   27  LEU27      -0.1979
      9  CA        20.3190   30.4910   -1.0620 C.3    27  LEU27       0.1596
     10  C         19.2100   29.5110   -1.4250 C.2    27  LEU27       0.2287
     11  O         19.3230   28.3110   -1.1490 O.2    27  LEU27      -0.2864
     12  CB        20.7740   31.3380   -2.2140 C.3    27  LEU27       0.0297
     13  CG        21.6130   30.7060   -3.3050 C.3    27  LEU27       0.0022
     14  CD1       20.8570   29.5820   -3.9810 C.3    27  LEU27       0.0001
     15  CD2       21.9690   31.7690   -4.3090 C.3    27  LEU27       0.0001
     16  N         25.1940   32.4730   -8.9150 N.3    41  HIS41      -0.1241
     17  CA        26.1260   33.0550   -8.0180 C.3    41  HIS41       0.1621
     18  C         26.1870   32.3110   -6.6870 C.2    41  HIS41       0.2264
     19  O         26.7390   32.7750   -5.7190 O.2    41  HIS41      -0.2867
     20  CB        26.0020   34.5030   -7.8400 C.3    41  HIS41       0.0745
     21  CG        24.8680   34.8860   -6.9610 C.ar   41  HIS41       0.0817
     22  ND1       23.7180   35.4270   -7.4540 N.ar   41  HIS41      -0.2268
     23  CD2       24.7240   34.8530   -5.6250 C.ar   41  HIS41       0.1154
     24  CE1       22.8960   35.6800   -6.4650 C.ar   41  HIS41       0.1986
     25  NE2       23.4850   35.3430   -5.3440 N.ar   41  HIS41      -0.2212
     26  N         32.8730   37.3390   -5.9200 N.3    49  MET49      -0.1230
     27  CA        31.7020   38.0830   -6.3760 C.3    49  MET49       0.1702
     28  C         31.9960   39.4090   -7.0660 C.2    49  MET49       0.2592
     29  O         31.1540   39.9090   -7.7940 O.2    49  MET49      -0.2718
     30  CB        30.6830   38.2640   -5.2450 C.3    49  MET49       0.0401
     31  CG        29.7790   37.0560   -5.0360 C.3    49  MET49       0.0596
     32  SD        28.6660   36.7360   -6.4240 S.3    49  MET49      -0.1393
     33  CE        29.7240   37.0830   -7.8150 C.3    49  MET49       0.0692
     34  N         33.1930   39.9670   -6.8820 N.am   50  LEU50      -0.1980
     35  CA        33.5460   41.2390   -7.5600 C.3    50  LEU50       0.1596
     36  C         33.9420   41.0840   -9.0430 C.2    50  LEU50       0.2287
     37  O         33.6340   41.9700   -9.8640 O.2    50  LEU50      -0.2864
     38  CB        34.6370   42.0120   -6.7970 C.3    50  LEU50       0.0297
     39  CG        34.5290   42.2860   -5.2820 C.3    50  LEU50       0.0022
     40  CD1       35.9340   42.5960   -4.6620 C.3    50  LEU50       0.0001
     41  CD2       33.4640   43.3700   -4.9320 C.3    50  LEU50       0.0001
     42  N         13.6340   42.4690    0.5510 N.3   140  PHE140     -0.1227
     43  CA        14.4930   41.3140    0.5830 C.3   140  PHE140      0.1736
     44  C         15.6500   41.5490    1.5120 C.2   140  PHE140      0.2595
     45  O         16.2480   42.6380    1.4960 O.2   140  PHE140     -0.2718
     46  CB        15.0830   41.0810   -0.7960 C.3   140  PHE140      0.0547
     47  CG        14.1010   40.5560   -1.8000 C.ar  140  PHE140     -0.0202
     48  CD1       13.4690   39.3390   -1.6120 C.ar  140  PHE140     -0.0042
     49  CD2       13.8230   41.2760   -2.9600 C.ar  140  PHE140     -0.0042
     50  CE1       12.5750   38.8320   -2.5740 C.ar  140  PHE140     -0.0003
     51  CE2       12.9290   40.7740   -3.9070 C.ar  140  PHE140     -0.0003
     52  CZ        12.3120   39.5500   -3.7100 C.ar  140  PHE140     -0.0000
     53  N         15.9780   40.5420    2.3230 N.am  141  LEU141     -0.1966
     54  CA        17.2220   40.5820    3.1070 C.3   141  LEU141      0.1728
     55  C         18.2230   39.6700    2.4280 C.2   141  LEU141      0.2616
     56  O         17.8930   39.0480    1.3730 O.2   141  LEU141     -0.2715
     57  CB        17.0010   40.1370    4.5520 C.3   141  LEU141      0.0311
     58  CG        15.9700   40.9120    5.3940 C.3   141  LEU141      0.0022
     59  CD1       15.3660   40.0170    6.5220 C.3   141  LEU141      0.0001
     60  CD2       16.5780   42.2020    5.9260 C.3   141  LEU141      0.0001
     61  N         19.4330   39.6070    3.0180 N.am  142  ASN142     -0.1958
     62  CA        20.4360   38.6000    2.6470 C.3   142  ASN142      0.1819
     63  C         19.8930   37.1930    2.8610 C.2   142  ASN142      0.2622
     64  O         19.1680   36.9320    3.8280 O.2   142  ASN142     -0.2715
     65  CB        21.7500   38.7890    3.4040 C.3   142  ASN142      0.1195
     66  CG        22.5530   39.9820    2.8920 C.2   142  ASN142      0.2630
     67  OD1       22.4490   40.3850    1.7100 O.2   142  ASN142     -0.2716
     68  ND2       23.3530   40.5750    3.7890 N.am  142  ASN142     -0.0877
     69  N         20.2340   36.3090    1.9280 N.am  143  GLY143     -0.1940
     70  CA        19.6650   34.9660    1.8410 C.3   143  GLY143      0.2014
     71  C         18.3330   34.8450    1.1140 C.2   143  GLY143      0.2640
     72  O         17.7800   33.7730    1.0750 O.2   143  GLY143     -0.2714
     73  N         17.8080   35.9270    0.5460 N.am  144  SER144     -0.1935
     74  CA        16.5340   35.8380   -0.1840 C.3   144  SER144      0.2055
     75  C         16.6520   35.4140   -1.6690 C.2   144  SER144      0.2643
     76  O         15.6530   35.0450   -2.2930 O.2   144  SER144     -0.2714
     77  CB        15.7310   37.1500   -0.0490 C.3   144  SER144      0.2130
     78  OG        16.2950   38.1970   -0.8330 O.3   144  SER144     -0.2179
     79  N         17.8590   35.4930   -2.2390 N.am  145  CYS145     -0.1967
     80  CA        18.1030   35.0670   -3.6300 C.3   145  CYS145      0.1712
     81  C         17.4840   33.6970   -3.9550 C.2   145  CYS145      0.2296
     82  O         17.4920   32.8120   -3.1060 O.2   145  CYS145     -0.2864
     83  CB        19.5790   35.0340   -3.9110 C.3   145  CYS145      0.0983
     84  SG        20.3740   36.5960   -3.6930 S.3   145  CYS145     -0.0798
     85  N         14.9660   36.0690   -7.9220 N.3   163  HIS163     -0.1226
     86  CA        15.7370   37.1410   -7.2930 C.3   163  HIS163      0.1752
     87  C         17.2230   36.8390   -7.3520 C.2   163  HIS163      0.2596
     88  O         17.6170   35.7100   -7.0270 O.2   163  HIS163     -0.2718
     89  CB        15.2700   37.3640   -5.8410 C.3   163  HIS163      0.0759
     90  CG        15.9210   38.5350   -5.1710 C.ar  163  HIS163      0.0818
     91  ND1       15.9810   39.7850   -5.7490 N.ar  163  HIS163     -0.2268
     92  CD2       16.5640   38.6410   -3.9860 C.ar  163  HIS163      0.1154
     93  CE1       16.6330   40.6120   -4.9500 C.ar  163  HIS163      0.1986
     94  NE2       16.9960   39.9410   -3.8740 N.ar  163  HIS163     -0.2212
     95  N         18.0370   37.8240   -7.7690 N.am  164  HIS164     -0.1961
     96  CA        19.5190   37.6710   -7.7840 C.3   164  HIS164      0.1787
     97  C         20.2400   38.6850   -6.9500 C.2   164  HIS164      0.2620
     98  O         21.2180   38.3090   -6.3080 O.2   164  HIS164     -0.2715
     99  CB        20.1660   37.6540   -9.1720 C.3   164  HIS164      0.0785
    100  CG        19.7830   36.4720  -10.0220 C.ar  164  HIS164      0.0821
    101  ND1       20.7050   35.5650  -10.4880 N.ar  164  HIS164     -0.2267
    102  CD2       18.5870   36.0830  -10.5310 C.ar  164  HIS164      0.1154
    103  CE1       20.0990   34.6660  -11.2440 C.ar  164  HIS164      0.1986
    104  NE2       18.8130   34.9550  -11.2810 N.ar  164  HIS164     -0.2212
    105  N         19.7780   39.9460   -6.9340 N.am  165  MET165     -0.1963
    106  CA        20.5420   41.0140   -6.2920 C.3   165  MET165      0.1736
    107  C         19.8130   42.2960   -5.9500 C.2   165  MET165      0.2616
    108  O         18.7120   42.5390   -6.4120 O.2   165  MET165     -0.2715
    109  CB        21.7390   41.3660   -7.1470 C.3   165  MET165      0.0427
    110  CG        21.4630   42.3860   -8.1930 C.3   165  MET165      0.0599
    111  SD        22.9010   42.5500   -9.2650 S.3   165  MET165     -0.1393
    112  CE        22.0190   43.0260  -10.7380 C.3   165  MET165      0.0692
    113  N         20.4680   43.1260   -5.1400 N.am  166  GLU166     -0.1963
    114  CA        19.9210   44.3850   -4.6960 C.3   166  GLU166      0.1733
    115  C         20.8190   45.5180   -5.1090 C.2   166  GLU166      0.2616
    116  O         22.0250   45.4630   -4.9190 O.2   166  GLU166     -0.2715
    117  CB        19.7650   44.4130   -3.1810 C.3   166  GLU166      0.0429
    118  CG        19.3050   45.7850   -2.6470 C.3   166  GLU166      0.1163
    119  CD        18.9540   45.7590   -1.1740 C.2   166  GLU166      0.3649
    120  OE1       17.8740   45.2370   -0.7850 O.co2 166  GLU166     -0.2457
    121  OE2       19.7760   46.2720   -0.3940 O.co2 166  GLU166     -0.2457
    122  N         20.2050   46.5700   -5.6330 N.am  167  LEU167     -0.1964
    123  CA        20.9270   47.7200   -6.1550 C.3   167  LEU167      0.1713
    124  C         21.1900   48.7400   -5.0540 C.2   167  LEU167      0.2458
    125  O         20.5730   48.6590   -3.9820 O.2   167  LEU167     -0.2730
    126  CB        20.1180   48.3310   -7.3100 C.3   167  LEU167      0.0310
    127  CG        20.1180   47.3960   -8.5250 C.3   167  LEU167      0.0022
    128  CD1       19.3150   47.9470   -9.6690 C.3   167  LEU167      0.0001
    129  CD2       21.5500   46.9920   -8.9760 C.3   167  LEU167      0.0001
    130  N         22.0660   49.7250   -5.3190 N.am  168  PRO168     -0.2727
    131  CA        22.3400   50.7490   -4.3030 C.3   168  PRO168      0.1402
    132  C         21.0980   51.5590   -3.8950 C.2   168  PRO168      0.2269
    133  O         21.0150   52.0320   -2.7590 O.2   168  PRO168     -0.2865
    134  CB        23.3710   51.6640   -4.9710 C.3   168  PRO168      0.0296
    135  CG        23.7710   51.0170   -6.2300 C.3   168  PRO168      0.0237
    136  CD        22.7180   50.0280   -6.6020 C.3   168  PRO168      0.0939
    137  N         15.4200   45.9450   -6.4120 N.3   172  HIS172     -0.1241
    138  CA        15.8540   44.6020   -6.6840 C.3   172  HIS172      0.1621
    139  C         15.8750   44.2540   -8.1240 C.2   172  HIS172      0.2264
    140  O         15.1280   44.8060   -8.8770 O.2   172  HIS172     -0.2867
    141  CB        14.9970   43.6970   -5.8600 C.3   172  HIS172      0.0745
    142  CG        15.0090   44.0960   -4.4260 C.ar  172  HIS172      0.0817
    143  ND1       13.9880   44.8170   -3.8480 N.ar  172  HIS172     -0.2268
    144  CD2       15.9750   43.9840   -3.4810 C.ar  172  HIS172      0.1154
    145  CE1       14.2850   45.0560   -2.5850 C.ar  172  HIS172      0.1986
    146  NE2       15.4910   44.5740   -2.3430 N.ar  172  HIS172     -0.2212
    147  N         25.1800   39.7560  -12.9610 N.3   187  ASP187     -0.1225
    148  CA        25.3940   39.2090  -11.5900 C.3   187  ASP187      0.1805
    149  C         26.8310   39.3500  -11.0840 C.2   187  ASP187      0.2598
    150  O         27.5130   38.3530  -10.9320 O.2   187  ASP187     -0.2718
    151  CB        24.8880   37.7600  -11.3860 C.3   187  ASP187      0.1424
    152  CG        25.2880   36.8250  -12.4830 C.2   187  ASP187      0.3668
    153  OD1       26.0600   37.2420  -13.3560 O.co2 187  ASP187     -0.2456
    154  OD2       24.8000   35.6680  -12.5040 O.co2 187  ASP187     -0.2456
    155  N         27.2480   40.5930  -10.8340 N.am  188  ARG188     -0.1966
    156  CA        28.5510   40.9640  -10.2580 C.3   188  ARG188      0.1729
    157  C         28.3840   42.0990   -9.2300 C.2   188  ARG188      0.2616
    158  O         27.5300   42.9450   -9.3930 O.2   188  ARG188     -0.2715
    159  CB        29.5220   41.4470  -11.3440 C.3   188  ARG188      0.0348
    160  CG        29.4040   40.7230  -12.6690 C.3   188  ARG188      0.0492
    161  CD        30.2630   41.3770  -13.7250 C.3   188  ARG188      0.2205
    162  NE        31.6910   41.2290  -13.4210 N.pl3 188  ARG188     -0.0865
    163  CZ        32.6060   42.2040  -13.5390 C.cat 188  ARG188      0.5346
    164  NH1       32.2590   43.4280  -13.9550 N.pl3 188  ARG188      0.1354
    165  NH2       33.8790   41.9530  -13.2370 N.pl3 188  ARG188      0.1354
    166  N         29.1970   42.1290   -8.1760 N.am  189  GLN189     -0.1963
    167  CA        29.2140   43.2970   -7.2540 C.3   189  GLN189      0.1733
    168  C         30.0930   44.3980   -7.8510 C.2   189  GLN189      0.2617
    169  O         31.2590   44.5260   -7.5060 O.2   189  GLN189     -0.2715
    170  CB        29.6820   42.9570   -5.8250 C.3   189  GLN189      0.0408
    171  CG        28.7700   41.9860   -5.0230 C.3   189  GLN189      0.0908
    172  CD        29.2230   41.7470   -3.5480 C.2   189  GLN189      0.2608
    173  OE1       30.3910   41.9710   -3.1910 O.2   189  GLN189     -0.2717
    174  NE2       28.2890   41.2830   -2.7050 N.am  189  GLN189     -0.0878
    175  N         29.5270   45.1630   -8.7800 N.am  190  THR190     -0.1937
    176  CA        30.1830   46.3610   -9.3000 C.3   190  THR190      0.2028
    177  C         29.2660   47.5900   -9.2040 C.2   190  THR190      0.2642
    178  O         28.1430   47.5050   -8.6870 O.2   190  THR190     -0.2714
    179  CB        30.6430   46.1600  -10.7400 C.3   190  THR190      0.1808
    180  OG1       29.5040   45.8820  -11.5570 O.3   190  THR190     -0.2208
    181  CG2       31.6370   44.9980  -10.8170 C.3   190  THR190      0.0379
    182  N         29.7930   48.7270   -9.6570 N.am  191  ALA191     -0.1963
    183  CA        29.0290   49.9560   -9.8240 C.3   191  ALA191      0.1728
    184  C         27.9380   49.6720  -10.8720 C.2   191  ALA191      0.2616
    185  O         28.2310   49.1960  -11.9900 O.2   191  ALA191     -0.2715
    186  CB        29.9450   51.1030  -10.2850 C.3   191  ALA191      0.0334
    187  N         26.6840   49.9420  -10.5000 N.am  192  GLN192     -0.1977
    188  CA        25.5250   49.5230  -11.3030 C.3   192  GLN192      0.1601
    189  C         24.4620   50.3510  -10.6260 C.2   192  GLN192      0.2287
    190  O         24.5670   50.6250   -9.4170 O.2   192  GLN192     -0.2864
    191  CB        25.3610   48.0250  -11.1910 C.3   192  GLN192      0.0394
    192  CG        25.2440   47.2970  -12.4680 C.3   192  GLN192      0.0908
    193  CD        25.1180   45.8180  -12.2230 C.2   192  GLN192      0.2608
    194  OE1       24.5970   45.0970  -13.0630 O.2   192  GLN192     -0.2717
    195  NE2       25.6070   45.3470  -11.0750 N.am  192  GLN192     -0.0878
@<TRIPOS>BOND
     1   164   163    1
     2   161   162    1
     3   161   160    1
     4   163   162    2
     5   163   165    1
     6   153   152   ar
     7   194   193    2
     8   147   148    1
     9   160   159    1
    10   154   152   ar
    11   152   151    1
    12   192   193    1
    13   192   191    1
    14   193   195   am
    15   185   184    2
    16   148   151    1
    17   148   149    1
    18   180   179    1
    19   159   156    1
    20   188   191    1
    21   188   189    1
    22   188   187    1
    23   104   103   ar
    24   104   102   ar
    25   103   101   ar
    26   149   150    2
    27   149   155   am
    28   184   187   am
    29   184   183    1
    30   155   156    1
    31   181   179    1
    32   179   176    1
    33   112   111    1
    34   189   190    2
    35   102   100   ar
    36   101   100   ar
    37   186   183    1
    38   156   157    1
    39   100    99    1
    40    37    36    2
    41   183   182    1
    42   128   127    1
    43   182   177   am
    44   158   157    2
    45   176   177    1
    46   176   175    1
    47   111   110    1
    48   157   166   am
    49   177   178    2
    50    99    96    1
    51    36    35    1
    52   129   127    1
    53    16    17    1
    54   140   139    2
    55   175   168   am
    56   127   126    1
    57   110   109    1
    58   166   167    1
    59   139   138    1
    60    17    20    1
    61    17    18    1
    62    85    86    1
    63   168   169    2
    64   168   167    1
    65    20    21    1
    66    33    32    1
    67    29    28    2
    68    96    95    1
    69    96    97    1
    70    95    87   am
    71    35    34    1
    72    35    38    1
    73    22    21   ar
    74    22    24   ar
    75    87    86    1
    76    87    88    2
    77   126   123    1
    78    86    89    1
    79   167   170    1
    80   109   106    1
    81    28    34   am
    82    28    27    1
    83    21    23   ar
    84    97   105   am
    85    97    98    2
    86   105   106    1
    87    38    39    1
    88    18    19    2
    89   138   137    1
    90   138   141    1
    91   136   135    1
    92   136   130    1
    93    24    25   ar
    94    32    31    1
    95   108   107    2
    96    27    26    1
    97    27    30    1
    98   106   107    1
    99   135   134    1
   100   123   122    1
   101   123   124    1
   102   107   113   am
   103   141   142    1
   104    89    90    1
   105   170   171    1
   106    91    90   ar
   107    91    93   ar
   108   122   115   am
   109    23    25   ar
   110   130   124   am
   111   130   131    1
   112    39    41    1
   113    39    40    1
   114    30    31    1
   115    90    92   ar
   116   113   114    1
   117   115   116    2
   118   115   114    1
   119   124   125    2
   120   171   172    1
   121   134   131    1
   122    93    94   ar
   123   114   117    1
   124   142   143   ar
   125   142   144   ar
   126    15    13    1
   127   131   132    1
   128    92    94   ar
   129    14    13    1
   130    81    80    1
   131    81    82    2
   132    83    84    1
   133    83    80    1
   134    51    52   ar
   135    51    49   ar
   136   132   133    2
   137   143   145   ar
   138    52    50   ar
   139    80    79    1
   140   172   173    2
   141   172   174   am
   142   144   146   ar
   143    13    12    1
   144   117   118    1
   145    49    47   ar
   146   118   119    1
   147   145   146   ar
   148    50    48   ar
   149    76    75    2
   150    79    75   am
   151    12     9    1
   152    47    48   ar
   153    47    46    1
   154    75    74    1
   155    10    11    2
   156    10     9    1
   157   119   120   ar
   158   119   121   ar
   159     9     8    1
   160    78    77    1
   161    46    43    1
   162     8     3   am
   163    74    77    1
   164    74    73    1
   165     3     4    2
   166     3     2    1
   167    73    71   am
   168    42    43    1
   169    43    44    1
   170     1     2    1
   171     2     5    1
   172    72    71    2
   173    71    70    1
   174    56    55    2
   175    45    44    2
   176    44    53   am
   177    67    66    2
   178    70    69    1
   179    69    63   am
   180     5     7    1
   181     5     6    1
   182    53    54    1
   183    55    61   am
   184    55    54    1
   185    62    63    1
   186    62    61    1
   187    62    65    1
   188    63    64    2
   189    66    65    1
   190    66    68   am
   191    54    57    1
   192    57    58    1
   193    58    60    1
   194    58    59    1
