@<TRIPOS>MOLECULE
tmp/3sngA00.pdb
 113 109 0 0 0
SMALL
GASTEIGER

@<TRIPOS>ATOM
      1  N        -53.0760  -23.7550  -11.3460 N.3    55  TRP55      -0.1241
      2  CA       -53.0770  -22.3500  -11.0240 C.3    55  TRP55       0.1605
      3  C        -51.7180  -21.7900  -10.5970 C.2    55  TRP55       0.2264
      4  O        -51.5110  -20.5840  -10.7040 O.2    55  TRP55      -0.2867
      5  CB       -54.1180  -22.0220   -9.9450 C.3    55  TRP55       0.0550
      6  CG       -53.9140  -22.7190   -8.6170 C.ar   55  TRP55       0.0003
      7  CD1      -54.4200  -23.9200   -8.2500 C.ar   55  TRP55       0.0946
      8  CD2      -53.1840  -22.2330   -7.4960 C.ar   55  TRP55       0.0152
      9  NE1      -54.0370  -24.2310   -6.9750 N.ar   55  TRP55      -0.2442
     10  CE2      -53.2880  -23.2000   -6.4810 C.ar   55  TRP55       0.0810
     11  CE3      -52.4580  -21.0650   -7.2450 C.ar   55  TRP55       0.0012
     12  CZ2      -52.6890  -23.0440   -5.2300 C.ar   55  TRP55       0.0191
     13  CZ3      -51.8710  -20.9000   -6.0060 C.ar   55  TRP55       0.0001
     14  CH2      -51.9630  -21.8940   -5.0230 C.ar   55  TRP55       0.0015
     15  N        -47.2940  -18.3590  -11.4640 N.3    59  LEU59      -0.1245
     16  CA       -46.8070  -17.6390  -10.2990 C.3    59  LEU59       0.1561
     17  C        -45.2800  -17.6720  -10.1180 C.2    59  LEU59       0.2260
     18  O        -44.7630  -17.0420   -9.1820 O.2    59  LEU59      -0.2867
     19  CB       -47.4320  -18.1750   -9.0460 C.3    59  LEU59       0.0270
     20  CG       -48.9190  -18.1810   -9.0060 C.3    59  LEU59       0.0019
     21  CD1      -49.4130  -18.6170   -7.6440 C.3    59  LEU59       0.0001
     22  CD2      -49.4460  -16.7580   -9.4110 C.3    59  LEU59       0.0001
     23  N        -55.8100  -12.8300  -16.2140 N.3    83  VAL83      -0.1245
     24  CA       -56.2380  -12.8400  -14.8170 C.3    83  VAL83       0.1561
     25  C        -55.1790  -12.1190  -13.9660 C.2    83  VAL83       0.2260
     26  O        -54.0010  -12.5140  -13.9460 O.2    83  VAL83      -0.2867
     27  CB       -56.5210  -14.2690  -14.3110 C.3    83  VAL83       0.0252
     28  CG1      -56.9450  -14.2570  -12.8430 C.3    83  VAL83       0.0019
     29  CG2      -57.6280  -14.8820  -15.1390 C.3    83  VAL83       0.0019
     30  N        -52.8670  -10.4220  -10.9350 N.3    85  ASP85      -0.1225
     31  CA       -52.0490  -10.8330   -9.7940 C.3    85  ASP85       0.1805
     32  C        -51.3780  -12.1350  -10.0250 C.2    85  ASP85       0.2597
     33  O        -50.5270  -12.5030   -9.2270 O.2    85  ASP85      -0.2718
     34  CB       -52.8000  -10.8840   -8.4730 C.3    85  ASP85       0.1424
     35  CG       -53.4650   -9.5920   -8.1530 C.2    85  ASP85       0.3668
     36  OD1      -52.7870   -8.5670   -8.1730 O.co2  85  ASP85      -0.2456
     37  OD2      -54.6690   -9.6050   -7.8940 O.co2  85  ASP85      -0.2456
     38  N        -51.6760  -12.8120  -11.1280 N.am   86  MET86      -0.1979
     39  CA       -51.1000  -14.1420  -11.3470 C.3    86  MET86       0.1605
     40  C        -49.6940  -14.0420  -11.9530 C.2    86  MET86       0.2287
     41  O        -49.4470  -14.3290  -13.1750 O.2    86  MET86      -0.2864
     42  CB       -52.0570  -15.0160  -12.1660 C.3    86  MET86       0.0413
     43  CG       -53.4350  -15.1930  -11.5420 C.3    86  MET86       0.0598
     44  SD       -53.4320  -15.8400   -9.8500 S.3    86  MET86      -0.1393
     45  CE       -53.1390  -17.6040  -10.1770 C.3    86  MET86       0.0692
     46  N        -47.3660  -10.9360   -7.4680 N.3    90  GLY90      -0.1210
     47  CA       -48.6550  -11.1270   -6.8640 C.3    90  GLY90       0.1956
     48  C        -48.6650  -12.2900   -5.8690 C.2    90  GLY90       0.2611
     49  O        -49.2680  -12.1910   -4.7870 O.2    90  GLY90      -0.2717
     50  N        -48.0000  -13.3710   -6.2260 N.am   91  ALA91      -0.1979
     51  CA       -47.9300  -14.5370   -5.3470 C.3    91  ALA91       0.1597
     52  C        -47.2590  -14.2120   -4.0080 C.2    91  ALA91       0.2287
     53  O        -47.7510  -14.6330   -2.9440 O.2    91  ALA91      -0.2864
     54  CB       -47.1930  -15.7220   -6.0440 C.3    91  ALA91       0.0319
     55  N        -49.6920  -12.4680   -1.8960 N.3    94  ASN94      -0.1225
     56  CA       -50.7500  -13.3820   -1.4900 C.3    94  ASN94       0.1785
     57  C        -50.3040  -14.2150   -0.3140 C.2    94  ASN94       0.2597
     58  O        -50.9740  -14.2720    0.7160 O.2    94  ASN94      -0.2718
     59  CB       -51.0370  -14.2710   -2.6760 C.3    94  ASN94       0.1169
     60  CG       -52.2240  -15.1700   -2.4960 C.2    94  ASN94       0.2627
     61  OD1      -53.0410  -15.0070   -1.6140 O.2    94  ASN94      -0.2716
     62  ND2      -52.3120  -16.1530   -3.3790 N.am   94  ASN94      -0.0877
     63  N        -49.1590  -14.8630   -0.4310 N.am   95  PHE95      -0.1976
     64  CA       -48.7670  -15.7940    0.6330 C.3    95  PHE95       0.1639
     65  C        -48.2280  -15.0710    1.8560 C.2    95  PHE95       0.2290
     66  O        -48.3440  -15.5800    2.9840 O.2    95  PHE95      -0.2864
     67  CB       -47.8230  -16.8670    0.0860 C.3    95  PHE95       0.0560
     68  CG       -48.4890  -17.7260   -0.9840 C.ar   95  PHE95      -0.0200
     69  CD1      -49.5590  -18.5220   -0.6440 C.ar   95  PHE95      -0.0042
     70  CD2      -48.1160  -17.6340   -2.3220 C.ar   95  PHE95      -0.0042
     71  CE1      -50.2120  -19.3020   -1.5930 C.ar   95  PHE95      -0.0003
     72  CE2      -48.7800  -18.3720   -3.2890 C.ar   95  PHE95      -0.0003
     73  CZ       -49.8310  -19.2160   -2.9150 C.ar   95  PHE95      -0.0000
     74  N        -51.4230  -14.2970    3.5810 N.3    98  GLN98      -0.1245
     75  CA       -51.8720  -15.5180    4.2480 C.3    98  GLN98       0.1566
     76  C        -51.0840  -15.8470    5.5430 C.2    98  GLN98       0.2260
     77  O        -51.6850  -16.1240    6.5870 O.2    98  GLN98      -0.2867
     78  CB       -51.8850  -16.7080    3.2920 C.3    98  GLN98       0.0367
     79  CG       -52.8350  -16.5740    2.0990 C.3    98  GLN98       0.0905
     80  CD       -52.7900  -17.8250    1.2320 C.2    98  GLN98       0.2608
     81  OE1      -52.4650  -18.8910    1.7220 O.2    98  GLN98      -0.2717
     82  NE2      -53.1380  -17.7010   -0.0450 N.am   98  GLN98      -0.0878
     83  N        -59.5240  -23.7590    3.9550 N.3   110  ARG110     -0.1231
     84  CA       -58.7590  -23.8270    2.7340 C.3   110  ARG110      0.1694
     85  C        -57.3640  -23.1500    2.7400 C.2   110  ARG110      0.2592
     86  O        -56.5270  -23.5370    1.9160 O.2   110  ARG110     -0.2718
     87  CB       -59.6520  -23.4630    1.5420 C.3   110  ARG110      0.0321
     88  CG       -60.3650  -24.7540    1.0200 C.3   110  ARG110      0.0489
     89  CD       -61.6530  -24.5550    0.2290 C.3   110  ARG110      0.2205
     90  NE       -61.5430  -23.6730   -0.9300 N.pl3 110  ARG110     -0.0865
     91  CZ       -60.8690  -23.9460   -2.0520 C.cat 110  ARG110      0.5346
     92  NH1      -60.1790  -25.0840   -2.1960 N.pl3 110  ARG110      0.1354
     93  NH2      -60.8710  -23.0510   -3.0390 N.pl3 110  ARG110      0.1354
     94  N        -57.1000  -22.2000    3.6650 N.am  111  TYR111     -0.1962
     95  CA       -55.7470  -21.5890    3.8080 C.3   111  TYR111      0.1771
     96  C        -54.8060  -22.6110    4.4340 C.2   111  TYR111      0.2619
     97  O        -54.9310  -22.8810    5.6110 O.2   111  TYR111     -0.2715
     98  CB       -55.7560  -20.3730    4.7530 C.3   111  TYR111      0.0574
     99  CG       -56.0260  -18.9870    4.1870 C.ar  111  TYR111     -0.0198
    100  CD1      -56.3620  -18.7680    2.8450 C.ar  111  TYR111     -0.0009
    101  CD2      -55.9910  -17.8790    5.0430 C.ar  111  TYR111     -0.0009
    102  CE1      -56.6340  -17.4700    2.3820 C.ar  111  TYR111      0.0417
    103  CE2      -56.2670  -16.5980    4.5980 C.ar  111  TYR111      0.0417
    104  CZ       -56.5810  -16.3970    3.2740 C.ar  111  TYR111      0.1957
    105  OH       -56.8410  -15.1150    2.8670 O.3   111  TYR111     -0.2866
    106  N        -53.8510  -23.1540    3.6840 N.am  112  ASN112     -0.1972
    107  CA       -52.8200  -24.0260    4.2530 C.3   112  ASN112      0.1688
    108  C        -51.4730  -23.2710    4.4730 C.2   112  ASN112      0.2292
    109  O        -50.7740  -22.8410    3.5090 O.2   112  ASN112     -0.2864
    110  CB       -52.6830  -25.2250    3.3380 C.3   112  ASN112      0.1181
    111  CG       -51.6890  -26.2340    3.8010 C.2   112  ASN112      0.2629
    112  OD1      -50.5910  -25.9170    4.2890 O.2   112  ASN112     -0.2716
    113  ND2      -52.0420  -27.5020    3.6020 N.am  112  ASN112     -0.0877
@<TRIPOS>BOND
     1    23    24    1
     2    29    27    1
     3    24    27    1
     4    24    25    1
     5    27    28    1
     6    25    26    2
     7    41    40    2
     8    42    43    1
     9    42    39    1
    10    40    39    1
    11    43    44    1
    12    15    16    1
    13    39    38    1
    14     1     2    1
    15    38    32   am
    16     2     3    1
    17     2     5    1
    18    30    31    1
    19     4     3    2
    20    16    17    1
    21    16    19    1
    22    45    44    1
    23    17    18    2
    24    32    31    1
    25    32    33    2
    26     5     6    1
    27    31    34    1
    28    22    20    1
    29    19    20    1
    30    20    21    1
    31     6     7   ar
    32     6     8   ar
    33    34    35    1
    34     7     9   ar
    35    36    35   ar
    36    35    37   ar
    37     8    11   ar
    38     8    10   ar
    39    46    47    1
    40    11    13   ar
    41     9    10   ar
    42    47    48    1
    43    10    12   ar
    44    50    48   am
    45    50    51    1
    46    54    51    1
    47    13    14   ar
    48    48    49    2
    49    51    52    1
    50    12    14   ar
    51    52    53    2
    52    62    60   am
    53    72    73   ar
    54    72    70   ar
    55    93    91    1
    56    73    71   ar
    57    59    60    1
    58    59    56    1
    59    60    61    2
    60    70    68   ar
    61    92    91    1
    62    91    90    2
    63    55    56    1
    64    71    69   ar
    65    56    57    1
    66    68    69   ar
    67    68    67    1
    68    90    89    1
    69    63    57   am
    70    63    64    1
    71    57    58    2
    72    82    80   am
    73    67    64    1
    74    89    88    1
    75    64    65    1
    76    88    87    1
    77    80    81    2
    78    80    79    1
    79    87    84    1
    80    65    66    2
    81    86    85    2
    82    79    78    1
    83   102   100   ar
    84   102   104   ar
    85    84    85    1
    86    84    83    1
    87    85    94   am
    88   100    99   ar
    89   105   104    1
    90   104   103   ar
    91    78    75    1
    92   110   111    1
    93   110   107    1
    94   109   108    2
    95    74    75    1
    96   113   111   am
    97    94    95    1
    98   106   107    1
    99   106    96   am
   100   111   112    2
   101    95    96    1
   102    95    98    1
   103    99    98    1
   104    99   101   ar
   105    75    76    1
   106   107   108    1
   107    96    97    2
   108   103   101   ar
   109    76    77    2
